MODEL 1
REMARK VINA RESULT: -5.187175075      0.000      0.000
REMARK  10 active torsions:
REMARK  status: ('A' for Active; 'I' for Inactive)
REMARK       I    between atoms: C2_2  and  N1_4 
REMARK       I    between atoms: N1_4  and  C3_6 
REMARK    1  A    between atoms: C3_6  and  C4_8 
REMARK    2  A    between atoms: C5_9  and  N2_10 
REMARK    3  A    between atoms: N2_10  and  N3_11 
REMARK    4  A    between atoms: N2_10  and  O5_21 
REMARK    5  A    between atoms: N3_11  and  S1_13 
REMARK    6  A    between atoms: S1_13  and  N4_16 
REMARK    7  A    between atoms: N4_16  and  N5_18 
REMARK    8  A    between atoms: O5_21  and  N6_22 
REMARK    9  A    between atoms: C6_28  and  C7_29 
REMARK   10  A    between atoms: C7_29  and  O6_30 
ROOT
HETATM    1  C4  UNL     1     -22.832  15.268  20.902  1.00  0.00     0.174 C 
HETATM    2  C5  UNL     1     -23.050  15.764  19.536  1.00  0.00     0.158 C 
HETATM    3  N7  UNL     1     -22.752  17.014  19.513  1.00  0.00    -0.288 N 
ATOM      4  H7  UNL     1     -22.810  17.615  18.691  1.00  0.00     0.183 HD
HETATM    5  N8  UNL     1     -22.331  17.434  20.800  1.00  0.00    -0.132 NA
HETATM    6  C6  UNL     1     -21.701  16.217  21.328  1.00  0.00     0.143 C 
ENDROOT
BRANCH   2   7
HETATM    7  N2  UNL     1     -23.503  15.074  18.374  1.00  0.00    -0.111 N 
BRANCH   7   8
HETATM    8  N3  UNL     1     -24.645  15.515  17.700  1.00  0.00    -0.179 N 
ATOM      9  H3  UNL     1     -25.599  15.300  17.987  1.00  0.00     0.204 HD
BRANCH   8  10
HETATM   10  S1  UNL     1     -24.241  16.469  16.321  1.00  0.00     0.351 S 
HETATM   11  O3  UNL     1     -25.393  16.706  15.419  1.00  0.00    -0.179 OA
HETATM   12  O4  UNL     1     -23.721  17.968  16.894  1.00  0.00    -0.179 OA
BRANCH  10  13
HETATM   13  N4  UNL     1     -23.093  15.806  15.484  1.00  0.00    -0.215 N 
ATOM     14  H4  UNL     1     -23.289  15.184  14.700  1.00  0.00     0.201 HD
BRANCH  13  15
HETATM   15  N5  UNL     1     -21.787  16.114  15.873  1.00  0.00    -0.335 N 
ATOM     16  H52 UNL     1     -20.992  15.868  15.284  1.00  0.00     0.177 HD
ATOM     17  H51 UNL     1     -21.684  16.593  16.768  1.00  0.00     0.177 HD
ENDBRANCH  13  15
ENDBRANCH  10  13
ENDBRANCH   8  10
ENDBRANCH   7   8
BRANCH   7  18
HETATM   18  O5  UNL     1     -22.873  13.988  17.873  1.00  0.00    -0.139 OA
BRANCH  18  19
HETATM   19  N6  UNL     1     -23.694  12.924  17.743  1.00  0.00    -0.284 N 
ATOM     20  H62 UNL     1     -23.366  11.960  17.813  1.00  0.00     0.186 HD
ATOM     21  H61 UNL     1     -24.663  13.193  17.571  1.00  0.00     0.186 HD
ENDBRANCH  18  19
ENDBRANCH   7  18
ENDBRANCH   2   7
BRANCH   1  22
HETATM   22  C3  UNL     1     -22.494  13.865  21.001  1.00  0.00     0.237 C 
HETATM   23  N1  UNL     1     -21.247  13.389  20.533  1.00  0.00    -0.297 N 
HETATM   24  C2  UNL     1     -20.872  12.019  20.597  1.00  0.00     0.220 C 
ATOM     25  H1  UNL     1     -20.589  14.057  20.132  1.00  0.00     0.171 HD
HETATM   26  C1  UNL     1     -19.569  11.551  20.103  1.00  0.00     0.117 C 
HETATM   27  O1  UNL     1     -21.682  11.199  21.089  1.00  0.00    -0.274 OA
HETATM   28  O2  UNL     1     -23.296  13.042  21.500  1.00  0.00    -0.272 OA
ENDBRANCH   1  22
BRANCH   6  29
HETATM   29  C7  UNL     1     -21.517  16.261  22.798  1.00  0.00     0.188 C 
BRANCH  29  30
HETATM   30  O6  UNL     1     -20.558  17.183  23.204  1.00  0.00    -0.399 OA
ATOM     31  H6  UNL     1     -20.335  17.111  24.125  1.00  0.00     0.209 HD
ENDBRANCH  29  30
ENDBRANCH   6  29
TORSDOF 10
ENDMDL
MODEL 2
REMARK VINA RESULT: -5.167971708      1.143      1.214
REMARK  10 active torsions:
REMARK  status: ('A' for Active; 'I' for Inactive)
REMARK       I    between atoms: C2_2  and  N1_4 
REMARK       I    between atoms: N1_4  and  C3_6 
REMARK    1  A    between atoms: C3_6  and  C4_8 
REMARK    2  A    between atoms: C5_9  and  N2_10 
REMARK    3  A    between atoms: N2_10  and  N3_11 
REMARK    4  A    between atoms: N2_10  and  O5_21 
REMARK    5  A    between atoms: N3_11  and  S1_13 
REMARK    6  A    between atoms: S1_13  and  N4_16 
REMARK    7  A    between atoms: N4_16  and  N5_18 
REMARK    8  A    between atoms: O5_21  and  N6_22 
REMARK    9  A    between atoms: C6_28  and  C7_29 
REMARK   10  A    between atoms: C7_29  and  O6_30 
ROOT
HETATM    1  C4  UNL     1     -22.428  15.241  21.042  1.00  0.00     0.174 C 
HETATM    2  C5  UNL     1     -23.188  15.868  19.950  1.00  0.00     0.158 C 
HETATM    3  N7  UNL     1     -23.440  17.083  20.286  1.00  0.00    -0.288 N 
ATOM      4  H7  UNL     1     -23.955  17.754  19.716  1.00  0.00     0.183 HD
HETATM    5  N8  UNL     1     -22.895  17.354  21.567  1.00  0.00    -0.132 NA
HETATM    6  C6  UNL     1     -21.709  16.487  21.584  1.00  0.00     0.143 C 
ENDROOT
BRANCH   2   7
HETATM    7  N2  UNL     1     -23.618  15.324  18.705  1.00  0.00    -0.111 N 
BRANCH   7   8
HETATM    8  N3  UNL     1     -24.676  15.916  18.012  1.00  0.00    -0.179 N 
ATOM      9  H3  UNL     1     -25.659  15.797  18.255  1.00  0.00     0.204 HD
BRANCH   8  10
HETATM   10  S1  UNL     1     -24.116  16.875  16.692  1.00  0.00     0.351 S 
HETATM   11  O3  UNL     1     -24.743  16.511  15.399  1.00  0.00    -0.179 OA
HETATM   12  O4  UNL     1     -24.532  18.473  17.033  1.00  0.00    -0.179 OA
BRANCH  10  13
HETATM   13  N4  UNL     1     -22.560  16.766  16.529  1.00  0.00    -0.215 N 
ATOM     14  H4  UNL     1     -21.922  17.386  17.027  1.00  0.00     0.201 HD
BRANCH  13  15
HETATM   15  N5  UNL     1     -22.098  15.772  15.662  1.00  0.00    -0.335 N 
ATOM     16  H52 UNL     1     -22.634  14.919  15.509  1.00  0.00     0.177 HD
ATOM     17  H51 UNL     1     -21.205  15.954  15.202  1.00  0.00     0.177 HD
ENDBRANCH  13  15
ENDBRANCH  10  13
ENDBRANCH   8  10
ENDBRANCH   7   8
BRANCH   7  18
HETATM   18  O5  UNL     1     -23.043  14.238  18.142  1.00  0.00    -0.139 OA
BRANCH  18  19
HETATM   19  N6  UNL     1     -23.939  13.273  17.841  1.00  0.00    -0.284 N 
ATOM     20  H62 UNL     1     -24.849  13.473  17.425  1.00  0.00     0.186 HD
ATOM     21  H61 UNL     1     -23.603  12.338  18.073  1.00  0.00     0.186 HD
ENDBRANCH  18  19
ENDBRANCH   7  18
ENDBRANCH   2   7
BRANCH   1  22
HETATM   22  C3  UNL     1     -21.539  14.174  20.639  1.00  0.00     0.237 C 
HETATM   23  N1  UNL     1     -21.922  12.821  20.790  1.00  0.00    -0.297 N 
HETATM   24  C2  UNL     1     -21.080  11.736  20.419  1.00  0.00     0.220 C 
ATOM     25  H1  UNL     1     -22.841  12.614  21.181  1.00  0.00     0.171 HD
HETATM   26  C1  UNL     1     -21.504  10.339  20.587  1.00  0.00     0.117 C 
HETATM   27  O1  UNL     1     -19.951  11.991  19.939  1.00  0.00    -0.274 OA
HETATM   28  O2  UNL     1     -20.413  14.424  20.150  1.00  0.00    -0.272 OA
ENDBRANCH   1  22
BRANCH   6  29
HETATM   29  C7  UNL     1     -21.170  16.283  22.949  1.00  0.00     0.188 C 
BRANCH  29  30
HETATM   30  O6  UNL     1     -20.509  17.401  23.450  1.00  0.00    -0.399 OA
ATOM     31  H6  UNL     1     -19.563  17.331  23.396  1.00  0.00     0.209 HD
ENDBRANCH  29  30
ENDBRANCH   6  29
TORSDOF 10
ENDMDL
MODEL 3
REMARK VINA RESULT: -5.068227107      2.629      4.707
REMARK  10 active torsions:
REMARK  status: ('A' for Active; 'I' for Inactive)
REMARK       I    between atoms: C2_2  and  N1_4 
REMARK       I    between atoms: N1_4  and  C3_6 
REMARK    1  A    between atoms: C3_6  and  C4_8 
REMARK    2  A    between atoms: C5_9  and  N2_10 
REMARK    3  A    between atoms: N2_10  and  N3_11 
REMARK    4  A    between atoms: N2_10  and  O5_21 
REMARK    5  A    between atoms: N3_11  and  S1_13 
REMARK    6  A    between atoms: S1_13  and  N4_16 
REMARK    7  A    between atoms: N4_16  and  N5_18 
REMARK    8  A    between atoms: O5_21  and  N6_22 
REMARK    9  A    between atoms: C6_28  and  C7_29 
REMARK   10  A    between atoms: C7_29  and  O6_30 
ROOT
HETATM    1  C4  UNL     1     -21.185  14.914  21.427  1.00  0.00     0.174 C 
HETATM    2  C5  UNL     1     -21.229  13.470  21.700  1.00  0.00     0.158 C 
HETATM    3  N7  UNL     1     -21.458  13.308  22.954  1.00  0.00    -0.288 N 
ATOM      4  H7  UNL     1     -21.540  12.405  23.423  1.00  0.00     0.183 HD
HETATM    5  N8  UNL     1     -21.581  14.569  23.590  1.00  0.00    -0.132 NA
HETATM    6  C6  UNL     1     -22.153  15.397  22.520  1.00  0.00     0.143 C 
ENDROOT
BRANCH   2   7
HETATM    7  N2  UNL     1     -21.064  12.366  20.813  1.00  0.00    -0.111 N 
BRANCH   7   8
HETATM    8  N3  UNL     1     -21.969  11.302  20.845  1.00  0.00    -0.179 N 
ATOM      9  H3  UNL     1     -22.028  10.623  21.603  1.00  0.00     0.204 HD
BRANCH   8  10
HETATM   10  S1  UNL     1     -22.974  11.280  19.444  1.00  0.00     0.351 S 
HETATM   11  O3  UNL     1     -23.445   9.920  19.086  1.00  0.00    -0.179 OA
HETATM   12  O4  UNL     1     -24.330  12.217  19.795  1.00  0.00    -0.179 OA
BRANCH  10  13
HETATM   13  N4  UNL     1     -22.233  11.883  18.200  1.00  0.00    -0.215 N 
ATOM     14  H4  UNL     1     -22.314  12.869  17.952  1.00  0.00     0.201 HD
BRANCH  13  15
HETATM   15  N5  UNL     1     -21.456  10.995  17.453  1.00  0.00    -0.335 N 
ATOM     16  H52 UNL     1     -20.487  11.212  17.222  1.00  0.00     0.177 HD
ATOM     17  H51 UNL     1     -21.914  10.132  17.159  1.00  0.00     0.177 HD
ENDBRANCH  13  15
ENDBRANCH  10  13
ENDBRANCH   8  10
ENDBRANCH   7   8
BRANCH   7  18
HETATM   18  O5  UNL     1     -20.054  12.289  19.919  1.00  0.00    -0.139 OA
BRANCH  18  19
HETATM   19  N6  UNL     1     -19.217  11.258  20.166  1.00  0.00    -0.284 N 
ATOM     20  H62 UNL     1     -19.099  10.852  21.095  1.00  0.00     0.186 HD
ATOM     21  H61 UNL     1     -18.727  10.940  19.330  1.00  0.00     0.186 HD
ENDBRANCH  18  19
ENDBRANCH   7  18
ENDBRANCH   2   7
BRANCH   1  22
HETATM   22  C3  UNL     1     -21.569  15.299  20.087  1.00  0.00     0.237 C 
HETATM   23  N1  UNL     1     -22.870  15.025  19.603  1.00  0.00    -0.297 N 
HETATM   24  C2  UNL     1     -23.292  15.373  18.290  1.00  0.00     0.220 C 
ATOM     25  H1  UNL     1     -23.533  14.558  20.221  1.00  0.00     0.171 HD
HETATM   26  C1  UNL     1     -24.651  15.076  17.813  1.00  0.00     0.117 C 
HETATM   27  O1  UNL     1     -22.476  15.946  17.530  1.00  0.00    -0.274 OA
HETATM   28  O2  UNL     1     -20.761  15.879  19.326  1.00  0.00    -0.272 OA
ENDBRANCH   1  22
BRANCH   6  29
HETATM   29  C7  UNL     1     -22.025  16.848  22.791  1.00  0.00     0.188 C 
BRANCH  29  30
HETATM   30  O6  UNL     1     -20.718  17.242  23.062  1.00  0.00    -0.399 OA
ATOM     31  H6  UNL     1     -20.234  16.605  23.575  1.00  0.00     0.209 HD
ENDBRANCH  29  30
ENDBRANCH   6  29
TORSDOF 10
ENDMDL
MODEL 4
REMARK VINA RESULT: -5.064953953      1.697      2.709
REMARK  10 active torsions:
REMARK  status: ('A' for Active; 'I' for Inactive)
REMARK       I    between atoms: C2_2  and  N1_4 
REMARK       I    between atoms: N1_4  and  C3_6 
REMARK    1  A    between atoms: C3_6  and  C4_8 
REMARK    2  A    between atoms: C5_9  and  N2_10 
REMARK    3  A    between atoms: N2_10  and  N3_11 
REMARK    4  A    between atoms: N2_10  and  O5_21 
REMARK    5  A    between atoms: N3_11  and  S1_13 
REMARK    6  A    between atoms: S1_13  and  N4_16 
REMARK    7  A    between atoms: N4_16  and  N5_18 
REMARK    8  A    between atoms: O5_21  and  N6_22 
REMARK    9  A    between atoms: C6_28  and  C7_29 
REMARK   10  A    between atoms: C7_29  and  O6_30 
ROOT
HETATM    1  C4  UNL     1     -22.574  15.370  20.758  1.00  0.00     0.174 C 
HETATM    2  C5  UNL     1     -23.192  15.943  19.554  1.00  0.00     0.158 C 
HETATM    3  N7  UNL     1     -23.518  17.159  19.812  1.00  0.00    -0.288 N 
ATOM      4  H7  UNL     1     -23.968  17.797  19.156  1.00  0.00     0.183 HD
HETATM    5  N8  UNL     1     -23.161  17.482  21.146  1.00  0.00    -0.132 NA
HETATM    6  C6  UNL     1     -21.967  16.651  21.352  1.00  0.00     0.143 C 
ENDROOT
BRANCH   2   7
HETATM    7  N2  UNL     1     -23.434  15.350  18.280  1.00  0.00    -0.111 N 
BRANCH   7   8
HETATM    8  N3  UNL     1     -24.614  14.637  18.054  1.00  0.00    -0.179 N 
ATOM      9  H3  UNL     1     -25.520  15.070  17.874  1.00  0.00     0.204 HD
BRANCH   8  10
HETATM   10  S1  UNL     1     -24.350  12.934  18.115  1.00  0.00     0.351 S 
HETATM   11  O3  UNL     1     -24.536  12.364  19.471  1.00  0.00    -0.179 OA
HETATM   12  O4  UNL     1     -25.490  12.222  17.097  1.00  0.00    -0.179 OA
BRANCH  10  13
HETATM   13  N4  UNL     1     -22.908  12.562  17.622  1.00  0.00    -0.215 N 
ATOM     14  H4  UNL     1     -22.148  12.371  18.276  1.00  0.00     0.201 HD
BRANCH  13  15
HETATM   15  N5  UNL     1     -22.723  12.507  16.239  1.00  0.00    -0.335 N 
ATOM     16  H52 UNL     1     -22.386  13.319  15.722  1.00  0.00     0.177 HD
ATOM     17  H51 UNL     1     -22.943  11.618  15.789  1.00  0.00     0.177 HD
ENDBRANCH  13  15
ENDBRANCH  10  13
ENDBRANCH   8  10
ENDBRANCH   7   8
BRANCH   7  18
HETATM   18  O5  UNL     1     -22.563  15.443  17.251  1.00  0.00    -0.139 OA
BRANCH  18  19
HETATM   19  N6  UNL     1     -22.939  16.359  16.332  1.00  0.00    -0.284 N 
ATOM     20  H62 UNL     1     -23.711  17.009  16.483  1.00  0.00     0.186 HD
ATOM     21  H61 UNL     1     -22.370  16.325  15.487  1.00  0.00     0.186 HD
ENDBRANCH  18  19
ENDBRANCH   7  18
ENDBRANCH   2   7
BRANCH   1  22
HETATM   22  C3  UNL     1     -21.611  14.318  20.514  1.00  0.00     0.237 C 
HETATM   23  N1  UNL     1     -21.907  12.977  20.853  1.00  0.00    -0.297 N 
HETATM   24  C2  UNL     1     -20.991  11.910  20.643  1.00  0.00     0.220 C 
ATOM     25  H1  UNL     1     -22.816  12.767  21.264  1.00  0.00     0.171 HD
HETATM   26  C1  UNL     1     -21.325  10.524  21.004  1.00  0.00     0.117 C 
HETATM   27  O1  UNL     1     -19.874  12.170  20.138  1.00  0.00    -0.274 OA
HETATM   28  O2  UNL     1     -20.497  14.571  20.002  1.00  0.00    -0.272 OA
ENDBRANCH   1  22
BRANCH   6  29
HETATM   29  C7  UNL     1     -21.615  16.503  22.784  1.00  0.00     0.188 C 
BRANCH  29  30
HETATM   30  O6  UNL     1     -20.516  17.269  23.161  1.00  0.00    -0.399 OA
ATOM     31  H6  UNL     1     -20.753  18.049  23.649  1.00  0.00     0.209 HD
ENDBRANCH  29  30
ENDBRANCH   6  29
TORSDOF 10
ENDMDL
MODEL 5
REMARK VINA RESULT: -4.967738729      2.674      5.531
REMARK  10 active torsions:
REMARK  status: ('A' for Active; 'I' for Inactive)
REMARK       I    between atoms: C2_2  and  N1_4 
REMARK       I    between atoms: N1_4  and  C3_6 
REMARK    1  A    between atoms: C3_6  and  C4_8 
REMARK    2  A    between atoms: C5_9  and  N2_10 
REMARK    3  A    between atoms: N2_10  and  N3_11 
REMARK    4  A    between atoms: N2_10  and  O5_21 
REMARK    5  A    between atoms: N3_11  and  S1_13 
REMARK    6  A    between atoms: S1_13  and  N4_16 
REMARK    7  A    between atoms: N4_16  and  N5_18 
REMARK    8  A    between atoms: O5_21  and  N6_22 
REMARK    9  A    between atoms: C6_28  and  C7_29 
REMARK   10  A    between atoms: C7_29  and  O6_30 
ROOT
HETATM    1  C4  UNL     1     -23.439  16.322  19.612  1.00  0.00     0.174 C 
HETATM    2  C5  UNL     1     -23.150  14.924  19.259  1.00  0.00     0.158 C 
HETATM    3  N7  UNL     1     -23.216  14.814  17.980  1.00  0.00    -0.288 N 
ATOM      4  H7  UNL     1     -23.060  13.952  17.457  1.00  0.00     0.183 HD
HETATM    5  N8  UNL     1     -23.538  16.068  17.402  1.00  0.00    -0.132 NA
HETATM    6  C6  UNL     1     -22.910  17.008  18.342  1.00  0.00     0.143 C 
ENDROOT
BRANCH   2   7
HETATM    7  N2  UNL     1     -22.841  13.815  20.098  1.00  0.00    -0.111 N 
BRANCH   7   8
HETATM    8  N3  UNL     1     -21.770  12.975  19.779  1.00  0.00    -0.179 N 
ATOM      9  H3  UNL     1     -21.726  12.397  18.940  1.00  0.00     0.204 HD
BRANCH   8  10
HETATM   10  S1  UNL     1     -20.534  13.036  20.980  1.00  0.00     0.351 S 
HETATM   11  O3  UNL     1     -20.656  11.966  21.998  1.00  0.00    -0.179 OA
HETATM   12  O4  UNL     1     -19.063  12.821  20.184  1.00  0.00    -0.179 OA
BRANCH  10  13
HETATM   13  N4  UNL     1     -20.527  14.418  21.721  1.00  0.00    -0.215 N 
ATOM     14  H4  UNL     1     -20.088  15.245  21.315  1.00  0.00     0.201 HD
BRANCH  13  15
HETATM   15  N5  UNL     1     -21.155  14.454  22.968  1.00  0.00    -0.335 N 
ATOM     16  H52 UNL     1     -21.905  13.802  23.197  1.00  0.00     0.177 HD
ATOM     17  H51 UNL     1     -20.819  15.161  23.622  1.00  0.00     0.177 HD
ENDBRANCH  13  15
ENDBRANCH  10  13
ENDBRANCH   8  10
ENDBRANCH   7   8
BRANCH   7  18
HETATM   18  O5  UNL     1     -23.542  13.521  21.215  1.00  0.00    -0.139 OA
BRANCH  18  19
HETATM   19  N6  UNL     1     -23.878  12.215  21.291  1.00  0.00    -0.284 N 
ATOM     20  H62 UNL     1     -24.842  11.897  21.394  1.00  0.00     0.186 HD
ATOM     21  H61 UNL     1     -23.069  11.597  21.233  1.00  0.00     0.186 HD
ENDBRANCH  18  19
ENDBRANCH   7  18
ENDBRANCH   2   7
BRANCH   1  22
HETATM   22  C3  UNL     1     -22.823  16.788  20.835  1.00  0.00     0.237 C 
HETATM   23  N1  UNL     1     -23.609  17.073  21.975  1.00  0.00    -0.297 N 
HETATM   24  C2  UNL     1     -23.053  17.542  23.197  1.00  0.00     0.220 C 
ATOM     25  H1  UNL     1     -24.618  16.936  21.919  1.00  0.00     0.171 HD
HETATM   26  C1  UNL     1     -23.894  17.831  24.367  1.00  0.00     0.117 C 
HETATM   27  O1  UNL     1     -21.813  17.712  23.264  1.00  0.00    -0.274 OA
HETATM   28  O2  UNL     1     -21.583  16.950  20.910  1.00  0.00    -0.272 OA
ENDBRANCH   1  22
BRANCH   6  29
HETATM   29  C7  UNL     1     -23.417  18.392  18.189  1.00  0.00     0.188 C 
BRANCH  29  30
HETATM   30  O6  UNL     1     -23.056  18.977  16.980  1.00  0.00    -0.399 OA
ATOM     31  H6  UNL     1     -23.789  19.371  16.521  1.00  0.00     0.209 HD
ENDBRANCH  29  30
ENDBRANCH   6  29
TORSDOF 10
ENDMDL
