MODEL 1
REMARK VINA RESULT: -8.646258332      0.000      0.000
REMARK  5 active torsions:
REMARK  status: ('A' for Active; 'I' for Inactive)
REMARK    1  A    between atoms: C4_4  and  C5_5 
REMARK    2  A    between atoms: C7_7  and  C8_8 
REMARK    3  A    between atoms: N1_14  and  C14_15 
REMARK    4  A    between atoms: C14_15  and  C15_16 
REMARK    5  A    between atoms: C14_15  and  C21_22 
ROOT
HETATM    1  C5  UNL     1      22.820 -13.692  12.117  1.00  0.00    -0.008 A 
HETATM    2  C6  UNL     1      23.195 -13.431  10.823  1.00  0.00     0.044 A 
HETATM    3  C7  UNL     1      22.072 -13.477   9.965  1.00  0.00     0.046 A 
HETATM    4  N1  UNL     1      21.044 -13.762  10.754  1.00  0.00    -0.342 N 
HETATM    5  C27 UNL     1      21.469 -13.900  12.064  1.00  0.00     0.104 A 
ENDROOT
BRANCH   4   6
HETATM    6  C14 UNL     1      19.655 -13.887  10.433  1.00  0.00     0.155 C 
BRANCH   6   7
HETATM    7  C15 UNL     1      19.201 -12.996   9.335  1.00  0.00    -0.031 A 
HETATM    8  C16 UNL     1      18.850 -13.444   8.082  1.00  0.00     0.009 A 
HETATM    9  C17 UNL     1      18.433 -12.583   7.091  1.00  0.00     0.001 A 
HETATM   10  C18 UNL     1      18.354 -11.229   7.334  1.00  0.00     0.000 A 
HETATM   11  C19 UNL     1      18.695 -10.761   8.565  1.00  0.00     0.001 A 
HETATM   12  C20 UNL     1      19.118 -11.640   9.567  1.00  0.00     0.009 A 
ENDBRANCH   6   7
BRANCH   6  13
HETATM   13  C21 UNL     1      19.353 -15.325   9.998  1.00  0.00    -0.031 A 
HETATM   14  C22 UNL     1      18.059 -15.684   9.688  1.00  0.00     0.009 A 
HETATM   15  C23 UNL     1      17.742 -16.958   9.279  1.00  0.00     0.001 A 
HETATM   16  C24 UNL     1      18.749 -17.887   9.181  1.00  0.00     0.000 A 
HETATM   17  C25 UNL     1      20.050 -17.565   9.482  1.00  0.00     0.001 A 
HETATM   18  C26 UNL     1      20.340 -16.268   9.893  1.00  0.00     0.009 A 
ENDBRANCH   6  13
ENDBRANCH   4   6
BRANCH   3  19
HETATM   19  C8  UNL     1      22.165 -13.193   8.546  1.00  0.00    -0.009 A 
HETATM   20  C9  UNL     1      22.157 -14.096   7.540  1.00  0.00     0.014 A 
HETATM   21  C10 UNL     1      22.175 -13.689   6.215  1.00  0.00     0.001 A 
HETATM   22  C11 UNL     1      22.203 -12.362   5.888  1.00  0.00     0.000 A 
HETATM   23  C12 UNL     1      22.214 -11.403   6.871  1.00  0.00     0.001 A 
HETATM   24  C13 UNL     1      22.193 -11.847   8.166  1.00  0.00     0.014 A 
ENDBRANCH   3  19
BRANCH   1  25
HETATM   25  C4  UNL     1      23.703 -13.734  13.289  1.00  0.00    -0.025 A 
HETATM   26  C3  UNL     1      24.421 -12.611  13.620  1.00  0.00     0.012 A 
HETATM   27  C2  UNL     1      25.276 -12.592  14.719  1.00  0.00     0.001 A 
HETATM   28  C1  UNL     1      25.429 -13.707  15.513  1.00  0.00     0.000 A 
HETATM   29  C29 UNL     1      24.704 -14.839  15.178  1.00  0.00     0.001 A 
HETATM   30  C28 UNL     1      23.847 -14.856  14.074  1.00  0.00     0.012 A 
ENDBRANCH   1  25
TORSDOF 5
ENDMDL
MODEL 2
REMARK VINA RESULT: -8.562112989      1.362      3.834
REMARK  5 active torsions:
REMARK  status: ('A' for Active; 'I' for Inactive)
REMARK    1  A    between atoms: C4_4  and  C5_5 
REMARK    2  A    between atoms: C7_7  and  C8_8 
REMARK    3  A    between atoms: N1_14  and  C14_15 
REMARK    4  A    between atoms: C14_15  and  C15_16 
REMARK    5  A    between atoms: C14_15  and  C21_22 
ROOT
HETATM    1  C5  UNL     1      22.062 -13.731  10.506  1.00  0.00    -0.008 A 
HETATM    2  C6  UNL     1      22.425 -12.760   9.608  1.00  0.00     0.044 A 
HETATM    3  C7  UNL     1      21.686 -12.892   8.410  1.00  0.00     0.046 A 
HETATM    4  N1  UNL     1      20.891 -13.936   8.607  1.00  0.00    -0.342 N 
HETATM    5  C27 UNL     1      21.099 -14.466   9.869  1.00  0.00     0.104 A 
ENDROOT
BRANCH   4   6
HETATM    6  C14 UNL     1      19.895 -14.500   7.748  1.00  0.00     0.155 C 
BRANCH   6   7
HETATM    7  C15 UNL     1      18.953 -15.423   8.432  1.00  0.00    -0.031 A 
HETATM    8  C16 UNL     1      18.402 -15.175   9.669  1.00  0.00     0.009 A 
HETATM    9  C17 UNL     1      17.531 -16.058  10.268  1.00  0.00     0.001 A 
HETATM   10  C18 UNL     1      17.183 -17.231   9.633  1.00  0.00     0.000 A 
HETATM   11  C19 UNL     1      17.714 -17.499   8.410  1.00  0.00     0.001 A 
HETATM   12  C20 UNL     1      18.598 -16.599   7.807  1.00  0.00     0.009 A 
ENDBRANCH   6   7
BRANCH   6  13
HETATM   13  C21 UNL     1      19.054 -13.379   7.127  1.00  0.00    -0.031 A 
HETATM   14  C22 UNL     1      18.345 -12.528   7.947  1.00  0.00     0.009 A 
HETATM   15  C23 UNL     1      17.588 -11.499   7.436  1.00  0.00     0.001 A 
HETATM   16  C24 UNL     1      17.547 -11.327   6.074  1.00  0.00     0.000 A 
HETATM   17  C25 UNL     1      18.241 -12.156   5.227  1.00  0.00     0.001 A 
HETATM   18  C26 UNL     1      18.998 -13.188   5.773  1.00  0.00     0.009 A 
ENDBRANCH   6  13
ENDBRANCH   4   6
BRANCH   3  19
HETATM   19  C8  UNL     1      21.829 -11.970   7.300  1.00  0.00    -0.009 A 
HETATM   20  C9  UNL     1      22.387 -12.236   6.098  1.00  0.00     0.014 A 
HETATM   21  C10 UNL     1      22.394 -11.284   5.089  1.00  0.00     0.001 A 
HETATM   22  C11 UNL     1      21.839 -10.050   5.283  1.00  0.00     0.000 A 
HETATM   23  C12 UNL     1      21.261  -9.728   6.486  1.00  0.00     0.001 A 
HETATM   24  C13 UNL     1      21.273 -10.696   7.455  1.00  0.00     0.014 A 
ENDBRANCH   3  19
BRANCH   1  25
HETATM   25  C4  UNL     1      22.608 -13.920  11.856  1.00  0.00    -0.025 A 
HETATM   26  C3  UNL     1      21.825 -14.523  12.810  1.00  0.00     0.012 A 
HETATM   27  C2  UNL     1      22.287 -14.726  14.108  1.00  0.00     0.001 A 
HETATM   28  C1  UNL     1      23.552 -14.325  14.476  1.00  0.00     0.000 A 
HETATM   29  C29 UNL     1      24.340 -13.716  13.514  1.00  0.00     0.001 A 
HETATM   30  C28 UNL     1      23.874 -13.513  12.212  1.00  0.00     0.012 A 
ENDBRANCH   1  25
TORSDOF 5
ENDMDL
MODEL 3
REMARK VINA RESULT: -8.413769844      2.048      6.212
REMARK  5 active torsions:
REMARK  status: ('A' for Active; 'I' for Inactive)
REMARK    1  A    between atoms: C4_4  and  C5_5 
REMARK    2  A    between atoms: C7_7  and  C8_8 
REMARK    3  A    between atoms: N1_14  and  C14_15 
REMARK    4  A    between atoms: C14_15  and  C15_16 
REMARK    5  A    between atoms: C14_15  and  C21_22 
ROOT
HETATM    1  C5  UNL     1      18.632 -15.803   8.023  1.00  0.00    -0.008 A 
HETATM    2  C6  UNL     1      17.933 -14.808   7.390  1.00  0.00     0.044 A 
HETATM    3  C7  UNL     1      18.740 -13.657   7.236  1.00  0.00     0.046 A 
HETATM    4  N1  UNL     1      19.909 -13.979   7.776  1.00  0.00    -0.342 N 
HETATM    5  C27 UNL     1      19.872 -15.275   8.263  1.00  0.00     0.104 A 
ENDROOT
BRANCH   4   6
HETATM    6  C14 UNL     1      21.116 -13.215   7.862  1.00  0.00     0.155 C 
BRANCH   6   7
HETATM    7  C15 UNL     1      20.923 -11.752   7.694  1.00  0.00    -0.031 A 
HETATM    8  C16 UNL     1      20.298 -10.952   8.623  1.00  0.00     0.009 A 
HETATM    9  C17 UNL     1      20.140  -9.597   8.428  1.00  0.00     0.001 A 
HETATM   10  C18 UNL     1      20.613  -9.000   7.281  1.00  0.00     0.000 A 
HETATM   11  C19 UNL     1      21.235  -9.769   6.347  1.00  0.00     0.001 A 
HETATM   12  C20 UNL     1      21.392 -11.144   6.550  1.00  0.00     0.009 A 
ENDBRANCH   6   7
BRANCH   6  13
HETATM   13  C21 UNL     1      21.766 -13.428   9.233  1.00  0.00    -0.031 A 
HETATM   14  C22 UNL     1      23.107 -13.157   9.399  1.00  0.00     0.009 A 
HETATM   15  C23 UNL     1      23.731 -13.319  10.614  1.00  0.00     0.001 A 
HETATM   16  C24 UNL     1      22.988 -13.763  11.680  1.00  0.00     0.000 A 
HETATM   17  C25 UNL     1      21.649 -14.044  11.552  1.00  0.00     0.001 A 
HETATM   18  C26 UNL     1      21.046 -13.870  10.310  1.00  0.00     0.009 A 
ENDBRANCH   6  13
ENDBRANCH   4   6
BRANCH   3  19
HETATM   19  C8  UNL     1      18.274 -12.464   6.558  1.00  0.00    -0.009 A 
HETATM   20  C9  UNL     1      17.612 -11.425   7.115  1.00  0.00     0.014 A 
HETATM   21  C10 UNL     1      17.287 -10.303   6.368  1.00  0.00     0.001 A 
HETATM   22  C11 UNL     1      17.626 -10.215   5.047  1.00  0.00     0.000 A 
HETATM   23  C12 UNL     1      18.297 -11.243   4.431  1.00  0.00     0.001 A 
HETATM   24  C13 UNL     1      18.601 -12.332   5.204  1.00  0.00     0.014 A 
ENDBRANCH   3  19
BRANCH   1  25
HETATM   25  C4  UNL     1      18.133 -17.142   8.361  1.00  0.00    -0.025 A 
HETATM   26  C3  UNL     1      18.340 -18.171   7.474  1.00  0.00     0.012 A 
HETATM   27  C2  UNL     1      17.887 -19.461   7.738  1.00  0.00     0.001 A 
HETATM   28  C1  UNL     1      17.213 -19.746   8.905  1.00  0.00     0.000 A 
HETATM   29  C29 UNL     1      17.003 -18.708   9.797  1.00  0.00     0.001 A 
HETATM   30  C28 UNL     1      17.459 -17.413   9.530  1.00  0.00     0.012 A 
ENDBRANCH   1  25
TORSDOF 5
ENDMDL
MODEL 4
REMARK VINA RESULT: -8.002711647      1.602      6.237
REMARK  5 active torsions:
REMARK  status: ('A' for Active; 'I' for Inactive)
REMARK    1  A    between atoms: C4_4  and  C5_5 
REMARK    2  A    between atoms: C7_7  and  C8_8 
REMARK    3  A    between atoms: N1_14  and  C14_15 
REMARK    4  A    between atoms: C14_15  and  C15_16 
REMARK    5  A    between atoms: C14_15  and  C21_22 
ROOT
HETATM    1  C5  UNL     1      18.962 -16.288   8.581  1.00  0.00    -0.008 A 
HETATM    2  C6  UNL     1      18.394 -15.041   8.517  1.00  0.00     0.044 A 
HETATM    3  C7  UNL     1      19.395 -14.044   8.460  1.00  0.00     0.046 A 
HETATM    4  N1  UNL     1      20.545 -14.706   8.488  1.00  0.00    -0.342 N 
HETATM    5  C27 UNL     1      20.312 -16.068   8.563  1.00  0.00     0.104 A 
ENDROOT
BRANCH   4   6
HETATM    6  C14 UNL     1      21.885 -14.210   8.411  1.00  0.00     0.155 C 
BRANCH   6   7
HETATM    7  C15 UNL     1      22.030 -12.969   7.607  1.00  0.00    -0.031 A 
HETATM    8  C16 UNL     1      22.303 -11.734   8.151  1.00  0.00     0.009 A 
HETATM    9  C17 UNL     1      22.431 -10.607   7.369  1.00  0.00     0.001 A 
HETATM   10  C18 UNL     1      22.285 -10.689   6.001  1.00  0.00     0.000 A 
HETATM   11  C19 UNL     1      22.014 -11.898   5.440  1.00  0.00     0.001 A 
HETATM   12  C20 UNL     1      21.886 -13.039   6.239  1.00  0.00     0.009 A 
ENDBRANCH   6   7
BRANCH   6  13
HETATM   13  C21 UNL     1      22.402 -13.897   9.818  1.00  0.00    -0.031 A 
HETATM   14  C22 UNL     1      21.577 -14.093  10.905  1.00  0.00     0.009 A 
HETATM   15  C23 UNL     1      22.002 -13.840  12.189  1.00  0.00     0.001 A 
HETATM   16  C24 UNL     1      23.282 -13.379  12.378  1.00  0.00     0.000 A 
HETATM   17  C25 UNL     1      24.131 -13.172  11.319  1.00  0.00     0.001 A 
HETATM   18  C26 UNL     1      23.673 -13.437  10.032  1.00  0.00     0.009 A 
ENDBRANCH   6  13
ENDBRANCH   4   6
BRANCH   3  19
HETATM   19  C8  UNL     1      19.084 -12.633   8.341  1.00  0.00    -0.009 A 
HETATM   20  C9  UNL     1      19.309 -11.676   9.268  1.00  0.00     0.014 A 
HETATM   21  C10 UNL     1      19.033 -10.343   8.999  1.00  0.00     0.001 A 
HETATM   22  C11 UNL     1      18.524  -9.961   7.790  1.00  0.00     0.000 A 
HETATM   23  C12 UNL     1      18.274 -10.894   6.814  1.00  0.00     0.001 A 
HETATM   24  C13 UNL     1      18.562 -12.197   7.118  1.00  0.00     0.014 A 
ENDBRANCH   3  19
BRANCH   1  25
HETATM   25  C4  UNL     1      18.248 -17.569   8.652  1.00  0.00    -0.025 A 
HETATM   26  C3  UNL     1      18.464 -18.505   7.670  1.00  0.00     0.012 A 
HETATM   27  C2  UNL     1      17.814 -19.736   7.683  1.00  0.00     0.001 A 
HETATM   28  C1  UNL     1      16.929 -20.055   8.688  1.00  0.00     0.000 A 
HETATM   29  C29 UNL     1      16.711 -19.110   9.677  1.00  0.00     0.001 A 
HETATM   30  C28 UNL     1      17.364 -17.875   9.662  1.00  0.00     0.012 A 
ENDBRANCH   1  25
TORSDOF 5
ENDMDL
MODEL 5
REMARK VINA RESULT: -7.902104819      1.847      6.529
REMARK  5 active torsions:
REMARK  status: ('A' for Active; 'I' for Inactive)
REMARK    1  A    between atoms: C4_4  and  C5_5 
REMARK    2  A    between atoms: C7_7  and  C8_8 
REMARK    3  A    between atoms: N1_14  and  C14_15 
REMARK    4  A    between atoms: C14_15  and  C15_16 
REMARK    5  A    between atoms: C14_15  and  C21_22 
ROOT
HETATM    1  C5  UNL     1      18.859 -15.595   8.509  1.00  0.00    -0.008 A 
HETATM    2  C6  UNL     1      18.227 -14.808   7.579  1.00  0.00     0.044 A 
HETATM    3  C7  UNL     1      18.755 -13.497   7.600  1.00  0.00     0.046 A 
HETATM    4  N1  UNL     1      19.694 -13.516   8.538  1.00  0.00    -0.342 N 
HETATM    5  C27 UNL     1      19.778 -14.775   9.106  1.00  0.00     0.104 A 
ENDROOT
BRANCH   4   6
HETATM    6  C14 UNL     1      20.585 -12.478   8.958  1.00  0.00     0.155 C 
BRANCH   6   7
HETATM    7  C15 UNL     1      21.680 -12.940   9.849  1.00  0.00    -0.031 A 
HETATM    8  C16 UNL     1      23.013 -12.895   9.507  1.00  0.00     0.009 A 
HETATM    9  C17 UNL     1      23.999 -13.334  10.364  1.00  0.00     0.001 A 
HETATM   10  C18 UNL     1      23.670 -13.835  11.604  1.00  0.00     0.000 A 
HETATM   11  C19 UNL     1      22.360 -13.890  11.965  1.00  0.00     0.001 A 
HETATM   12  C20 UNL     1      21.363 -13.444  11.092  1.00  0.00     0.009 A 
ENDBRANCH   6   7
BRANCH   6  13
HETATM   13  C21 UNL     1      21.243 -11.834   7.734  1.00  0.00    -0.031 A 
HETATM   14  C22 UNL     1      21.897 -12.629   6.817  1.00  0.00     0.009 A 
HETATM   15  C23 UNL     1      22.491 -12.098   5.695  1.00  0.00     0.001 A 
HETATM   16  C24 UNL     1      22.422 -10.741   5.495  1.00  0.00     0.000 A 
HETATM   17  C25 UNL     1      21.779  -9.919   6.388  1.00  0.00     0.001 A 
HETATM   18  C26 UNL     1      21.188 -10.485   7.513  1.00  0.00     0.009 A 
ENDBRANCH   6  13
ENDBRANCH   4   6
BRANCH   3  19
HETATM   19  C8  UNL     1      18.306 -12.462   6.689  1.00  0.00    -0.009 A 
HETATM   20  C9  UNL     1      17.736 -11.283   7.025  1.00  0.00     0.014 A 
HETATM   21  C10 UNL     1      17.419 -10.342   6.056  1.00  0.00     0.001 A 
HETATM   22  C11 UNL     1      17.675 -10.580   4.735  1.00  0.00     0.000 A 
HETATM   23  C12 UNL     1      18.251 -11.762   4.339  1.00  0.00     0.001 A 
HETATM   24  C13 UNL     1      18.549 -12.664   5.326  1.00  0.00     0.014 A 
ENDBRANCH   3  19
BRANCH   1  25
HETATM   25  C4  UNL     1      18.587 -17.011   8.783  1.00  0.00    -0.025 A 
HETATM   26  C3  UNL     1      19.358 -17.667   9.712  1.00  0.00     0.012 A 
HETATM   27  C2  UNL     1      19.148 -19.011  10.011  1.00  0.00     0.001 A 
HETATM   28  C1  UNL     1      18.155 -19.727   9.381  1.00  0.00     0.000 A 
HETATM   29  C29 UNL     1      17.380 -19.065   8.444  1.00  0.00     0.001 A 
HETATM   30  C28 UNL     1      17.591 -17.716   8.145  1.00  0.00     0.012 A 
ENDBRANCH   1  25
TORSDOF 5
ENDMDL
