MODEL 1
REMARK VINA RESULT: -5.039019098      0.000      0.000
REMARK  5 active torsions:
REMARK  status: ('A' for Active; 'I' for Inactive)
REMARK    1  A    between atoms: N1_2  and  C2_4 
REMARK    2  A    between atoms: C2_4  and  C3_5 
REMARK    3  A    between atoms: C3_5  and  N2_6 
REMARK    4  A    between atoms: C4_8  and  N3_9 
REMARK    5  A    between atoms: C5_14  and  N5_15 
ROOT
HETATM    1  N2  UNL     1      93.596  42.271  47.494  1.00  0.00    -0.075 N 
HETATM    2  O1  UNL     1      94.002  42.287  48.737  1.00  0.00    -0.183 OA
HETATM    3  C4  UNL     1      93.007  42.668  49.516  1.00  0.00     0.256 A 
HETATM    4  N4  UNL     1      91.920  42.908  48.765  1.00  0.00    -0.152 N 
ATOM      5  H4  UNL     1      91.001  43.215  49.083  1.00  0.00     0.188 HD
HETATM    6  C5  UNL     1      92.307  42.653  47.504  1.00  0.00     0.701 A 
ENDROOT
BRANCH   1   7
HETATM    7  C3  UNL     1      94.391  41.930  46.326  1.00  0.00     0.220 C 
BRANCH   7   8
HETATM    8  C2  UNL     1      95.103  40.616  46.484  1.00  0.00     0.077 C 
BRANCH   8   9
HETATM    9  N1  UNL     1      96.366  40.492  45.885  1.00  0.00    -0.405 N 
HETATM   10  C1  UNL     1      96.673  41.247  44.731  1.00  0.00     0.145 C 
ATOM     11  H1  UNL     1      97.060  39.859  46.282  1.00  0.00     0.158 HD
ENDBRANCH   8   9
ENDBRANCH   7   8
ENDBRANCH   1   7
BRANCH   6  12
HETATM   12  N5  UNL     1      91.577  42.739  46.445  1.00  0.00    -0.233 N 
ATOM     13  H52 UNL     1      91.773  42.319  45.537  1.00  0.00     0.174 HD
ATOM     14  H51 UNL     1      90.703  43.262  46.401  1.00  0.00     0.174 HD
ENDBRANCH   6  12
BRANCH   3  15
HETATM   15  N3  UNL     1      93.021  42.807  50.800  1.00  0.00    -0.363 N 
ATOM     16  H32 UNL     1      93.851  42.643  51.369  1.00  0.00     0.159 HD
ATOM     17  H31 UNL     1      92.246  43.084  51.405  1.00  0.00     0.159 HD
ENDBRANCH   3  15
TORSDOF 5
ENDMDL
MODEL 2
REMARK VINA RESULT: -4.857476511      1.319      1.332
REMARK  5 active torsions:
REMARK  status: ('A' for Active; 'I' for Inactive)
REMARK    1  A    between atoms: N1_2  and  C2_4 
REMARK    2  A    between atoms: C2_4  and  C3_5 
REMARK    3  A    between atoms: C3_5  and  N2_6 
REMARK    4  A    between atoms: C4_8  and  N3_9 
REMARK    5  A    between atoms: C5_14  and  N5_15 
ROOT
HETATM    1  N2  UNL     1      94.323  41.720  47.035  1.00  0.00    -0.075 N 
HETATM    2  O1  UNL     1      95.122  41.452  48.035  1.00  0.00    -0.183 OA
HETATM    3  C4  UNL     1      94.585  41.899  49.155  1.00  0.00     0.256 A 
HETATM    4  N4  UNL     1      93.403  42.474  48.883  1.00  0.00    -0.152 N 
ATOM      5  H4  UNL     1      92.757  42.909  49.542  1.00  0.00     0.188 HD
HETATM    6  C5  UNL     1      93.256  42.352  47.553  1.00  0.00     0.701 A 
ENDROOT
BRANCH   1   7
HETATM    7  C3  UNL     1      94.556  41.417  45.633  1.00  0.00     0.220 C 
BRANCH   7   8
HETATM    8  C2  UNL     1      95.568  40.321  45.447  1.00  0.00     0.077 C 
BRANCH   8   9
HETATM    9  N1  UNL     1      96.923  40.675  45.536  1.00  0.00    -0.405 N 
HETATM   10  C1  UNL     1      97.524  41.419  44.496  1.00  0.00     0.145 C 
ATOM     11  H1  UNL     1      97.472  40.397  46.349  1.00  0.00     0.158 HD
ENDBRANCH   8   9
ENDBRANCH   7   8
ENDBRANCH   1   7
BRANCH   6  12
HETATM   12  N5  UNL     1      92.253  42.757  46.852  1.00  0.00    -0.233 N 
ATOM     13  H52 UNL     1      91.411  42.224  46.631  1.00  0.00     0.174 HD
ATOM     14  H51 UNL     1      92.197  43.681  46.423  1.00  0.00     0.174 HD
ENDBRANCH   6  12
BRANCH   3  15
HETATM   15  N3  UNL     1      95.073  41.822  50.348  1.00  0.00    -0.363 N 
ATOM     16  H32 UNL     1      95.580  42.587  50.792  1.00  0.00     0.159 HD
ATOM     17  H31 UNL     1      95.028  41.029  50.989  1.00  0.00     0.159 HD
ENDBRANCH   3  15
TORSDOF 5
ENDMDL
MODEL 3
REMARK VINA RESULT: -4.797692727      1.817      5.004
REMARK  5 active torsions:
REMARK  status: ('A' for Active; 'I' for Inactive)
REMARK    1  A    between atoms: N1_2  and  C2_4 
REMARK    2  A    between atoms: C2_4  and  C3_5 
REMARK    3  A    between atoms: C3_5  and  N2_6 
REMARK    4  A    between atoms: C4_8  and  N3_9 
REMARK    5  A    between atoms: C5_14  and  N5_15 
ROOT
HETATM    1  N2  UNL     1      93.817  42.481  48.445  1.00  0.00    -0.075 N 
HETATM    2  O1  UNL     1      93.758  42.256  47.158  1.00  0.00    -0.183 OA
HETATM    3  C4  UNL     1      94.610  41.300  46.842  1.00  0.00     0.256 A 
HETATM    4  N4  UNL     1      95.246  40.886  47.950  1.00  0.00    -0.152 N 
ATOM      5  H4  UNL     1      95.959  40.161  48.022  1.00  0.00     0.188 HD
HETATM    6  C5  UNL     1      94.737  41.634  48.942  1.00  0.00     0.701 A 
ENDROOT
BRANCH   1   7
HETATM    7  C3  UNL     1      93.057  43.470  49.190  1.00  0.00     0.220 C 
BRANCH   7   8
HETATM    8  C2  UNL     1      91.811  42.891  49.799  1.00  0.00     0.077 C 
BRANCH   8   9
HETATM    9  N1  UNL     1      91.878  42.486  51.140  1.00  0.00    -0.405 N 
HETATM   10  C1  UNL     1      90.809  41.758  51.709  1.00  0.00     0.145 C 
ATOM     11  H1  UNL     1      92.697  42.717  51.704  1.00  0.00     0.158 HD
ENDBRANCH   8   9
ENDBRANCH   7   8
ENDBRANCH   1   7
BRANCH   6  12
HETATM   12  N5  UNL     1      95.050  41.569  50.191  1.00  0.00    -0.233 N 
ATOM     13  H52 UNL     1      95.879  41.126  50.586  1.00  0.00     0.174 HD
ATOM     14  H51 UNL     1      94.478  41.959  50.939  1.00  0.00     0.174 HD
ENDBRANCH   6  12
BRANCH   3  15
HETATM   15  N3  UNL     1      94.839  40.803  45.672  1.00  0.00    -0.363 N 
ATOM     16  H32 UNL     1      94.890  41.372  44.826  1.00  0.00     0.159 HD
ATOM     17  H31 UNL     1      94.992  39.823  45.430  1.00  0.00     0.159 HD
ENDBRANCH   3  15
TORSDOF 5
ENDMDL
MODEL 4
REMARK VINA RESULT: -4.652986950      1.711      4.184
REMARK  5 active torsions:
REMARK  status: ('A' for Active; 'I' for Inactive)
REMARK    1  A    between atoms: N1_2  and  C2_4 
REMARK    2  A    between atoms: C2_4  and  C3_5 
REMARK    3  A    between atoms: C3_5  and  N2_6 
REMARK    4  A    between atoms: C4_8  and  N3_9 
REMARK    5  A    between atoms: C5_14  and  N5_15 
ROOT
HETATM    1  N2  UNL     1      93.648  42.135  47.668  1.00  0.00    -0.075 N 
HETATM    2  O1  UNL     1      94.033  41.518  46.581  1.00  0.00    -0.183 OA
HETATM    3  C4  UNL     1      95.023  40.695  46.872  1.00  0.00     0.256 A 
HETATM    4  N4  UNL     1      95.295  40.775  48.184  1.00  0.00    -0.152 N 
ATOM      5  H4  UNL     1      96.007  40.261  48.703  1.00  0.00     0.188 HD
HETATM    6  C5  UNL     1      94.426  41.678  48.665  1.00  0.00     0.701 A 
ENDROOT
BRANCH   1   7
HETATM    7  C3  UNL     1      92.602  43.138  47.772  1.00  0.00     0.220 C 
BRANCH   7   8
HETATM    8  C2  UNL     1      91.398  42.795  46.939  1.00  0.00     0.077 C 
BRANCH   8   9
HETATM    9  N1  UNL     1      91.614  42.526  45.579  1.00  0.00    -0.405 N 
HETATM   10  C1  UNL     1      90.520  42.506  44.685  1.00  0.00     0.145 C 
ATOM     11  H1  UNL     1      92.557  42.345  45.237  1.00  0.00     0.158 HD
ENDBRANCH   8   9
ENDBRANCH   7   8
ENDBRANCH   1   7
BRANCH   6  12
HETATM   12  N5  UNL     1      94.318  42.063  49.891  1.00  0.00    -0.233 N 
ATOM     13  H52 UNL     1      93.840  41.567  50.643  1.00  0.00     0.174 HD
ATOM     14  H51 UNL     1      94.705  42.937  50.246  1.00  0.00     0.174 HD
ENDBRANCH   6  12
BRANCH   3  15
HETATM   15  N3  UNL     1      95.664  39.917  46.065  1.00  0.00    -0.363 N 
ATOM     16  H32 UNL     1      95.957  40.204  45.131  1.00  0.00     0.159 HD
ATOM     17  H31 UNL     1      95.956  38.953  46.231  1.00  0.00     0.159 HD
ENDBRANCH   3  15
TORSDOF 5
ENDMDL
MODEL 5
REMARK VINA RESULT: -4.558168491      1.524      4.610
REMARK  5 active torsions:
REMARK  status: ('A' for Active; 'I' for Inactive)
REMARK    1  A    between atoms: N1_2  and  C2_4 
REMARK    2  A    between atoms: C2_4  and  C3_5 
REMARK    3  A    between atoms: C3_5  and  N2_6 
REMARK    4  A    between atoms: C4_8  and  N3_9 
REMARK    5  A    between atoms: C5_14  and  N5_15 
ROOT
HETATM    1  N2  UNL     1      93.373  42.743  48.558  1.00  0.00    -0.075 N 
HETATM    2  O1  UNL     1      94.424  41.964  48.589  1.00  0.00    -0.183 OA
HETATM    3  C4  UNL     1      94.526  41.321  47.441  1.00  0.00     0.256 A 
HETATM    4  N4  UNL     1      93.516  41.687  46.636  1.00  0.00    -0.152 N 
ATOM      5  H4  UNL     1      93.328  41.361  45.688  1.00  0.00     0.188 HD
HETATM    6  C5  UNL     1      92.806  42.576  47.350  1.00  0.00     0.701 A 
ENDROOT
BRANCH   1   7
HETATM    7  C3  UNL     1      92.896  43.600  49.630  1.00  0.00     0.220 C 
BRANCH   7   8
HETATM    8  C2  UNL     1      91.657  43.058  50.286  1.00  0.00     0.077 C 
BRANCH   8   9
HETATM    9  N1  UNL     1      91.833  42.187  51.372  1.00  0.00    -0.405 N 
HETATM   10  C1  UNL     1      90.715  41.535  51.938  1.00  0.00     0.145 C 
ATOM     11  H1  UNL     1      92.766  42.024  51.751  1.00  0.00     0.158 HD
ENDBRANCH   8   9
ENDBRANCH   7   8
ENDBRANCH   1   7
BRANCH   6  12
HETATM   12  N5  UNL     1      91.748  43.202  46.964  1.00  0.00    -0.233 N 
ATOM     13  H52 UNL     1      91.037  42.853  46.320  1.00  0.00     0.174 HD
ATOM     14  H51 UNL     1      91.506  44.146  47.264  1.00  0.00     0.174 HD
ENDBRANCH   6  12
BRANCH   3  15
HETATM   15  N3  UNL     1      95.430  40.467  47.094  1.00  0.00    -0.363 N 
ATOM     16  H32 UNL     1      95.218  39.610  46.583  1.00  0.00     0.159 HD
ATOM     17  H31 UNL     1      96.434  40.517  47.271  1.00  0.00     0.159 HD
ENDBRANCH   3  15
TORSDOF 5
ENDMDL
