MODEL 1
REMARK VINA RESULT: -5.312315417      0.000      0.000
REMARK  6 active torsions:
REMARK  status: ('A' for Active; 'I' for Inactive)
REMARK    1  A    between atoms: N1_1  and  C1_4 
REMARK    2  A    between atoms: C2_9  and  C3_10 
REMARK    3  A    between atoms: C3_10  and  C4_11 
REMARK    4  A    between atoms: C4_11  and  C5_12 
REMARK    5  A    between atoms: C5_12  and  N4_13 
REMARK    6  A    between atoms: N5_17  and  N6_18 
ROOT
HETATM    1  C1  UNL     1      94.843  40.977  47.714  1.00  0.00     0.712 A 
HETATM    2  N2  UNL     1      95.307  40.864  48.978  1.00  0.00    -0.129 N 
ATOM      3  H2  UNL     1      95.984  40.182  49.321  1.00  0.00     0.205 HD
HETATM    4  N3  UNL     1      94.715  41.804  49.679  1.00  0.00    -0.273 N 
ATOM      5  H3  UNL     1      94.868  41.966  50.674  1.00  0.00     0.189 HD
HETATM    6  C2  UNL     1      93.887  42.520  48.917  1.00  0.00     0.136 A 
HETATM    7  N5  UNL     1      93.969  41.986  47.647  1.00  0.00    -0.078 N 
ENDROOT
BRANCH   6   8
HETATM    8  C3  UNL     1      93.007  43.659  49.212  1.00  0.00     0.082 C 
BRANCH   8   9
HETATM    9  C4  UNL     1      92.272  43.574  50.481  1.00  0.00     0.035 C 
BRANCH   9  10
HETATM   10  C5  UNL     1      91.163  42.624  50.644  1.00  0.00     0.230 C 
BRANCH  10  11
HETATM   11  N4  UNL     1      91.107  41.795  51.778  1.00  0.00    -0.079 N 
ATOM     12  H43 UNL     1      91.969  41.251  51.823  1.00  0.00     0.274 HD
ATOM     13  H42 UNL     1      91.192  42.379  52.609  1.00  0.00     0.274 HD
ATOM     14  H41 UNL     1      90.319  41.160  51.909  1.00  0.00     0.274 HD
ENDBRANCH  10  11
ENDBRANCH   9  10
ENDBRANCH   8   9
ENDBRANCH   6   8
BRANCH   7  15
HETATM   15  N6  UNL     1      93.282  42.408  46.514  1.00  0.00    -0.323 N 
ATOM     16  H62 UNL     1      93.214  43.360  46.155  1.00  0.00     0.178 HD
ATOM     17  H61 UNL     1      92.744  41.820  45.877  1.00  0.00     0.178 HD
ENDBRANCH   7  15
BRANCH   1  18
HETATM   18  N1  UNL     1      95.209  40.207  46.729  1.00  0.00    -0.232 N 
ATOM     19  H12 UNL     1      96.086  39.691  46.661  1.00  0.00     0.174 HD
ATOM     20  H11 UNL     1      94.642  40.032  45.899  1.00  0.00     0.174 HD
ENDBRANCH   1  18
TORSDOF 6
ENDMDL
MODEL 2
REMARK VINA RESULT: -5.113897322      0.776      1.922
REMARK  6 active torsions:
REMARK  status: ('A' for Active; 'I' for Inactive)
REMARK    1  A    between atoms: N1_1  and  C1_4 
REMARK    2  A    between atoms: C2_9  and  C3_10 
REMARK    3  A    between atoms: C3_10  and  C4_11 
REMARK    4  A    between atoms: C4_11  and  C5_12 
REMARK    5  A    between atoms: C5_12  and  N4_13 
REMARK    6  A    between atoms: N5_17  and  N6_18 
ROOT
HETATM    1  C1  UNL     1      94.334  41.604  47.726  1.00  0.00     0.712 A 
HETATM    2  N2  UNL     1      93.423  42.220  46.942  1.00  0.00    -0.129 N 
ATOM      3  H2  UNL     1      93.270  42.064  45.945  1.00  0.00     0.205 HD
HETATM    4  N3  UNL     1      92.772  43.062  47.713  1.00  0.00    -0.273 N 
ATOM      5  H3  UNL     1      92.019  43.672  47.397  1.00  0.00     0.189 HD
HETATM    6  C2  UNL     1      93.228  43.012  48.966  1.00  0.00     0.136 A 
HETATM    7  N5  UNL     1      94.237  42.070  48.975  1.00  0.00    -0.078 N 
ENDROOT
BRANCH   6   8
HETATM    8  C3  UNL     1      92.848  43.737  50.186  1.00  0.00     0.082 C 
BRANCH   8   9
HETATM    9  C4  UNL     1      91.424  43.666  50.541  1.00  0.00     0.035 C 
BRANCH   9  10
HETATM   10  C5  UNL     1      90.776  42.370  50.788  1.00  0.00     0.230 C 
BRANCH  10  11
HETATM   11  N4  UNL     1      91.122  41.615  51.922  1.00  0.00    -0.079 N 
ATOM     12  H43 UNL     1      92.128  41.693  52.067  1.00  0.00     0.274 HD
ATOM     13  H42 UNL     1      90.759  42.089  52.748  1.00  0.00     0.274 HD
ATOM     14  H41 UNL     1      90.864  40.629  51.977  1.00  0.00     0.274 HD
ENDBRANCH  10  11
ENDBRANCH   9  10
ENDBRANCH   8   9
ENDBRANCH   6   8
BRANCH   7  15
HETATM   15  N6  UNL     1      95.007  41.677  50.064  1.00  0.00    -0.323 N 
ATOM     16  H62 UNL     1      94.939  42.022  51.022  1.00  0.00     0.178 HD
ATOM     17  H61 UNL     1      95.755  40.983  50.059  1.00  0.00     0.178 HD
ENDBRANCH   7  15
BRANCH   1  18
HETATM   18  N1  UNL     1      95.167  40.696  47.305  1.00  0.00    -0.232 N 
ATOM     19  H12 UNL     1      96.125  40.559  47.630  1.00  0.00     0.174 HD
ATOM     20  H11 UNL     1      94.947  40.005  46.588  1.00  0.00     0.174 HD
ENDBRANCH   1  18
TORSDOF 6
ENDMDL
MODEL 3
REMARK VINA RESULT: -4.763405910      1.817      4.980
REMARK  6 active torsions:
REMARK  status: ('A' for Active; 'I' for Inactive)
REMARK    1  A    between atoms: N1_1  and  C1_4 
REMARK    2  A    between atoms: C2_9  and  C3_10 
REMARK    3  A    between atoms: C3_10  and  C4_11 
REMARK    4  A    between atoms: C4_11  and  C5_12 
REMARK    5  A    between atoms: C5_12  and  N4_13 
REMARK    6  A    between atoms: N5_17  and  N6_18 
ROOT
HETATM    1  C1  UNL     1      92.952  42.823  49.680  1.00  0.00     0.712 A 
HETATM    2  N2  UNL     1      92.122  43.073  48.644  1.00  0.00    -0.129 N 
ATOM      3  H2  UNL     1      91.240  43.585  48.678  1.00  0.00     0.205 HD
HETATM    4  N3  UNL     1      92.672  42.527  47.584  1.00  0.00    -0.273 N 
ATOM      5  H3  UNL     1      92.271  42.552  46.647  1.00  0.00     0.189 HD
HETATM    6  C2  UNL     1      93.825  41.934  47.895  1.00  0.00     0.136 A 
HETATM    7  N5  UNL     1      94.007  42.125  49.250  1.00  0.00    -0.078 N 
ENDROOT
BRANCH   6   8
HETATM    8  C3  UNL     1      94.807  41.195  47.089  1.00  0.00     0.082 C 
BRANCH   8   9
HETATM    9  C4  UNL     1      94.807  41.510  45.653  1.00  0.00     0.035 C 
BRANCH   9  10
HETATM   10  C5  UNL     1      96.009  41.289  44.837  1.00  0.00     0.230 C 
BRANCH  10  11
HETATM   11  N4  UNL     1      97.141  40.676  45.402  1.00  0.00    -0.079 N 
ATOM     12  H43 UNL     1      96.845  40.149  46.224  1.00  0.00     0.274 HD
ATOM     13  H42 UNL     1      97.447  39.929  44.780  1.00  0.00     0.274 HD
ATOM     14  H41 UNL     1      97.953  41.239  45.655  1.00  0.00     0.274 HD
ENDBRANCH  10  11
ENDBRANCH   9  10
ENDBRANCH   8   9
ENDBRANCH   6   8
BRANCH   7  15
HETATM   15  N6  UNL     1      95.075  41.682  50.024  1.00  0.00    -0.323 N 
ATOM     16  H62 UNL     1      96.011  41.442  49.698  1.00  0.00     0.178 HD
ATOM     17  H61 UNL     1      95.072  41.534  51.032  1.00  0.00     0.178 HD
ENDBRANCH   7  15
BRANCH   1  18
HETATM   18  N1  UNL     1      92.735  43.215  50.904  1.00  0.00    -0.232 N 
ATOM     19  H12 UNL     1      91.866  43.105  51.426  1.00  0.00     0.174 HD
ATOM     20  H11 UNL     1      93.428  43.685  51.486  1.00  0.00     0.174 HD
ENDBRANCH   1  18
TORSDOF 6
ENDMDL
MODEL 4
REMARK VINA RESULT: -4.762288255      1.902      2.972
REMARK  6 active torsions:
REMARK  status: ('A' for Active; 'I' for Inactive)
REMARK    1  A    between atoms: N1_1  and  C1_4 
REMARK    2  A    between atoms: C2_9  and  C3_10 
REMARK    3  A    between atoms: C3_10  and  C4_11 
REMARK    4  A    between atoms: C4_11  and  C5_12 
REMARK    5  A    between atoms: C5_12  and  N4_13 
REMARK    6  A    between atoms: N5_17  and  N6_18 
ROOT
HETATM    1  C1  UNL     1      96.027  41.105  45.506  1.00  0.00     0.712 A 
HETATM    2  N2  UNL     1      95.812  42.198  44.741  1.00  0.00    -0.129 N 
ATOM      3  H2  UNL     1      96.377  42.510  43.951  1.00  0.00     0.205 HD
HETATM    4  N3  UNL     1      94.733  42.779  45.213  1.00  0.00    -0.273 N 
ATOM      5  H3  UNL     1      94.325  43.633  44.835  1.00  0.00     0.189 HD
HETATM    6  C2  UNL     1      94.244  42.105  46.254  1.00  0.00     0.136 A 
HETATM    7  N5  UNL     1      95.079  41.022  46.444  1.00  0.00    -0.078 N 
ENDROOT
BRANCH   6   8
HETATM    8  C3  UNL     1      93.078  42.332  47.120  1.00  0.00     0.082 C 
BRANCH   8   9
HETATM    9  C4  UNL     1      93.319  43.188  48.289  1.00  0.00     0.035 C 
BRANCH   9  10
HETATM   10  C5  UNL     1      93.591  42.598  49.607  1.00  0.00     0.230 C 
BRANCH  10  11
HETATM   11  N4  UNL     1      92.800  42.953  50.714  1.00  0.00    -0.079 N 
ATOM     12  H43 UNL     1      93.286  43.681  51.238  1.00  0.00     0.274 HD
ATOM     13  H42 UNL     1      91.981  43.458  50.376  1.00  0.00     0.274 HD
ATOM     14  H41 UNL     1      92.489  42.237  51.371  1.00  0.00     0.274 HD
ENDBRANCH  10  11
ENDBRANCH   9  10
ENDBRANCH   8   9
ENDBRANCH   6   8
BRANCH   7  15
HETATM   15  N6  UNL     1      94.964  40.036  47.417  1.00  0.00    -0.323 N 
ATOM     16  H62 UNL     1      95.214  39.051  47.327  1.00  0.00     0.178 HD
ATOM     17  H61 UNL     1      94.611  40.159  48.366  1.00  0.00     0.178 HD
ENDBRANCH   7  15
BRANCH   1  18
HETATM   18  N1  UNL     1      97.016  40.274  45.335  1.00  0.00    -0.232 N 
ATOM     19  H12 UNL     1      98.000  40.521  45.234  1.00  0.00     0.174 HD
ATOM     20  H11 UNL     1      96.910  39.261  45.283  1.00  0.00     0.174 HD
ENDBRANCH   1  18
TORSDOF 6
ENDMDL
MODEL 5
REMARK VINA RESULT: -4.679411727      1.889      4.768
REMARK  6 active torsions:
REMARK  status: ('A' for Active; 'I' for Inactive)
REMARK    1  A    between atoms: N1_1  and  C1_4 
REMARK    2  A    between atoms: C2_9  and  C3_10 
REMARK    3  A    between atoms: C3_10  and  C4_11 
REMARK    4  A    between atoms: C4_11  and  C5_12 
REMARK    5  A    between atoms: C5_12  and  N4_13 
REMARK    6  A    between atoms: N5_17  and  N6_18 
ROOT
HETATM    1  C1  UNL     1      93.624  42.422  49.684  1.00  0.00     0.712 A 
HETATM    2  N2  UNL     1      94.740  41.701  49.930  1.00  0.00    -0.129 N 
ATOM      3  H2  UNL     1      95.161  41.519  50.841  1.00  0.00     0.205 HD
HETATM    4  N3  UNL     1      95.177  41.280  48.765  1.00  0.00    -0.273 N 
ATOM      5  H3  UNL     1      96.010  40.707  48.633  1.00  0.00     0.189 HD
HETATM    6  C2  UNL     1      94.386  41.701  47.777  1.00  0.00     0.136 A 
HETATM    7  N5  UNL     1      93.382  42.439  48.370  1.00  0.00    -0.078 N 
ENDROOT
BRANCH   6   8
HETATM    8  C3  UNL     1      94.435  41.509  46.321  1.00  0.00     0.082 C 
BRANCH   8   9
HETATM    9  C4  UNL     1      95.442  40.549  45.846  1.00  0.00     0.035 C 
BRANCH   9  10
HETATM   10  C5  UNL     1      96.614  41.006  45.085  1.00  0.00     0.230 C 
BRANCH  10  11
HETATM   11  N4  UNL     1      96.512  42.127  44.243  1.00  0.00    -0.079 N 
ATOM     12  H43 UNL     1      95.889  41.895  43.470  1.00  0.00     0.274 HD
ATOM     13  H42 UNL     1      95.976  42.846  44.728  1.00  0.00     0.274 HD
ATOM     14  H41 UNL     1      97.355  42.556  43.861  1.00  0.00     0.274 HD
ENDBRANCH  10  11
ENDBRANCH   9  10
ENDBRANCH   8   9
ENDBRANCH   6   8
BRANCH   7  15
HETATM   15  N6  UNL     1      92.324  43.079  47.734  1.00  0.00    -0.323 N 
ATOM     16  H62 UNL     1      91.445  42.659  47.431  1.00  0.00     0.178 HD
ATOM     17  H61 UNL     1      92.278  44.065  47.478  1.00  0.00     0.178 HD
ENDBRANCH   7  15
BRANCH   1  18
HETATM   18  N1  UNL     1      92.909  43.002  50.607  1.00  0.00    -0.232 N 
ATOM     19  H12 UNL     1      92.485  42.548  51.415  1.00  0.00     0.174 HD
ATOM     20  H11 UNL     1      92.693  43.999  50.621  1.00  0.00     0.174 HD
ENDBRANCH   1  18
TORSDOF 6
ENDMDL
