MODEL 1
REMARK VINA RESULT: -5.705998523      0.000      0.000
REMARK  4 active torsions:
REMARK  status: ('A' for Active; 'I' for Inactive)
REMARK    1  A    between atoms: C2_3  and  N2_4 
REMARK    2  A    between atoms: C2_3  and  N6_14 
REMARK    3  A    between atoms: N2_4  and  C3_6 
REMARK    4  A    between atoms: N6_14  and  N7_15 
ROOT
HETATM    1  N1  UNL     1      91.523  42.395  45.939  1.00  0.00    -0.194 NA
HETATM    2  C1  UNL     1      92.472  42.454  46.602  1.00  0.00     0.104 C 
HETATM    3  C2  UNL     1      93.673  42.523  47.415  1.00  0.00     0.320 C 
ENDROOT
BRANCH   3   4
HETATM    4  N2  UNL     1      93.399  43.380  48.542  1.00  0.00    -0.192 N 
ATOM      5  H2  UNL     1      93.829  44.304  48.589  1.00  0.00     0.180 HD
BRANCH   4   6
HETATM    6  C3  UNL     1      92.628  42.996  49.477  1.00  0.00     0.695 A 
HETATM    7  N3  UNL     1      91.297  42.839  49.393  1.00  0.00    -0.185 N 
HETATM    8  C4  UNL     1      90.886  42.424  50.594  1.00  0.00     0.215 A 
ATOM      9  H3  UNL     1      90.714  43.004  48.573  1.00  0.00     0.185 HD
HETATM   10  N4  UNL     1      91.968  42.333  51.392  1.00  0.00    -0.281 N 
HETATM   11  N5  UNL     1      93.036  42.682  50.714  1.00  0.00    -0.131 N 
ATOM     12  H4  UNL     1      91.959  42.039  52.369  1.00  0.00     0.188 HD
ATOM     13  H5  UNL     1      93.993  42.710  51.063  1.00  0.00     0.205 HD
ENDBRANCH   4   6
ENDBRANCH   3   4
BRANCH   3  14
HETATM   14  N6  UNL     1      94.040  41.222  47.935  1.00  0.00    -0.107 NA
BRANCH  14  15
HETATM   15  N7  UNL     1      94.997  40.595  47.167  1.00  0.00    -0.346 N 
ATOM     16  H72 UNL     1      95.962  40.473  47.476  1.00  0.00     0.172 HD
ATOM     17  H71 UNL     1      94.633  40.272  46.271  1.00  0.00     0.172 HD
ENDBRANCH  14  15
ENDBRANCH   3  14
TORSDOF 4
ENDMDL
MODEL 2
REMARK VINA RESULT: -5.452066259      1.317      1.454
REMARK  4 active torsions:
REMARK  status: ('A' for Active; 'I' for Inactive)
REMARK    1  A    between atoms: C2_3  and  N2_4 
REMARK    2  A    between atoms: C2_3  and  N6_14 
REMARK    3  A    between atoms: N2_4  and  C3_6 
REMARK    4  A    between atoms: N6_14  and  N7_15 
ROOT
HETATM    1  N1  UNL     1      94.448  41.840  44.548  1.00  0.00    -0.194 NA
HETATM    2  C1  UNL     1      94.353  41.902  45.701  1.00  0.00     0.104 C 
HETATM    3  C2  UNL     1      94.256  41.980  47.148  1.00  0.00     0.320 C 
ENDROOT
BRANCH   3   4
HETATM    4  N2  UNL     1      92.960  42.520  47.479  1.00  0.00    -0.192 N 
ATOM      5  H2  UNL     1      92.311  42.768  46.733  1.00  0.00     0.180 HD
BRANCH   4   6
HETATM    6  C3  UNL     1      92.619  42.688  48.692  1.00  0.00     0.695 A 
HETATM    7  N3  UNL     1      91.364  42.821  49.153  1.00  0.00    -0.185 N 
HETATM    8  C4  UNL     1      91.458  42.977  50.475  1.00  0.00     0.215 A 
ATOM      9  H3  UNL     1      90.507  42.805  48.600  1.00  0.00     0.185 HD
HETATM   10  N4  UNL     1      92.765  42.937  50.804  1.00  0.00    -0.281 N 
HETATM   11  N5  UNL     1      93.479  42.762  49.717  1.00  0.00    -0.131 N 
ATOM     12  H4  UNL     1      93.140  43.029  51.748  1.00  0.00     0.188 HD
ATOM     13  H5  UNL     1      94.495  42.695  49.664  1.00  0.00     0.205 HD
ENDBRANCH   4   6
ENDBRANCH   3   4
BRANCH   3  14
HETATM   14  N6  UNL     1      94.355  40.672  47.761  1.00  0.00    -0.107 NA
BRANCH  14  15
HETATM   15  N7  UNL     1      95.211  39.832  47.084  1.00  0.00    -0.346 N 
ATOM     16  H72 UNL     1      95.501  38.925  47.451  1.00  0.00     0.172 HD
ATOM     17  H71 UNL     1      95.513  40.216  46.189  1.00  0.00     0.172 HD
ENDBRANCH  14  15
ENDBRANCH   3  14
TORSDOF 4
ENDMDL
MODEL 3
REMARK VINA RESULT: -5.425892049      1.725      4.651
REMARK  4 active torsions:
REMARK  status: ('A' for Active; 'I' for Inactive)
REMARK    1  A    between atoms: C2_3  and  N2_4 
REMARK    2  A    between atoms: C2_3  and  N6_14 
REMARK    3  A    between atoms: N2_4  and  C3_6 
REMARK    4  A    between atoms: N6_14  and  N7_15 
ROOT
HETATM    1  N1  UNL     1      95.434  41.816  50.014  1.00  0.00    -0.194 NA
HETATM    2  C1  UNL     1      94.527  42.242  49.431  1.00  0.00     0.104 C 
HETATM    3  C2  UNL     1      93.393  42.793  48.709  1.00  0.00     0.320 C 
ENDROOT
BRANCH   3   4
HETATM    4  N2  UNL     1      93.193  42.002  47.521  1.00  0.00    -0.192 N 
ATOM      5  H2  UNL     1      92.250  41.719  47.256  1.00  0.00     0.180 HD
BRANCH   4   6
HETATM    6  C3  UNL     1      94.181  41.653  46.800  1.00  0.00     0.695 A 
HETATM    7  N3  UNL     1      94.584  42.248  45.665  1.00  0.00    -0.185 N 
HETATM    8  C4  UNL     1      95.650  41.567  45.237  1.00  0.00     0.215 A 
ATOM      9  H3  UNL     1      94.159  43.060  45.218  1.00  0.00     0.185 HD
HETATM   10  N4  UNL     1      95.883  40.570  46.113  1.00  0.00    -0.281 N 
HETATM   11  N5  UNL     1      94.988  40.618  47.070  1.00  0.00    -0.131 N 
ATOM     12  H4  UNL     1      96.637  39.886  46.043  1.00  0.00     0.188 HD
ATOM     13  H5  UNL     1      94.919  39.987  47.868  1.00  0.00     0.205 HD
ENDBRANCH   4   6
ENDBRANCH   3   4
BRANCH   3  14
HETATM   14  N6  UNL     1      92.177  42.722  49.492  1.00  0.00    -0.107 NA
BRANCH  14  15
HETATM   15  N7  UNL     1      92.421  42.625  50.845  1.00  0.00    -0.346 N 
ATOM     16  H72 UNL     1      92.555  43.441  51.442  1.00  0.00     0.172 HD
ATOM     17  H71 UNL     1      92.450  41.659  51.171  1.00  0.00     0.172 HD
ENDBRANCH  14  15
ENDBRANCH   3  14
TORSDOF 4
ENDMDL
MODEL 4
REMARK VINA RESULT: -5.299085725      1.264      1.885
REMARK  4 active torsions:
REMARK  status: ('A' for Active; 'I' for Inactive)
REMARK    1  A    between atoms: C2_3  and  N2_4 
REMARK    2  A    between atoms: C2_3  and  N6_14 
REMARK    3  A    between atoms: N2_4  and  C3_6 
REMARK    4  A    between atoms: N6_14  and  N7_15 
ROOT
HETATM    1  N1  UNL     1      94.740  39.972  47.326  1.00  0.00    -0.194 NA
HETATM    2  C1  UNL     1      94.303  41.045  47.285  1.00  0.00     0.104 C 
HETATM    3  C2  UNL     1      93.744  42.384  47.216  1.00  0.00     0.320 C 
ENDROOT
BRANCH   3   4
HETATM    4  N2  UNL     1      93.838  42.973  48.529  1.00  0.00    -0.192 N 
ATOM      5  H2  UNL     1      94.667  43.508  48.784  1.00  0.00     0.180 HD
BRANCH   4   6
HETATM    6  C3  UNL     1      92.895  42.832  49.371  1.00  0.00     0.695 A 
HETATM    7  N3  UNL     1      91.580  42.835  49.098  1.00  0.00    -0.185 N 
HETATM    8  C4  UNL     1      90.950  42.658  50.262  1.00  0.00     0.215 A 
ATOM      9  H3  UNL     1      91.148  42.950  48.182  1.00  0.00     0.185 HD
HETATM   10  N4  UNL     1      91.885  42.550  51.226  1.00  0.00    -0.281 N 
HETATM   11  N5  UNL     1      93.076  42.656  50.687  1.00  0.00    -0.131 N 
ATOM     12  H4  UNL     1      91.696  42.407  52.218  1.00  0.00     0.188 HD
ATOM     13  H5  UNL     1      93.969  42.613  51.176  1.00  0.00     0.205 HD
ENDBRANCH   4   6
ENDBRANCH   3   4
BRANCH   3  14
HETATM   14  N6  UNL     1      94.489  43.227  46.305  1.00  0.00    -0.107 NA
BRANCH  14  15
HETATM   15  N7  UNL     1      95.052  42.517  45.266  1.00  0.00    -0.346 N 
ATOM     16  H72 UNL     1      95.225  42.926  44.347  1.00  0.00     0.172 HD
ATOM     17  H71 UNL     1      95.272  41.555  45.520  1.00  0.00     0.172 HD
ENDBRANCH  14  15
ENDBRANCH   3  14
TORSDOF 4
ENDMDL
MODEL 5
REMARK VINA RESULT: -5.264789916      1.833      4.412
REMARK  4 active torsions:
REMARK  status: ('A' for Active; 'I' for Inactive)
REMARK    1  A    between atoms: C2_3  and  N2_4 
REMARK    2  A    between atoms: C2_3  and  N6_14 
REMARK    3  A    between atoms: N2_4  and  C3_6 
REMARK    4  A    between atoms: N6_14  and  N7_15 
ROOT
HETATM    1  N1  UNL     1      92.659  44.097  50.433  1.00  0.00    -0.194 NA
HETATM    2  C1  UNL     1      93.189  43.205  49.916  1.00  0.00     0.104 C 
HETATM    3  C2  UNL     1      93.850  42.077  49.286  1.00  0.00     0.320 C 
ENDROOT
BRANCH   3   4
HETATM    4  N2  UNL     1      93.657  42.185  47.861  1.00  0.00    -0.192 N 
ATOM      5  H2  UNL     1      92.915  42.782  47.496  1.00  0.00     0.180 HD
BRANCH   4   6
HETATM    6  C3  UNL     1      94.403  41.544  47.055  1.00  0.00     0.695 A 
HETATM    7  N3  UNL     1      94.799  41.959  45.840  1.00  0.00    -0.185 N 
HETATM    8  C4  UNL     1      95.565  40.987  45.338  1.00  0.00     0.215 A 
ATOM      9  H3  UNL     1      94.563  42.843  45.390  1.00  0.00     0.185 HD
HETATM   10  N4  UNL     1      95.626  39.996  46.249  1.00  0.00    -0.281 N 
HETATM   11  N5  UNL     1      94.916  40.331  47.300  1.00  0.00    -0.131 N 
ATOM     12  H4  UNL     1      96.142  39.123  46.139  1.00  0.00     0.188 HD
ATOM     13  H5  UNL     1      94.781  39.774  48.143  1.00  0.00     0.205 HD
ENDBRANCH   4   6
ENDBRANCH   3   4
BRANCH   3  14
HETATM   14  N6  UNL     1      95.277  42.087  49.535  1.00  0.00    -0.107 NA
BRANCH  14  15
HETATM   15  N7  UNL     1      95.634  41.298  50.607  1.00  0.00    -0.346 N 
ATOM     16  H72 UNL     1      95.349  41.504  51.565  1.00  0.00     0.172 HD
ATOM     17  H71 UNL     1      96.205  40.498  50.333  1.00  0.00     0.172 HD
ENDBRANCH  14  15
ENDBRANCH   3  14
TORSDOF 4
ENDMDL
