MODEL 1
REMARK VINA RESULT: -5.796993406      0.000      0.000
REMARK  3 active torsions:
REMARK  status: ('A' for Active; 'I' for Inactive)
REMARK    1  A    between atoms: C2_2  and  C3_3 
REMARK    2  A    between atoms: C3_3  and  N1_4 
REMARK    3  A    between atoms: N1_4  and  C4_6 
ROOT
HETATM    1  C4  UNL     1      93.510  42.405  49.504  1.00  0.00     0.210 C 
HETATM    2  C5  UNL     1      93.248  42.982  48.148  1.00  0.00     0.166 C 
HETATM    3  N2  UNL     1      93.982  42.267  47.122  1.00  0.00    -0.360 N 
ATOM      4  H2  UNL     1      93.946  42.613  46.162  1.00  0.00     0.162 HD
HETATM    5  C6  UNL     1      94.750  41.106  47.399  1.00  0.00     0.200 C 
HETATM    6  N3  UNL     1      94.981  40.166  46.372  1.00  0.00    -0.062 NA
HETATM    7  N4  UNL     1      95.218  40.962  48.615  1.00  0.00    -0.276 N 
ATOM      8  H4  UNL     1      95.777  40.151  48.878  1.00  0.00     0.185 HD
HETATM    9  N5  UNL     1      94.916  41.970  49.537  1.00  0.00    -0.112 NA
ENDROOT
BRANCH   1  10
HETATM   10  N1  UNL     1      93.169  43.252  50.593  1.00  0.00    -0.402 N 
ATOM     11  H1  UNL     1      93.840  43.515  51.316  1.00  0.00     0.154 HD
BRANCH  10  12
HETATM   12  C3  UNL     1      91.815  43.707  50.598  1.00  0.00     0.115 C 
BRANCH  12  13
HETATM   13  C2  UNL     1      90.850  42.521  50.453  1.00  0.00     0.015 C 
HETATM   14  C1  UNL     1      90.826  41.819  51.792  1.00  0.00     0.006 C 
ENDBRANCH  12  13
ENDBRANCH  10  12
ENDBRANCH   1  10
TORSDOF 3
ENDMDL
MODEL 2
REMARK VINA RESULT: -5.583081445      1.062      1.125
REMARK  3 active torsions:
REMARK  status: ('A' for Active; 'I' for Inactive)
REMARK    1  A    between atoms: C2_2  and  C3_3 
REMARK    2  A    between atoms: C3_3  and  N1_4 
REMARK    3  A    between atoms: N1_4  and  C4_6 
ROOT
HETATM    1  C4  UNL     1      93.434  42.331  48.100  1.00  0.00     0.210 C 
HETATM    2  C5  UNL     1      93.669  42.768  46.687  1.00  0.00     0.166 C 
HETATM    3  N2  UNL     1      94.603  41.886  46.013  1.00  0.00    -0.360 N 
ATOM      4  H2  UNL     1      94.902  42.121  45.066  1.00  0.00     0.162 HD
HETATM    5  C6  UNL     1      95.116  40.709  46.618  1.00  0.00     0.200 C 
HETATM    6  N3  UNL     1      95.550  39.643  45.801  1.00  0.00    -0.062 NA
HETATM    7  N4  UNL     1      95.166  40.670  47.927  1.00  0.00    -0.276 N 
ATOM      8  H4  UNL     1      95.525  39.854  48.422  1.00  0.00     0.185 HD
HETATM    9  N5  UNL     1      94.705  41.797  48.616  1.00  0.00    -0.112 NA
ENDROOT
BRANCH   1  10
HETATM   10  N1  UNL     1      92.868  43.321  48.948  1.00  0.00    -0.402 N 
ATOM     11  H1  UNL     1      92.647  44.262  48.622  1.00  0.00     0.154 HD
BRANCH  10  12
HETATM   12  C3  UNL     1      92.632  42.895  50.291  1.00  0.00     0.115 C 
BRANCH  12  13
HETATM   13  C2  UNL     1      91.129  42.917  50.605  1.00  0.00     0.015 C 
HETATM   14  C1  UNL     1      90.883  41.815  51.611  1.00  0.00     0.006 C 
ENDBRANCH  12  13
ENDBRANCH  10  12
ENDBRANCH   1  10
TORSDOF 3
ENDMDL
MODEL 3
REMARK VINA RESULT: -5.506201794      1.934      5.299
REMARK  3 active torsions:
REMARK  status: ('A' for Active; 'I' for Inactive)
REMARK    1  A    between atoms: C2_2  and  C3_3 
REMARK    2  A    between atoms: C3_3  and  N1_4 
REMARK    3  A    between atoms: N1_4  and  C4_6 
ROOT
HETATM    1  C4  UNL     1      94.823  41.502  47.508  1.00  0.00     0.210 C 
HETATM    2  C5  UNL     1      93.457  41.974  47.117  1.00  0.00     0.166 C 
HETATM    3  N2  UNL     1      92.791  42.632  48.224  1.00  0.00    -0.360 N 
ATOM      4  H2  UNL     1      91.823  42.932  48.105  1.00  0.00     0.162 HD
HETATM    5  C6  UNL     1      93.432  42.874  49.467  1.00  0.00     0.200 C 
HETATM    6  N3  UNL     1      92.989  43.941  50.278  1.00  0.00    -0.062 NA
HETATM    7  N4  UNL     1      94.418  42.081  49.808  1.00  0.00    -0.276 N 
ATOM      8  H4  UNL     1      94.918  42.202  50.689  1.00  0.00     0.185 HD
HETATM    9  N5  UNL     1      94.754  41.061  48.911  1.00  0.00    -0.112 NA
ENDROOT
BRANCH   1  10
HETATM   10  N1  UNL     1      95.388  40.521  46.650  1.00  0.00    -0.402 N 
ATOM     11  H1  UNL     1      95.769  39.640  46.997  1.00  0.00     0.154 HD
BRANCH  10  12
HETATM   12  C3  UNL     1      95.384  40.863  45.263  1.00  0.00     0.115 C 
BRANCH  12  13
HETATM   13  C2  UNL     1      96.623  40.287  44.563  1.00  0.00     0.015 C 
HETATM   14  C1  UNL     1      97.626  41.414  44.465  1.00  0.00     0.006 C 
ENDBRANCH  12  13
ENDBRANCH  10  12
ENDBRANCH   1  10
TORSDOF 3
ENDMDL
MODEL 4
REMARK VINA RESULT: -5.446792682      2.665      5.980
REMARK  3 active torsions:
REMARK  status: ('A' for Active; 'I' for Inactive)
REMARK    1  A    between atoms: C2_2  and  C3_3 
REMARK    2  A    between atoms: C3_3  and  N1_4 
REMARK    3  A    between atoms: N1_4  and  C4_6 
ROOT
HETATM    1  C4  UNL     1      95.206  40.986  45.645  1.00  0.00     0.210 C 
HETATM    2  C5  UNL     1      94.150  42.024  45.870  1.00  0.00     0.166 C 
HETATM    3  N2  UNL     1      93.857  42.178  47.282  1.00  0.00    -0.360 N 
ATOM      4  H2  UNL     1      93.100  42.804  47.560  1.00  0.00     0.162 HD
HETATM    5  C6  UNL     1      94.581  41.492  48.293  1.00  0.00     0.200 C 
HETATM    6  N3  UNL     1      94.652  42.045  49.589  1.00  0.00    -0.062 NA
HETATM    7  N4  UNL     1      95.156  40.360  47.968  1.00  0.00    -0.276 N 
ATOM      8  H4  UNL     1      95.689  39.820  48.648  1.00  0.00     0.185 HD
HETATM    9  N5  UNL     1      95.005  39.926  46.646  1.00  0.00    -0.112 NA
ENDROOT
BRANCH   1  10
HETATM   10  N1  UNL     1      95.280  40.483  44.318  1.00  0.00    -0.402 N 
ATOM     11  H1  UNL     1      94.452  40.221  43.782  1.00  0.00     0.154 HD
BRANCH  10  12
HETATM   12  C3  UNL     1      96.604  40.373  43.792  1.00  0.00     0.115 C 
BRANCH  12  13
HETATM   13  C2  UNL     1      97.555  41.329  44.526  1.00  0.00     0.015 C 
HETATM   14  C1  UNL     1      98.275  42.123  43.460  1.00  0.00     0.006 C 
ENDBRANCH  12  13
ENDBRANCH  10  12
ENDBRANCH   1  10
TORSDOF 3
ENDMDL
MODEL 5
REMARK VINA RESULT: -5.352246234      2.618      4.080
REMARK  3 active torsions:
REMARK  status: ('A' for Active; 'I' for Inactive)
REMARK    1  A    between atoms: C2_2  and  C3_3 
REMARK    2  A    between atoms: C3_3  and  N1_4 
REMARK    3  A    between atoms: N1_4  and  C4_6 
ROOT
HETATM    1  C4  UNL     1      92.509  43.013  47.770  1.00  0.00     0.210 C 
HETATM    2  C5  UNL     1      92.162  43.013  49.226  1.00  0.00     0.166 C 
HETATM    3  N2  UNL     1      93.219  42.414  50.018  1.00  0.00    -0.360 N 
ATOM      4  H2  UNL     1      93.069  42.287  51.019  1.00  0.00     0.162 HD
HETATM    5  C6  UNL     1      94.454  41.997  49.455  1.00  0.00     0.200 C 
HETATM    6  N3  UNL     1      95.604  41.942  50.272  1.00  0.00    -0.062 NA
HETATM    7  N4  UNL     1      94.466  41.677  48.185  1.00  0.00    -0.276 N 
ATOM      8  H4  UNL     1      95.321  41.369  47.721  1.00  0.00     0.185 HD
HETATM    9  N5  UNL     1      93.255  41.775  47.491  1.00  0.00    -0.112 NA
ENDROOT
BRANCH   1  10
HETATM   10  N1  UNL     1      91.409  43.203  46.890  1.00  0.00    -0.402 N 
ATOM     11  H1  UNL     1      90.630  43.824  47.111  1.00  0.00     0.154 HD
BRANCH  10  12
HETATM   12  C3  UNL     1      91.478  42.457  45.674  1.00  0.00     0.115 C 
BRANCH  12  13
HETATM   13  C2  UNL     1      90.372  42.904  44.707  1.00  0.00     0.015 C 
HETATM   14  C1  UNL     1      89.724  41.643  44.182  1.00  0.00     0.006 C 
ENDBRANCH  12  13
ENDBRANCH  10  12
ENDBRANCH   1  10
TORSDOF 3
ENDMDL
