MODEL 1
REMARK VINA RESULT: -5.421729428      0.000      0.000
REMARK  6 active torsions:
REMARK  status: ('A' for Active; 'I' for Inactive)
REMARK    1  A    between atoms: N2_4  and  C1_6 
REMARK    2  A    between atoms: C1_6  and  N3_7 
REMARK    3  A    between atoms: C3_9  and  C4_10 
REMARK    4  A    between atoms: C4_10  and  N4_11 
REMARK    5  A    between atoms: C4_10  and  C5_15 
REMARK    6  A    between atoms: C5_15  and  N5_16 
ROOT
HETATM    1  N3  UNL     1      93.675  42.139  46.701  1.00  0.00    -0.284 N 
HETATM    2  C2  UNL     1      93.837  42.356  48.018  1.00  0.00     0.122 A 
HETATM    3  C3  UNL     1      92.660  42.830  48.495  1.00  0.00     0.008 A 
HETATM    4  C6  UNL     1      91.775  42.896  47.433  1.00  0.00     0.118 A 
HETATM    5  N6  UNL     1      92.440  42.466  46.371  1.00  0.00    -0.308 N 
ATOM      6  H6  UNL     1      92.052  42.398  45.430  1.00  0.00     0.186 HD
ENDROOT
BRANCH   3   7
HETATM    7  C4  UNL     1      92.290  43.230  49.869  1.00  0.00     0.244 C 
BRANCH   7   8
HETATM    8  N4  UNL     1      93.361  42.812  50.751  1.00  0.00    -0.069 N 
ATOM      9  H43 UNL     1      93.547  41.810  50.704  1.00  0.00     0.275 HD
ATOM     10  H42 UNL     1      94.279  43.133  50.441  1.00  0.00     0.275 HD
ATOM     11  H41 UNL     1      93.127  43.129  51.693  1.00  0.00     0.275 HD
ENDBRANCH   7   8
BRANCH   7  12
HETATM   12  C5  UNL     1      90.987  42.617  50.318  1.00  0.00     0.267 C 
BRANCH  12  13
HETATM   13  N5  UNL     1      91.189  41.966  51.597  1.00  0.00    -0.077 N 
ATOM     14  H53 UNL     1      91.506  42.615  52.317  1.00  0.00     0.274 HD
ATOM     15  H52 UNL     1      90.311  41.686  52.034  1.00  0.00     0.274 HD
ATOM     16  H51 UNL     1      91.829  41.182  51.471  1.00  0.00     0.274 HD
ENDBRANCH  12  13
ENDBRANCH   7  12
ENDBRANCH   3   7
BRANCH   1  17
HETATM   17  C1  UNL     1      94.647  41.637  45.758  1.00  0.00     0.286 C 
BRANCH  17  18
HETATM   18  N2  UNL     1      95.438  40.655  46.469  1.00  0.00    -0.323 N 
HETATM   19  N1  UNL     1      96.251  39.919  45.892  1.00  0.00    -0.348 N 
ATOM     20  H12 UNL     1      96.355  40.022  44.883  1.00  0.00     0.176 HD
ATOM     21  H11 UNL     1      96.808  39.227  46.394  1.00  0.00     0.176 HD
ATOM     22  H2  UNL     1      95.321  40.565  47.478  1.00  0.00     0.181 HD
ENDBRANCH  17  18
ENDBRANCH   1  17
TORSDOF 6
ENDMDL
MODEL 2
REMARK VINA RESULT: -5.346593391      1.468      5.279
REMARK  6 active torsions:
REMARK  status: ('A' for Active; 'I' for Inactive)
REMARK    1  A    between atoms: N2_4  and  C1_6 
REMARK    2  A    between atoms: C1_6  and  N3_7 
REMARK    3  A    between atoms: C3_9  and  C4_10 
REMARK    4  A    between atoms: C4_10  and  N4_11 
REMARK    5  A    between atoms: C4_10  and  C5_15 
REMARK    6  A    between atoms: C5_15  and  N5_16 
ROOT
HETATM    1  N3  UNL     1      93.526  42.616  49.042  1.00  0.00    -0.284 N 
HETATM    2  C2  UNL     1      93.481  42.486  47.705  1.00  0.00     0.122 A 
HETATM    3  C3  UNL     1      94.415  41.566  47.358  1.00  0.00     0.008 A 
HETATM    4  C6  UNL     1      95.032  41.139  48.521  1.00  0.00     0.118 A 
HETATM    5  N6  UNL     1      94.457  41.806  49.511  1.00  0.00    -0.308 N 
ATOM      6  H6  UNL     1      94.699  41.708  50.497  1.00  0.00     0.186 HD
ENDROOT
BRANCH   3   7
HETATM    7  C4  UNL     1      94.783  41.050  46.024  1.00  0.00     0.244 C 
BRANCH   7   8
HETATM    8  N4  UNL     1      96.180  40.669  46.070  1.00  0.00    -0.069 N 
ATOM      9  H43 UNL     1      96.764  41.222  45.442  1.00  0.00     0.275 HD
ATOM     10  H42 UNL     1      96.635  40.934  46.944  1.00  0.00     0.275 HD
ATOM     11  H41 UNL     1      96.234  39.667  45.883  1.00  0.00     0.275 HD
ENDBRANCH   7   8
BRANCH   7  12
HETATM   12  C5  UNL     1      94.563  42.065  44.930  1.00  0.00     0.267 C 
BRANCH  12  13
HETATM   13  N5  UNL     1      95.848  42.450  44.381  1.00  0.00    -0.077 N 
ATOM     14  H53 UNL     1      95.814  42.587  43.371  1.00  0.00     0.274 HD
ATOM     15  H52 UNL     1      96.116  43.398  44.645  1.00  0.00     0.274 HD
ATOM     16  H51 UNL     1      96.546  41.759  44.656  1.00  0.00     0.274 HD
ENDBRANCH  12  13
ENDBRANCH   7  12
ENDBRANCH   3   7
BRANCH   1  17
HETATM   17  C1  UNL     1      92.724  43.479  49.878  1.00  0.00     0.286 C 
BRANCH  17  18
HETATM   18  N2  UNL     1      92.517  42.766  51.121  1.00  0.00    -0.323 N 
HETATM   19  N1  UNL     1      91.457  42.179  51.376  1.00  0.00    -0.348 N 
ATOM     20  H12 UNL     1      90.715  42.208  50.677  1.00  0.00     0.176 HD
ATOM     21  H11 UNL     1      91.311  41.677  52.252  1.00  0.00     0.176 HD
ATOM     22  H2  UNL     1      93.269  42.748  51.809  1.00  0.00     0.181 HD
ENDBRANCH  17  18
ENDBRANCH   1  17
TORSDOF 6
ENDMDL
MODEL 3
REMARK VINA RESULT: -5.181229759      1.008      1.479
REMARK  6 active torsions:
REMARK  status: ('A' for Active; 'I' for Inactive)
REMARK    1  A    between atoms: N2_4  and  C1_6 
REMARK    2  A    between atoms: C1_6  and  N3_7 
REMARK    3  A    between atoms: C3_9  and  C4_10 
REMARK    4  A    between atoms: C4_10  and  N4_11 
REMARK    5  A    between atoms: C4_10  and  C5_15 
REMARK    6  A    between atoms: C5_15  and  N5_16 
ROOT
HETATM    1  N3  UNL     1      94.180  41.838  47.326  1.00  0.00    -0.284 N 
HETATM    2  C2  UNL     1      93.079  42.565  47.586  1.00  0.00     0.122 A 
HETATM    3  C3  UNL     1      93.018  42.734  48.930  1.00  0.00     0.008 A 
HETATM    4  C6  UNL     1      94.112  42.090  49.482  1.00  0.00     0.118 A 
HETATM    5  N6  UNL     1      94.782  41.564  48.467  1.00  0.00    -0.308 N 
ATOM      6  H6  UNL     1      95.642  41.024  48.556  1.00  0.00     0.186 HD
ENDROOT
BRANCH   3   7
HETATM    7  C4  UNL     1      92.018  43.452  49.748  1.00  0.00     0.244 C 
BRANCH   7   8
HETATM    8  N4  UNL     1      92.723  44.093  50.840  1.00  0.00    -0.069 N 
ATOM      9  H43 UNL     1      92.865  43.474  51.639  1.00  0.00     0.275 HD
ATOM     10  H42 UNL     1      93.705  44.269  50.630  1.00  0.00     0.275 HD
ATOM     11  H41 UNL     1      92.211  44.942  51.082  1.00  0.00     0.275 HD
ENDBRANCH   7   8
BRANCH   7  12
HETATM   12  C5  UNL     1      90.953  42.534  50.294  1.00  0.00     0.267 C 
BRANCH  12  13
HETATM   13  N5  UNL     1      91.322  42.130  51.636  1.00  0.00    -0.077 N 
ATOM     14  H53 UNL     1      92.278  41.780  51.687  1.00  0.00     0.274 HD
ATOM     15  H52 UNL     1      91.427  42.926  52.266  1.00  0.00     0.274 HD
ATOM     16  H51 UNL     1      90.640  41.452  51.976  1.00  0.00     0.274 HD
ENDBRANCH  12  13
ENDBRANCH   7  12
ENDBRANCH   3   7
BRANCH   1  17
HETATM   17  C1  UNL     1      94.669  41.399  46.040  1.00  0.00     0.286 C 
BRANCH  17  18
HETATM   18  N2  UNL     1      95.807  40.545  46.306  1.00  0.00    -0.323 N 
HETATM   19  N1  UNL     1      96.815  40.545  45.585  1.00  0.00    -0.348 N 
ATOM     20  H12 UNL     1      96.827  41.173  44.782  1.00  0.00     0.176 HD
ATOM     21  H11 UNL     1      97.617  39.943  45.773  1.00  0.00     0.176 HD
ATOM     22  H2  UNL     1      95.778  39.922  47.113  1.00  0.00     0.181 HD
ENDBRANCH  17  18
ENDBRANCH   1  17
TORSDOF 6
ENDMDL
MODEL 4
REMARK VINA RESULT: -5.141749495      1.278      4.976
REMARK  6 active torsions:
REMARK  status: ('A' for Active; 'I' for Inactive)
REMARK    1  A    between atoms: N2_4  and  C1_6 
REMARK    2  A    between atoms: C1_6  and  N3_7 
REMARK    3  A    between atoms: C3_9  and  C4_10 
REMARK    4  A    between atoms: C4_10  and  N4_11 
REMARK    5  A    between atoms: C4_10  and  C5_15 
REMARK    6  A    between atoms: C5_15  and  N5_16 
ROOT
HETATM    1  N3  UNL     1      93.059  43.002  48.715  1.00  0.00    -0.284 N 
HETATM    2  C2  UNL     1      94.055  42.146  48.429  1.00  0.00     0.122 A 
HETATM    3  C3  UNL     1      93.903  41.770  47.134  1.00  0.00     0.008 A 
HETATM    4  C6  UNL     1      92.786  42.420  46.639  1.00  0.00     0.118 A 
HETATM    5  N6  UNL     1      92.312  43.153  47.637  1.00  0.00    -0.308 N 
ATOM      6  H6  UNL     1      91.488  43.750  47.579  1.00  0.00     0.186 HD
ENDROOT
BRANCH   3   7
HETATM    7  C4  UNL     1      94.718  40.848  46.316  1.00  0.00     0.244 C 
BRANCH   7   8
HETATM    8  N4  UNL     1      95.253  39.833  47.201  1.00  0.00    -0.069 N 
ATOM      9  H43 UNL     1      94.547  39.433  47.820  1.00  0.00     0.275 HD
ATOM     10  H42 UNL     1      95.505  38.973  46.713  1.00  0.00     0.275 HD
ATOM     11  H41 UNL     1      96.037  40.246  47.707  1.00  0.00     0.275 HD
ENDBRANCH   7   8
BRANCH   7  12
HETATM   12  C5  UNL     1      95.845  41.552  45.602  1.00  0.00     0.267 C 
BRANCH  12  13
HETATM   13  N5  UNL     1      96.971  40.647  45.493  1.00  0.00    -0.077 N 
ATOM     14  H53 UNL     1      96.817  39.917  44.798  1.00  0.00     0.274 HD
ATOM     15  H52 UNL     1      97.783  41.087  45.060  1.00  0.00     0.274 HD
ATOM     16  H51 UNL     1      97.181  40.267  46.416  1.00  0.00     0.274 HD
ENDBRANCH  12  13
ENDBRANCH   7  12
ENDBRANCH   3   7
BRANCH   1  17
HETATM   17  C1  UNL     1      92.795  43.671  49.967  1.00  0.00     0.286 C 
BRANCH  17  18
HETATM   18  N2  UNL     1      92.644  42.630  50.962  1.00  0.00    -0.323 N 
HETATM   19  N1  UNL     1      91.532  42.242  51.348  1.00  0.00    -0.348 N 
ATOM     20  H12 UNL     1      90.706  42.681  50.941  1.00  0.00     0.176 HD
ATOM     21  H11 UNL     1      91.425  41.509  52.049  1.00  0.00     0.176 HD
ATOM     22  H2  UNL     1      93.480  42.202  51.359  1.00  0.00     0.181 HD
ENDBRANCH  17  18
ENDBRANCH   1  17
TORSDOF 6
ENDMDL
MODEL 5
REMARK VINA RESULT: -5.118684169      1.381      1.446
REMARK  6 active torsions:
REMARK  status: ('A' for Active; 'I' for Inactive)
REMARK    1  A    between atoms: N2_4  and  C1_6 
REMARK    2  A    between atoms: C1_6  and  N3_7 
REMARK    3  A    between atoms: C3_9  and  C4_10 
REMARK    4  A    between atoms: C4_10  and  N4_11 
REMARK    5  A    between atoms: C4_10  and  C5_15 
REMARK    6  A    between atoms: C5_15  and  N5_16 
ROOT
HETATM    1  N3  UNL     1      93.399  42.241  46.145  1.00  0.00    -0.284 N 
HETATM    2  C2  UNL     1      93.857  42.410  47.397  1.00  0.00     0.122 A 
HETATM    3  C3  UNL     1      92.805  42.801  48.160  1.00  0.00     0.008 A 
HETATM    4  C6  UNL     1      91.694  42.865  47.338  1.00  0.00     0.118 A 
HETATM    5  N6  UNL     1      92.109  42.517  46.128  1.00  0.00    -0.308 N 
ATOM      6  H6  UNL     1      91.514  42.468  45.301  1.00  0.00     0.186 HD
ENDROOT
BRANCH   3   7
HETATM    7  C4  UNL     1      92.751  43.121  49.602  1.00  0.00     0.244 C 
BRANCH   7   8
HETATM    8  N4  UNL     1      93.750  42.310  50.269  1.00  0.00    -0.069 N 
ATOM      9  H43 UNL     1      93.793  41.357  49.909  1.00  0.00     0.275 HD
ATOM     10  H42 UNL     1      94.705  42.585  50.037  1.00  0.00     0.275 HD
ATOM     11  H41 UNL     1      93.559  42.348  51.271  1.00  0.00     0.275 HD
ENDBRANCH   7   8
BRANCH   7  12
HETATM   12  C5  UNL     1      91.392  42.859  50.201  1.00  0.00     0.267 C 
BRANCH  12  13
HETATM   13  N5  UNL     1      91.557  42.106  51.429  1.00  0.00    -0.077 N 
ATOM     14  H53 UNL     1      90.786  41.460  51.595  1.00  0.00     0.274 HD
ATOM     15  H52 UNL     1      92.307  41.418  51.365  1.00  0.00     0.274 HD
ATOM     16  H51 UNL     1      91.693  42.758  52.201  1.00  0.00     0.274 HD
ENDBRANCH  12  13
ENDBRANCH   7  12
ENDBRANCH   3   7
BRANCH   1  17
HETATM   17  C1  UNL     1      94.143  41.832  44.976  1.00  0.00     0.286 C 
BRANCH  17  18
HETATM   18  N2  UNL     1      95.256  42.750  44.859  1.00  0.00    -0.323 N 
HETATM   19  N1  UNL     1      95.735  43.070  43.762  1.00  0.00    -0.348 N 
ATOM     20  H12 UNL     1      95.319  42.665  42.924  1.00  0.00     0.176 HD
ATOM     21  H11 UNL     1      96.520  43.717  43.680  1.00  0.00     0.176 HD
ATOM     22  H2  UNL     1      95.660  43.145  45.708  1.00  0.00     0.181 HD
ENDBRANCH  17  18
ENDBRANCH   1  17
TORSDOF 6
ENDMDL
