MODEL 1
REMARK VINA RESULT: -6.293997244      0.000      0.000
REMARK  5 active torsions:
REMARK  status: ('A' for Active; 'I' for Inactive)
REMARK    1  A    between atoms: C2_2  and  C3_3 
REMARK    2  A    between atoms: C7_9  and  N2_10 
REMARK    3  A    between atoms: N2_10  and  C8_12 
REMARK    4  A    between atoms: C8_12  and  C9_13 
REMARK    5  A    between atoms: C8_12  and  C11_15 
ROOT
HETATM    1  C3  UNL     1      33.769  11.359 108.715  1.00  0.00    -0.000 C 
HETATM    2  C4  UNL     1      33.936  11.065 107.463  1.00  0.00     0.024 C 
HETATM    3  N1  UNL     1      33.284  11.523 106.300  1.00  0.00    -0.392 N 
ATOM      4  H1  UNL     1      32.774  12.403 106.232  1.00  0.00     0.159 HD
HETATM    5  C5  UNL     1      33.438  10.578 105.217  1.00  0.00     0.122 C 
HETATM    6  C6  UNL     1      34.039   9.362 105.950  1.00  0.00     0.050 C 
HETATM    7  C7  UNL     1      34.955  10.067 106.922  1.00  0.00     0.128 C 
ENDROOT
BRANCH   7   8
HETATM    8  N2  UNL     1      35.542   9.331 107.932  1.00  0.00    -0.407 N 
ATOM      9  H2  UNL     1      36.217   9.827 108.515  1.00  0.00     0.154 HD
BRANCH   8  10
HETATM   10  C8  UNL     1      35.326   8.013 108.248  1.00  0.00     0.081 C 
BRANCH  10  11
HETATM   11  C9  UNL     1      34.575   7.717 109.528  1.00  0.00     0.021 C 
HETATM   12  C10 UNL     1      33.112   7.401 109.296  1.00  0.00     0.007 C 
ENDBRANCH  10  11
BRANCH  10  13
HETATM   13  C11 UNL     1      36.545   7.133 108.211  1.00  0.00     0.012 A 
HETATM   14  C12 UNL     1      36.626   5.887 109.039  1.00  0.00     0.011 A 
HETATM   15  C13 UNL     1      36.540   5.828 107.521  1.00  0.00    -0.012 A 
HETATM   16  C14 UNL     1      35.262   5.239 106.960  1.00  0.00     0.010 C 
ENDBRANCH  10  13
ENDBRANCH   8  10
ENDBRANCH   7   8
BRANCH   1  17
HETATM   17  C2  UNL     1      32.723  12.354 109.129  1.00  0.00     0.025 C 
HETATM   18  C1  UNL     1      31.745  11.619 110.029  1.00  0.00     0.009 C 
ENDBRANCH   1  17
TORSDOF 5
ENDMDL
MODEL 2
REMARK VINA RESULT: -6.286981721      1.732      2.988
REMARK  5 active torsions:
REMARK  status: ('A' for Active; 'I' for Inactive)
REMARK    1  A    between atoms: C2_2  and  C3_3 
REMARK    2  A    between atoms: C7_9  and  N2_10 
REMARK    3  A    between atoms: N2_10  and  C8_12 
REMARK    4  A    between atoms: C8_12  and  C9_13 
REMARK    5  A    between atoms: C8_12  and  C11_15 
ROOT
HETATM    1  C3  UNL     1      31.934  12.403 109.798  1.00  0.00    -0.000 C 
HETATM    2  C4  UNL     1      31.917  12.300 108.506  1.00  0.00     0.024 C 
HETATM    3  N1  UNL     1      30.985  12.744 107.545  1.00  0.00    -0.392 N 
ATOM      4  H1  UNL     1      30.316  13.499 107.694  1.00  0.00     0.159 HD
HETATM    5  C5  UNL     1      31.108  11.987 106.320  1.00  0.00     0.122 C 
HETATM    6  C6  UNL     1      32.052  10.847 106.753  1.00  0.00     0.050 C 
HETATM    7  C7  UNL     1      32.985  11.610 107.663  1.00  0.00     0.128 C 
ENDROOT
BRANCH   7   8
HETATM    8  N2  UNL     1      33.877  10.901 108.444  1.00  0.00    -0.407 N 
ATOM      9  H2  UNL     1      34.252  11.392 109.255  1.00  0.00     0.154 HD
BRANCH   8  10
HETATM   10  C8  UNL     1      34.319   9.615 108.260  1.00  0.00     0.081 C 
BRANCH  10  11
HETATM   11  C9  UNL     1      34.777   9.227 106.871  1.00  0.00     0.021 C 
HETATM   12  C10 UNL     1      36.222   9.594 106.601  1.00  0.00     0.007 C 
ENDBRANCH  10  11
BRANCH  10  13
HETATM   13  C11 UNL     1      33.398   8.538 108.762  1.00  0.00     0.012 A 
HETATM   14  C12 UNL     1      33.295   7.217 108.062  1.00  0.00     0.011 A 
HETATM   15  C13 UNL     1      33.909   7.336 109.449  1.00  0.00    -0.012 A 
HETATM   16  C14 UNL     1      35.394   7.050 109.535  1.00  0.00     0.010 C 
ENDBRANCH  10  13
ENDBRANCH   8  10
ENDBRANCH   7   8
BRANCH   1  17
HETATM   17  C2  UNL     1      30.816  13.099 110.520  1.00  0.00     0.025 C 
HETATM   18  C1  UNL     1      29.760  12.050 110.819  1.00  0.00     0.009 C 
ENDBRANCH   1  17
TORSDOF 5
ENDMDL
MODEL 3
REMARK VINA RESULT: -6.034467167      1.752      2.392
REMARK  5 active torsions:
REMARK  status: ('A' for Active; 'I' for Inactive)
REMARK    1  A    between atoms: C2_2  and  C3_3 
REMARK    2  A    between atoms: C7_9  and  N2_10 
REMARK    3  A    between atoms: N2_10  and  C8_12 
REMARK    4  A    between atoms: C8_12  and  C9_13 
REMARK    5  A    between atoms: C8_12  and  C11_15 
ROOT
HETATM    1  C3  UNL     1      31.955  12.306 109.827  1.00  0.00    -0.000 C 
HETATM    2  C4  UNL     1      31.946  12.236 108.533  1.00  0.00     0.024 C 
HETATM    3  N1  UNL     1      31.053  12.757 107.574  1.00  0.00    -0.392 N 
ATOM      4  H1  UNL     1      30.427  13.545 107.736  1.00  0.00     0.159 HD
HETATM    5  C5  UNL     1      31.145  12.024 106.332  1.00  0.00     0.122 C 
HETATM    6  C6  UNL     1      32.017  10.820 106.746  1.00  0.00     0.050 C 
HETATM    7  C7  UNL     1      32.982  11.505 107.684  1.00  0.00     0.128 C 
ENDROOT
BRANCH   7   8
HETATM    8  N2  UNL     1      33.823  10.727 108.455  1.00  0.00    -0.407 N 
ATOM      9  H2  UNL     1      34.233  11.182 109.271  1.00  0.00     0.154 HD
BRANCH   8  10
HETATM   10  C8  UNL     1      34.173   9.415 108.256  1.00  0.00     0.081 C 
BRANCH  10  11
HETATM   11  C9  UNL     1      34.205   8.510 109.469  1.00  0.00     0.021 C 
HETATM   12  C10 UNL     1      33.167   7.408 109.412  1.00  0.00     0.007 C 
ENDBRANCH  10  11
BRANCH  10  13
HETATM   13  C11 UNL     1      35.442   9.197 107.480  1.00  0.00     0.012 A 
HETATM   14  C12 UNL     1      36.156   7.879 107.518  1.00  0.00     0.011 A 
HETATM   15  C13 UNL     1      35.471   8.377 106.253  1.00  0.00    -0.012 A 
HETATM   16  C14 UNL     1      34.261   7.583 105.808  1.00  0.00     0.010 C 
ENDBRANCH  10  13
ENDBRANCH   8  10
ENDBRANCH   7   8
BRANCH   1  17
HETATM   17  C2  UNL     1      30.871  13.048 110.556  1.00  0.00     0.025 C 
HETATM   18  C1  UNL     1      29.756  12.053 110.826  1.00  0.00     0.009 C 
ENDBRANCH   1  17
TORSDOF 5
ENDMDL
MODEL 4
REMARK VINA RESULT: -6.006433484      2.323      3.832
REMARK  5 active torsions:
REMARK  status: ('A' for Active; 'I' for Inactive)
REMARK    1  A    between atoms: C2_2  and  C3_3 
REMARK    2  A    between atoms: C7_9  and  N2_10 
REMARK    3  A    between atoms: N2_10  and  C8_12 
REMARK    4  A    between atoms: C8_12  and  C9_13 
REMARK    5  A    between atoms: C8_12  and  C11_15 
ROOT
HETATM    1  C3  UNL     1      30.998  11.940 106.228  1.00  0.00    -0.000 C 
HETATM    2  C4  UNL     1      31.338  11.933 107.479  1.00  0.00     0.024 C 
HETATM    3  N1  UNL     1      30.902  12.712 108.570  1.00  0.00    -0.392 N 
ATOM      4  H1  UNL     1      30.013  13.210 108.607  1.00  0.00     0.159 HD
HETATM    5  C5  UNL     1      31.886  12.712 109.629  1.00  0.00     0.122 C 
HETATM    6  C6  UNL     1      33.092  12.050 108.932  1.00  0.00     0.050 C 
HETATM    7  C7  UNL     1      32.378  11.008 108.104  1.00  0.00     0.128 C 
ENDROOT
BRANCH   7   8
HETATM    8  N2  UNL     1      33.094  10.318 107.146  1.00  0.00    -0.407 N 
ATOM      9  H2  UNL     1      33.056  10.695 106.199  1.00  0.00     0.154 HD
BRANCH   8  10
HETATM   10  C8  UNL     1      33.850   9.185 107.314  1.00  0.00     0.081 C 
BRANCH  10  11
HETATM   11  C9  UNL     1      34.814   8.819 106.207  1.00  0.00     0.021 C 
HETATM   12  C10 UNL     1      36.171   9.472 106.365  1.00  0.00     0.007 C 
ENDBRANCH  10  11
BRANCH  10  13
HETATM   13  C11 UNL     1      33.083   7.947 107.691  1.00  0.00     0.012 A 
HETATM   14  C12 UNL     1      33.694   6.586 107.553  1.00  0.00     0.011 A 
HETATM   15  C13 UNL     1      33.389   7.186 108.918  1.00  0.00    -0.012 A 
HETATM   16  C14 UNL     1      34.595   7.520 109.771  1.00  0.00     0.010 C 
ENDBRANCH  10  13
ENDBRANCH   8  10
ENDBRANCH   7   8
BRANCH   1  17
HETATM   17  C2  UNL     1      29.965  12.907 105.726  1.00  0.00     0.025 C 
HETATM   18  C1  UNL     1      28.740  12.092 105.350  1.00  0.00     0.009 C 
ENDBRANCH   1  17
TORSDOF 5
ENDMDL
MODEL 5
REMARK VINA RESULT: -5.886813801      2.417      4.362
REMARK  5 active torsions:
REMARK  status: ('A' for Active; 'I' for Inactive)
REMARK    1  A    between atoms: C2_2  and  C3_3 
REMARK    2  A    between atoms: C7_9  and  N2_10 
REMARK    3  A    between atoms: N2_10  and  C8_12 
REMARK    4  A    between atoms: C8_12  and  C9_13 
REMARK    5  A    between atoms: C8_12  and  C11_15 
ROOT
HETATM    1  C3  UNL     1      30.705  12.476 107.198  1.00  0.00    -0.000 C 
HETATM    2  C4  UNL     1      30.721  12.335 108.487  1.00  0.00     0.024 C 
HETATM    3  N1  UNL     1      29.822  12.763 109.485  1.00  0.00    -0.392 N 
ATOM      4  H1  UNL     1      28.842  12.992 109.321  1.00  0.00     0.159 HD
HETATM    5  C5  UNL     1      30.476  12.833 110.772  1.00  0.00     0.122 C 
HETATM    6  C6  UNL     1      31.956  12.650 110.378  1.00  0.00     0.050 C 
HETATM    7  C7  UNL     1      31.811  11.622 109.281  1.00  0.00     0.128 C 
ENDROOT
BRANCH   7   8
HETATM    8  N2  UNL     1      32.910  11.329 108.498  1.00  0.00    -0.407 N 
ATOM      9  H2  UNL     1      33.451  12.127 108.167  1.00  0.00     0.154 HD
BRANCH   8  10
HETATM   10  C8  UNL     1      33.362  10.092 108.112  1.00  0.00     0.081 C 
BRANCH  10  11
HETATM   11  C9  UNL     1      32.929   9.584 106.754  1.00  0.00     0.021 C 
HETATM   12  C10 UNL     1      33.579  10.331 105.608  1.00  0.00     0.007 C 
ENDBRANCH  10  11
BRANCH  10  13
HETATM   13  C11 UNL     1      33.151   8.987 109.110  1.00  0.00     0.012 A 
HETATM   14  C12 UNL     1      32.932   7.573 108.665  1.00  0.00     0.011 A 
HETATM   15  C13 UNL     1      34.199   7.989 109.398  1.00  0.00    -0.012 A 
HETATM   16  C14 UNL     1      35.475   7.930 108.584  1.00  0.00     0.010 C 
ENDBRANCH  10  13
ENDBRANCH   8  10
ENDBRANCH   7   8
BRANCH   1  17
HETATM   17  C2  UNL     1      29.580  13.209 106.527  1.00  0.00     0.025 C 
HETATM   18  C1  UNL     1      28.955  12.247 105.532  1.00  0.00     0.009 C 
ENDBRANCH   1  17
TORSDOF 5
ENDMDL
