MODEL 1
REMARK VINA RESULT: -7.394527017      0.000      0.000
REMARK  7 active torsions:
REMARK  status: ('A' for Active; 'I' for Inactive)
REMARK    1  A    between atoms: C2_2  and  C3_3 
REMARK    2  A    between atoms: C3_3  and  O1_4 
REMARK    3  A    between atoms: C3_3  and  C4_6 
REMARK    4  A    between atoms: C4_6  and  C5_7 
REMARK    5  A    between atoms: C4_6  and  N1_13 
REMARK    6  A    between atoms: C5_7  and  C6_8 
REMARK    7  A    between atoms: N1_13  and  C11_16 
ROOT
HETATM    1  C4  UNL     1      33.802  10.373 108.616  1.00  0.00     0.218 C 
ENDROOT
BRANCH   1   2
HETATM    2  C3  UNL     1      34.013  10.815 107.160  1.00  0.00     0.170 C 
BRANCH   2   3
HETATM    3  C2  UNL     1      34.865   9.876 106.412  1.00  0.00    -0.004 C 
HETATM    4  C1  UNL     1      36.175   9.797 106.676  1.00  0.00     0.009 C 
ENDBRANCH   2   3
BRANCH   2   5
HETATM    5  O1  UNL     1      34.571  12.117 107.186  1.00  0.00    -0.390 OA
ATOM      6  H1  UNL     1      34.896  12.375 106.331  1.00  0.00     0.210 HD
ENDBRANCH   2   5
ENDBRANCH   1   2
BRANCH   1   7
HETATM    7  C5  UNL     1      32.832   9.252 108.628  1.00  0.00     0.040 C 
BRANCH   7   8
HETATM    8  C6  UNL     1      33.289   7.951 109.182  1.00  0.00    -0.013 C 
HETATM    9  C7  UNL     1      33.174   6.766 108.331  1.00  0.00     0.005 C 
HETATM   10  C8  UNL     1      34.627   6.505 107.869  1.00  0.00     0.000 C 
HETATM   11  C9  UNL     1      35.371   6.730 109.166  1.00  0.00     0.000 C 
HETATM   12  C10 UNL     1      34.738   8.038 109.636  1.00  0.00     0.005 C 
ENDBRANCH   7   8
ENDBRANCH   1   7
BRANCH   1  13
HETATM   13  N1  UNL     1      33.460  11.497 109.433  1.00  0.00    -0.064 N 
ATOM     14  H12 UNL     1      33.929  11.457 110.338  1.00  0.00     0.278 HD
ATOM     15  H11 UNL     1      33.876  12.358 109.078  1.00  0.00     0.278 HD
BRANCH  13  16
HETATM   16  C11 UNL     1      32.050  11.622 109.582  1.00  0.00     0.186 C 
HETATM   17  C12 UNL     1      31.384  12.482 108.503  1.00  0.00     0.033 C 
HETATM   18  C13 UNL     1      30.382  12.891 109.561  1.00  0.00     0.004 C 
HETATM   19  C14 UNL     1      31.508  12.609 110.575  1.00  0.00     0.033 C 
ENDBRANCH  13  16
ENDBRANCH   1  13
TORSDOF 7
ENDMDL
MODEL 2
REMARK VINA RESULT: -7.249980772      0.879      1.099
REMARK  7 active torsions:
REMARK  status: ('A' for Active; 'I' for Inactive)
REMARK    1  A    between atoms: C2_2  and  C3_3 
REMARK    2  A    between atoms: C3_3  and  O1_4 
REMARK    3  A    between atoms: C3_3  and  C4_6 
REMARK    4  A    between atoms: C4_6  and  C5_7 
REMARK    5  A    between atoms: C4_6  and  N1_13 
REMARK    6  A    between atoms: C5_7  and  C6_8 
REMARK    7  A    between atoms: N1_13  and  C11_16 
ROOT
HETATM    1  C4  UNL     1      33.826  10.508 109.039  1.00  0.00     0.218 C 
ENDROOT
BRANCH   1   2
HETATM    2  C3  UNL     1      34.379  10.941 107.672  1.00  0.00     0.170 C 
BRANCH   2   3
HETATM    3  C2  UNL     1      33.644  10.326 106.555  1.00  0.00    -0.004 C 
HETATM    4  C1  UNL     1      33.057  11.094 105.629  1.00  0.00     0.009 C 
ENDBRANCH   2   3
BRANCH   2   5
HETATM    5  O1  UNL     1      35.754  10.601 107.641  1.00  0.00    -0.390 OA
ATOM      6  H1  UNL     1      36.303  11.346 107.858  1.00  0.00     0.210 HD
ENDBRANCH   2   5
ENDBRANCH   1   2
BRANCH   1   7
HETATM    7  C5  UNL     1      32.842   9.420 108.820  1.00  0.00     0.040 C 
BRANCH   7   8
HETATM    8  C6  UNL     1      33.245   8.040 109.196  1.00  0.00    -0.013 C 
HETATM    9  C7  UNL     1      33.200   7.007 108.160  1.00  0.00     0.005 C 
HETATM   10  C8  UNL     1      34.687   6.798 107.788  1.00  0.00     0.000 C 
HETATM   11  C9  UNL     1      35.317   6.803 109.162  1.00  0.00     0.000 C 
HETATM   12  C10 UNL     1      34.650   8.030 109.779  1.00  0.00     0.005 C 
ENDBRANCH   7   8
ENDBRANCH   1   7
BRANCH   1  13
HETATM   13  N1  UNL     1      33.343  11.643 109.764  1.00  0.00    -0.064 N 
ATOM     14  H12 UNL     1      33.691  11.649 110.722  1.00  0.00     0.278 HD
ATOM     15  H11 UNL     1      33.774  12.507 109.435  1.00  0.00     0.278 HD
BRANCH  13  16
HETATM   16  C11 UNL     1      31.923  11.720 109.724  1.00  0.00     0.186 C 
HETATM   17  C12 UNL     1      31.377  12.559 108.563  1.00  0.00     0.033 C 
HETATM   18  C13 UNL     1      30.230  12.932 109.477  1.00  0.00     0.004 C 
HETATM   19  C14 UNL     1      31.220  12.688 110.632  1.00  0.00     0.033 C 
ENDBRANCH  13  16
ENDBRANCH   1  13
TORSDOF 7
ENDMDL
MODEL 3
REMARK VINA RESULT: -7.160055038      0.902      1.163
REMARK  7 active torsions:
REMARK  status: ('A' for Active; 'I' for Inactive)
REMARK    1  A    between atoms: C2_2  and  C3_3 
REMARK    2  A    between atoms: C3_3  and  O1_4 
REMARK    3  A    between atoms: C3_3  and  C4_6 
REMARK    4  A    between atoms: C4_6  and  C5_7 
REMARK    5  A    between atoms: C4_6  and  N1_13 
REMARK    6  A    between atoms: C5_7  and  C6_8 
REMARK    7  A    between atoms: N1_13  and  C11_16 
ROOT
HETATM    1  C4  UNL     1      33.183  10.518 107.788  1.00  0.00     0.218 C 
ENDROOT
BRANCH   1   2
HETATM    2  C3  UNL     1      34.422  10.945 106.987  1.00  0.00     0.170 C 
BRANCH   2   3
HETATM    3  C2  UNL     1      35.019   9.822 106.246  1.00  0.00    -0.004 C 
HETATM    4  C1  UNL     1      36.291   9.469 106.466  1.00  0.00     0.009 C 
ENDBRANCH   2   3
BRANCH   2   5
HETATM    5  O1  UNL     1      35.344  11.516 107.899  1.00  0.00    -0.390 OA
ATOM      6  H1  UNL     1      34.907  12.064 108.540  1.00  0.00     0.210 HD
ENDBRANCH   2   5
ENDBRANCH   1   2
BRANCH   1   7
HETATM    7  C5  UNL     1      32.884   9.102 107.466  1.00  0.00     0.040 C 
BRANCH   7   8
HETATM    8  C6  UNL     1      33.070   8.096 108.545  1.00  0.00    -0.013 C 
HETATM    9  C7  UNL     1      33.365   6.717 108.152  1.00  0.00     0.005 C 
HETATM   10  C8  UNL     1      34.877   6.570 108.447  1.00  0.00     0.000 C 
HETATM   11  C9  UNL     1      34.963   7.262 109.788  1.00  0.00     0.000 C 
HETATM   12  C10 UNL     1      34.164   8.533 109.506  1.00  0.00     0.005 C 
ENDBRANCH   7   8
ENDBRANCH   1   7
BRANCH   1  13
HETATM   13  N1  UNL     1      32.110  11.441 107.577  1.00  0.00    -0.064 N 
ATOM     14  H12 UNL     1      32.189  11.905 106.672  1.00  0.00     0.278 HD
ATOM     15  H11 UNL     1      31.224  10.958 107.428  1.00  0.00     0.278 HD
BRANCH  13  16
HETATM   16  C11 UNL     1      32.017  12.383 108.639  1.00  0.00     0.186 C 
HETATM   17  C12 UNL     1      32.240  11.778 110.030  1.00  0.00     0.033 C 
HETATM   18  C13 UNL     1      31.270  12.817 110.549  1.00  0.00     0.004 C 
HETATM   19  C14 UNL     1      30.659  12.790 109.135  1.00  0.00     0.033 C 
ENDBRANCH  13  16
ENDBRANCH   1  13
TORSDOF 7
ENDMDL
MODEL 4
REMARK VINA RESULT: -6.739420960      1.857      2.394
REMARK  7 active torsions:
REMARK  status: ('A' for Active; 'I' for Inactive)
REMARK    1  A    between atoms: C2_2  and  C3_3 
REMARK    2  A    between atoms: C3_3  and  O1_4 
REMARK    3  A    between atoms: C3_3  and  C4_6 
REMARK    4  A    between atoms: C4_6  and  C5_7 
REMARK    5  A    between atoms: C4_6  and  N1_13 
REMARK    6  A    between atoms: C5_7  and  C6_8 
REMARK    7  A    between atoms: N1_13  and  C11_16 
ROOT
HETATM    1  C4  UNL     1      33.973   9.416 106.574  1.00  0.00     0.218 C 
ENDROOT
BRANCH   1   2
HETATM    2  C3  UNL     1      35.261   8.908 105.909  1.00  0.00     0.170 C 
BRANCH   2   3
HETATM    3  C2  UNL     1      36.465   9.295 106.662  1.00  0.00    -0.004 C 
HETATM    4  C1  UNL     1      37.222  10.317 106.246  1.00  0.00     0.009 C 
ENDBRANCH   2   3
BRANCH   2   5
HETATM    5  O1  UNL     1      35.288   9.418 104.587  1.00  0.00    -0.390 OA
ATOM      6  H1  UNL     1      34.419   9.438 104.202  1.00  0.00     0.210 HD
ENDBRANCH   2   5
ENDBRANCH   1   2
BRANCH   1   7
HETATM    7  C5  UNL     1      33.049   8.267 106.740  1.00  0.00     0.040 C 
BRANCH   7   8
HETATM    8  C6  UNL     1      33.105   7.517 108.021  1.00  0.00    -0.013 C 
HETATM    9  C7  UNL     1      33.886   6.280 108.057  1.00  0.00     0.005 C 
HETATM   10  C8  UNL     1      35.171   6.682 108.819  1.00  0.00     0.000 C 
HETATM   11  C9  UNL     1      34.580   7.518 109.932  1.00  0.00     0.000 C 
HETATM   12  C10 UNL     1      33.620   8.406 109.143  1.00  0.00     0.005 C 
ENDBRANCH   7   8
ENDBRANCH   1   7
BRANCH   1  13
HETATM   13  N1  UNL     1      33.447  10.535 105.854  1.00  0.00    -0.064 N 
ATOM     14  H12 UNL     1      34.062  10.808 105.088  1.00  0.00     0.278 HD
ATOM     15  H11 UNL     1      32.624  10.276 105.309  1.00  0.00     0.278 HD
BRANCH  13  16
HETATM   16  C11 UNL     1      33.175  11.630 106.720  1.00  0.00     0.186 C 
HETATM   17  C12 UNL     1      34.140  11.742 107.906  1.00  0.00     0.033 C 
HETATM   18  C13 UNL     1      32.980  12.310 108.694  1.00  0.00     0.004 C 
HETATM   19  C14 UNL     1      32.082  11.497 107.741  1.00  0.00     0.033 C 
ENDBRANCH  13  16
ENDBRANCH   1  13
TORSDOF 7
ENDMDL
MODEL 5
REMARK VINA RESULT: -6.630142103      1.026      4.989
REMARK  7 active torsions:
REMARK  status: ('A' for Active; 'I' for Inactive)
REMARK    1  A    between atoms: C2_2  and  C3_3 
REMARK    2  A    between atoms: C3_3  and  O1_4 
REMARK    3  A    between atoms: C3_3  and  C4_6 
REMARK    4  A    between atoms: C4_6  and  C5_7 
REMARK    5  A    between atoms: C4_6  and  N1_13 
REMARK    6  A    between atoms: C5_7  and  C6_8 
REMARK    7  A    between atoms: N1_13  and  C11_16 
ROOT
HETATM    1  C4  UNL     1      33.524  10.882 108.252  1.00  0.00     0.218 C 
ENDROOT
BRANCH   1   2
HETATM    2  C3  UNL     1      34.646  11.435 107.361  1.00  0.00     0.170 C 
BRANCH   2   3
HETATM    3  C2  UNL     1      35.758  10.482 107.211  1.00  0.00    -0.004 C 
HETATM    4  C1  UNL     1      35.837   9.704 106.125  1.00  0.00     0.009 C 
ENDBRANCH   2   3
BRANCH   2   5
HETATM    5  O1  UNL     1      35.082  12.657 107.932  1.00  0.00    -0.390 OA
ATOM      6  H1  UNL     1      34.351  13.232 108.126  1.00  0.00     0.210 HD
ENDBRANCH   2   5
ENDBRANCH   1   2
BRANCH   1   7
HETATM    7  C5  UNL     1      32.782  12.026 108.833  1.00  0.00     0.040 C 
BRANCH   7   8
HETATM    8  C6  UNL     1      31.299  11.932 108.884  1.00  0.00    -0.013 C 
HETATM    9  C7  UNL     1      30.622  12.427 110.083  1.00  0.00     0.005 C 
HETATM   10  C8  UNL     1      30.017  13.777 109.630  1.00  0.00     0.000 C 
HETATM   11  C9  UNL     1      29.478  13.392 108.270  1.00  0.00     0.000 C 
HETATM   12  C10 UNL     1      30.674  12.639 107.691  1.00  0.00     0.005 C 
ENDBRANCH   7   8
ENDBRANCH   1   7
BRANCH   1  13
HETATM   13  N1  UNL     1      34.053   9.943 109.194  1.00  0.00    -0.064 N 
ATOM     14  H12 UNL     1      35.054   9.805 109.061  1.00  0.00     0.278 HD
ATOM     15  H11 UNL     1      34.072  10.331 110.138  1.00  0.00     0.278 HD
BRANCH  13  16
HETATM   16  C11 UNL     1      33.346   8.709 109.152  1.00  0.00     0.186 C 
HETATM   17  C12 UNL     1      34.211   7.484 109.468  1.00  0.00     0.033 C 
HETATM   18  C13 UNL     1      33.322   6.712 108.516  1.00  0.00     0.004 C 
HETATM   19  C14 UNL     1      33.081   8.066 107.821  1.00  0.00     0.033 C 
ENDBRANCH  13  16
ENDBRANCH   1  13
TORSDOF 7
ENDMDL
