MODEL 1
REMARK VINA RESULT: -7.194625181      0.000      0.000
REMARK  7 active torsions:
REMARK  status: ('A' for Active; 'I' for Inactive)
REMARK    1  A    between atoms: C2_2  and  C3_3 
REMARK    2  A    between atoms: C3_3  and  C4_4 
REMARK    3  A    between atoms: C4_4  and  O1_5 
REMARK    4  A    between atoms: C4_4  and  C5_7 
REMARK    5  A    between atoms: C5_7  and  C6_8 
REMARK    6  A    between atoms: C5_7  and  N1_10 
REMARK    7  A    between atoms: N1_10  and  C8_12 
ROOT
HETATM    1  C5  UNL     1      33.048  10.638 108.090  1.00  0.00     0.105 C 
ENDROOT
BRANCH   1   2
HETATM    2  C4  UNL     1      33.120  11.916 108.856  1.00  0.00     0.143 C 
BRANCH   2   3
HETATM    3  C3  UNL     1      31.788  12.627 108.994  1.00  0.00     0.060 C 
BRANCH   3   4
HETATM    4  C2  UNL     1      31.368  12.607 110.412  1.00  0.00    -0.034 C 
HETATM    5  C1  UNL     1      30.072  12.544 110.724  1.00  0.00     0.007 C 
ENDBRANCH   3   4
ENDBRANCH   2   3
BRANCH   2   6
HETATM    6  O1  UNL     1      34.161  12.710 108.475  1.00  0.00    -0.393 OA
ATOM      7  H1  UNL     1      34.533  13.245 109.167  1.00  0.00     0.210 HD
ENDBRANCH   2   6
ENDBRANCH   1   2
BRANCH   1   8
HETATM    8  C6  UNL     1      32.425  10.775 106.738  1.00  0.00     0.023 C 
HETATM    9  C7  UNL     1      33.379  10.803 105.592  1.00  0.00     0.007 C 
ENDBRANCH   1   8
BRANCH   1  10
HETATM   10  N1  UNL     1      34.400  10.118 108.026  1.00  0.00    -0.410 N 
ATOM     11  H1  UNL     1      35.168  10.656 107.625  1.00  0.00     0.154 HD
BRANCH  10  12
HETATM   12  C8  UNL     1      34.589   8.825 108.552  1.00  0.00     0.081 C 
HETATM   13  C9  UNL     1      33.313   8.146 109.005  1.00  0.00     0.029 C 
HETATM   14  C10 UNL     1      33.470   6.695 108.634  1.00  0.00    -0.012 C 
HETATM   15  C11 UNL     1      33.135   6.585 107.170  1.00  0.00     0.005 C 
HETATM   16  C14 UNL     1      34.998   6.570 108.565  1.00  0.00     0.011 C 
HETATM   17  C12 UNL     1      34.258   7.376 106.519  1.00  0.00     0.007 C 
HETATM   18  C13 UNL     1      35.183   7.795 107.636  1.00  0.00     0.008 C 
ENDBRANCH  10  12
ENDBRANCH   1  10
TORSDOF 7
ENDMDL
MODEL 2
REMARK VINA RESULT: -7.141979295      0.916      1.794
REMARK  7 active torsions:
REMARK  status: ('A' for Active; 'I' for Inactive)
REMARK    1  A    between atoms: C2_2  and  C3_3 
REMARK    2  A    between atoms: C3_3  and  C4_4 
REMARK    3  A    between atoms: C4_4  and  O1_5 
REMARK    4  A    between atoms: C4_4  and  C5_7 
REMARK    5  A    between atoms: C5_7  and  C6_8 
REMARK    6  A    between atoms: C5_7  and  N1_10 
REMARK    7  A    between atoms: N1_10  and  C8_12 
ROOT
HETATM    1  C5  UNL     1      33.122  10.736 107.526  1.00  0.00     0.105 C 
ENDROOT
BRANCH   1   2
HETATM    2  C4  UNL     1      33.570  11.523 108.711  1.00  0.00     0.143 C 
BRANCH   2   3
HETATM    3  C3  UNL     1      32.640  11.424 109.904  1.00  0.00     0.060 C 
BRANCH   3   4
HETATM    4  C2  UNL     1      31.784  12.629 109.958  1.00  0.00    -0.034 C 
HETATM    5  C1  UNL     1      30.564  12.558 110.495  1.00  0.00     0.007 C 
ENDBRANCH   3   4
ENDBRANCH   2   3
BRANCH   2   6
HETATM    6  O1  UNL     1      33.969  12.788 108.393  1.00  0.00    -0.393 OA
ATOM      7  H1  UNL     1      34.122  12.941 107.468  1.00  0.00     0.210 HD
ENDBRANCH   2   6
ENDBRANCH   1   2
BRANCH   1   8
HETATM    8  C6  UNL     1      32.698  11.576 106.365  1.00  0.00     0.023 C 
HETATM    9  C7  UNL     1      31.248  11.924 106.321  1.00  0.00     0.007 C 
ENDBRANCH   1   8
BRANCH   1  10
HETATM   10  N1  UNL     1      34.209   9.836 107.192  1.00  0.00    -0.410 N 
ATOM     11  H1  UNL     1      35.136  10.178 106.941  1.00  0.00     0.154 HD
BRANCH  10  12
HETATM   12  C8  UNL     1      33.907   8.461 107.235  1.00  0.00     0.081 C 
HETATM   13  C9  UNL     1      35.089   7.556 106.953  1.00  0.00     0.029 C 
HETATM   14  C10 UNL     1      34.926   6.376 107.875  1.00  0.00    -0.012 C 
HETATM   15  C11 UNL     1      35.441   6.807 109.222  1.00  0.00     0.005 C 
HETATM   16  C14 UNL     1      33.416   6.416 108.144  1.00  0.00     0.011 C 
HETATM   17  C12 UNL     1      34.441   7.878 109.626  1.00  0.00     0.007 C 
HETATM   18  C13 UNL     1      33.397   7.914 108.536  1.00  0.00     0.008 C 
ENDBRANCH  10  12
ENDBRANCH   1  10
TORSDOF 7
ENDMDL
MODEL 3
REMARK VINA RESULT: -6.896191509      1.258      1.819
REMARK  7 active torsions:
REMARK  status: ('A' for Active; 'I' for Inactive)
REMARK    1  A    between atoms: C2_2  and  C3_3 
REMARK    2  A    between atoms: C3_3  and  C4_4 
REMARK    3  A    between atoms: C4_4  and  O1_5 
REMARK    4  A    between atoms: C4_4  and  C5_7 
REMARK    5  A    between atoms: C5_7  and  C6_8 
REMARK    6  A    between atoms: C5_7  and  N1_10 
REMARK    7  A    between atoms: N1_10  and  C8_12 
ROOT
HETATM    1  C5  UNL     1      34.416  10.581 107.803  1.00  0.00     0.105 C 
ENDROOT
BRANCH   1   2
HETATM    2  C4  UNL     1      33.861  11.743 108.556  1.00  0.00     0.143 C 
BRANCH   2   3
HETATM    3  C3  UNL     1      32.354  11.873 108.466  1.00  0.00     0.060 C 
BRANCH   3   4
HETATM    4  C2  UNL     1      31.772  11.767 109.821  1.00  0.00    -0.034 C 
HETATM    5  C1  UNL     1      31.273  12.850 110.421  1.00  0.00     0.007 C 
ENDBRANCH   3   4
ENDBRANCH   2   3
BRANCH   2   6
HETATM    6  O1  UNL     1      34.554  12.898 108.343  1.00  0.00    -0.393 OA
ATOM      7  H1  UNL     1      34.114  13.535 107.792  1.00  0.00     0.210 HD
ENDBRANCH   2   6
ENDBRANCH   1   2
BRANCH   1   8
HETATM    8  C6  UNL     1      35.749  10.842 107.180  1.00  0.00     0.023 C 
HETATM    9  C7  UNL     1      36.362   9.682 106.469  1.00  0.00     0.007 C 
ENDBRANCH   1   8
BRANCH   1  10
HETATM   10  N1  UNL     1      34.444   9.465 108.728  1.00  0.00    -0.410 N 
ATOM     11  H1  UNL     1      35.058   9.453 109.542  1.00  0.00     0.154 HD
BRANCH  10  12
HETATM   12  C8  UNL     1      33.573   8.397 108.434  1.00  0.00     0.081 C 
HETATM   13  C9  UNL     1      33.196   8.288 106.971  1.00  0.00     0.029 C 
HETATM   14  C10 UNL     1      33.139   6.812 106.675  1.00  0.00    -0.012 C 
HETATM   15  C11 UNL     1      34.559   6.362 106.453  1.00  0.00     0.005 C 
HETATM   16  C14 UNL     1      32.896   6.238 108.077  1.00  0.00     0.011 C 
HETATM   17  C12 UNL     1      35.181   6.557 107.826  1.00  0.00     0.007 C 
HETATM   18  C13 UNL     1      34.065   7.012 108.735  1.00  0.00     0.008 C 
ENDBRANCH  10  12
ENDBRANCH   1  10
TORSDOF 7
ENDMDL
MODEL 4
REMARK VINA RESULT: -6.860318067      1.554      2.811
REMARK  7 active torsions:
REMARK  status: ('A' for Active; 'I' for Inactive)
REMARK    1  A    between atoms: C2_2  and  C3_3 
REMARK    2  A    between atoms: C3_3  and  C4_4 
REMARK    3  A    between atoms: C4_4  and  O1_5 
REMARK    4  A    between atoms: C4_4  and  C5_7 
REMARK    5  A    between atoms: C5_7  and  C6_8 
REMARK    6  A    between atoms: C5_7  and  N1_10 
REMARK    7  A    between atoms: N1_10  and  C8_12 
ROOT
HETATM    1  C5  UNL     1      33.118  10.572 108.159  1.00  0.00     0.105 C 
ENDROOT
BRANCH   1   2
HETATM    2  C4  UNL     1      32.914  11.772 107.298  1.00  0.00     0.143 C 
BRANCH   2   3
HETATM    3  C3  UNL     1      31.868  11.585 106.217  1.00  0.00     0.060 C 
BRANCH   3   4
HETATM    4  C2  UNL     1      30.658  12.360 106.568  1.00  0.00    -0.034 C 
HETATM    5  C1  UNL     1      29.768  12.673 105.624  1.00  0.00     0.007 C 
ENDBRANCH   3   4
ENDBRANCH   2   3
BRANCH   2   6
HETATM    6  O1  UNL     1      34.084  12.333 106.877  1.00  0.00    -0.393 OA
ATOM      7  H1  UNL     1      34.560  12.816 107.542  1.00  0.00     0.210 HD
ENDBRANCH   2   6
ENDBRANCH   1   2
BRANCH   1   8
HETATM    8  C6  UNL     1      32.429  10.651 109.483  1.00  0.00     0.023 C 
HETATM    9  C7  UNL     1      32.089  12.028 109.947  1.00  0.00     0.007 C 
ENDBRANCH   1   8
BRANCH   1  10
HETATM   10  N1  UNL     1      32.692   9.426 107.380  1.00  0.00    -0.410 N 
ATOM     11  H1  UNL     1      31.773   9.383 106.940  1.00  0.00     0.154 HD
BRANCH  10  12
HETATM   12  C8  UNL     1      33.624   8.376 107.267  1.00  0.00     0.081 C 
HETATM   13  C9  UNL     1      35.005   8.711 107.794  1.00  0.00     0.029 C 
HETATM   14  C10 UNL     1      35.504   7.453 108.456  1.00  0.00    -0.012 C 
HETATM   15  C11 UNL     1      34.876   7.407 109.823  1.00  0.00     0.005 C 
HETATM   16  C14 UNL     1      34.661   6.388 107.742  1.00  0.00     0.011 C 
HETATM   17  C12 UNL     1      33.401   7.231 109.499  1.00  0.00     0.007 C 
HETATM   18  C13 UNL     1      33.311   7.103 107.998  1.00  0.00     0.008 C 
ENDBRANCH  10  12
ENDBRANCH   1  10
TORSDOF 7
ENDMDL
MODEL 5
REMARK VINA RESULT: -6.706924834      1.425      1.617
REMARK  7 active torsions:
REMARK  status: ('A' for Active; 'I' for Inactive)
REMARK    1  A    between atoms: C2_2  and  C3_3 
REMARK    2  A    between atoms: C3_3  and  C4_4 
REMARK    3  A    between atoms: C4_4  and  O1_5 
REMARK    4  A    between atoms: C4_4  and  C5_7 
REMARK    5  A    between atoms: C5_7  and  C6_8 
REMARK    6  A    between atoms: C5_7  and  N1_10 
REMARK    7  A    between atoms: N1_10  and  C8_12 
ROOT
HETATM    1  C5  UNL     1      34.592  11.193 107.116  1.00  0.00     0.105 C 
ENDROOT
BRANCH   1   2
HETATM    2  C4  UNL     1      34.070  11.966 108.280  1.00  0.00     0.143 C 
BRANCH   2   3
HETATM    3  C3  UNL     1      32.558  12.063 108.327  1.00  0.00     0.060 C 
BRANCH   3   4
HETATM    4  C2  UNL     1      32.100  11.893 109.724  1.00  0.00    -0.034 C 
HETATM    5  C1  UNL     1      31.415  12.866 110.326  1.00  0.00     0.007 C 
ENDBRANCH   3   4
ENDBRANCH   2   3
BRANCH   2   6
HETATM    6  O1  UNL     1      34.730  13.143 108.480  1.00  0.00    -0.393 OA
ATOM      7  H1  UNL     1      34.218  13.925 108.310  1.00  0.00     0.210 HD
ENDBRANCH   2   6
ENDBRANCH   1   2
BRANCH   1   8
HETATM    8  C6  UNL     1      36.081  11.068 107.090  1.00  0.00     0.023 C 
HETATM    9  C7  UNL     1      36.625  10.106 106.087  1.00  0.00     0.007 C 
ENDBRANCH   1   8
BRANCH   1  10
HETATM   10  N1  UNL     1      33.927   9.905 107.144  1.00  0.00    -0.410 N 
ATOM     11  H1  UNL     1      33.348   9.579 106.371  1.00  0.00     0.154 HD
BRANCH  10  12
HETATM   12  C8  UNL     1      34.130   9.130 108.303  1.00  0.00     0.081 C 
HETATM   13  C9  UNL     1      32.868   8.505 108.862  1.00  0.00     0.029 C 
HETATM   14  C10 UNL     1      33.274   7.141 109.356  1.00  0.00    -0.012 C 
HETATM   15  C11 UNL     1      33.316   6.240 108.151  1.00  0.00     0.005 C 
HETATM   16  C14 UNL     1      34.778   7.345 109.585  1.00  0.00     0.011 C 
HETATM   17  C12 UNL     1      34.465   6.825 107.346  1.00  0.00     0.007 C 
HETATM   18  C13 UNL     1      35.040   7.944 108.181  1.00  0.00     0.008 C 
ENDBRANCH  10  12
ENDBRANCH   1  10
TORSDOF 7
ENDMDL
