MODEL 1
REMARK VINA RESULT: -6.407131099      0.000      0.000
REMARK  8 active torsions:
REMARK  status: ('A' for Active; 'I' for Inactive)
REMARK    1  A    between atoms: N1_1  and  N2_4 
REMARK    2  A    between atoms: N2_4  and  N3_5 
REMARK    3  A    between atoms: N3_5  and  C1_7 
REMARK    4  A    between atoms: C1_7  and  C2_8 
REMARK    5  A    between atoms: C2_8  and  O1_9 
REMARK    6  A    between atoms: C2_8  and  N4_11 
REMARK    7  A    between atoms: N4_11  and  C3_13 
REMARK    8  A    between atoms: C9_19  and  O2_20 
ROOT
HETATM    1  N4  UNL     1      15.535  17.512  22.146  1.00  0.00    -0.388 N 
ATOM      2  H4  UNL     1      16.086  18.310  21.828  1.00  0.00     0.156 HD
ENDROOT
BRANCH   1   3
HETATM    3  C2  UNL     1      15.301  17.405  23.501  1.00  0.00     0.234 C 
BRANCH   3   4
HETATM    4  C1  UNL     1      14.345  16.313  23.958  1.00  0.00     0.208 C 
BRANCH   4   5
HETATM    5  N3  UNL     1      13.098  16.854  24.470  1.00  0.00    -0.248 N 
ATOM      6  H3  UNL     1      12.994  16.968  25.478  1.00  0.00     0.197 HD
BRANCH   5   7
HETATM    7  N2  UNL     1      12.165  17.180  23.742  1.00  0.00    -0.248 NA
BRANCH   7   8
HETATM    8  N1  UNL     1      11.431  17.502  22.794  1.00  0.00    -0.261 N 
ATOM      9  H12 UNL     1      12.229  17.731  22.202  1.00  0.00     0.193 HD
ATOM     10  H11 UNL     1      10.649  17.706  22.171  1.00  0.00     0.193 HD
ENDBRANCH   7   8
ENDBRANCH   5   7
ENDBRANCH   4   5
ENDBRANCH   3   4
BRANCH   3  11
HETATM   11  O1  UNL     1      15.024  18.610  24.178  1.00  0.00    -0.375 OA
ATOM     12  H1  UNL     1      14.363  19.105  23.710  1.00  0.00     0.212 HD
ENDBRANCH   3  11
ENDBRANCH   1   3
BRANCH   1  13
HETATM   13  C3  UNL     1      15.085  16.632  21.186  1.00  0.00     0.112 C 
HETATM   14  C4  UNL     1      16.184  16.539  20.111  1.00  0.00     0.011 C 
HETATM   15  C5  UNL     1      15.841  15.524  19.067  1.00  0.00     0.007 C 
HETATM   16  C8  UNL     1      15.836  17.830  19.345  1.00  0.00     0.014 C 
HETATM   17  C6  UNL     1      14.721  16.142  18.211  1.00  0.00     0.007 C 
HETATM   18  C7  UNL     1      14.398  17.377  19.027  1.00  0.00     0.017 C 
HETATM   19  C9  UNL     1      13.907  16.923  20.368  1.00  0.00     0.145 C 
BRANCH  19  20
HETATM   20  O2  UNL     1      13.201  15.714  20.154  1.00  0.00    -0.393 OA
ATOM     21  H2  UNL     1      12.849  15.725  19.271  1.00  0.00     0.210 HD
ENDBRANCH  19  20
ENDBRANCH   1  13
TORSDOF 8
ENDMDL
MODEL 2
REMARK VINA RESULT: -6.126865046      1.476      2.038
REMARK  8 active torsions:
REMARK  status: ('A' for Active; 'I' for Inactive)
REMARK    1  A    between atoms: N1_1  and  N2_4 
REMARK    2  A    between atoms: N2_4  and  N3_5 
REMARK    3  A    between atoms: N3_5  and  C1_7 
REMARK    4  A    between atoms: C1_7  and  C2_8 
REMARK    5  A    between atoms: C2_8  and  O1_9 
REMARK    6  A    between atoms: C2_8  and  N4_11 
REMARK    7  A    between atoms: N4_11  and  C3_13 
REMARK    8  A    between atoms: C9_19  and  O2_20 
ROOT
HETATM    1  N4  UNL     1      14.794  16.775  21.935  1.00  0.00    -0.388 N 
ATOM      2  H4  UNL     1      14.035  16.149  21.664  1.00  0.00     0.156 HD
ENDROOT
BRANCH   1   3
HETATM    3  C2  UNL     1      15.077  16.879  23.282  1.00  0.00     0.234 C 
BRANCH   3   4
HETATM    4  C1  UNL     1      14.157  16.145  24.246  1.00  0.00     0.208 C 
BRANCH   4   5
HETATM    5  N3  UNL     1      12.988  16.932  24.596  1.00  0.00    -0.248 N 
ATOM      6  H3  UNL     1      12.879  17.238  25.563  1.00  0.00     0.197 HD
BRANCH   5   7
HETATM    7  N2  UNL     1      12.126  17.244  23.780  1.00  0.00    -0.248 NA
BRANCH   7   8
HETATM    8  N1  UNL     1      11.469  17.500  22.757  1.00  0.00    -0.261 N 
ATOM      9  H12 UNL     1      10.713  16.876  23.039  1.00  0.00     0.193 HD
ATOM     10  H11 UNL     1      11.122  17.854  21.866  1.00  0.00     0.193 HD
ENDBRANCH   7   8
ENDBRANCH   5   7
ENDBRANCH   4   5
ENDBRANCH   3   4
BRANCH   3  11
HETATM   11  O1  UNL     1      15.345  18.178  23.758  1.00  0.00    -0.375 OA
ATOM     12  H1  UNL     1      14.536  18.617  23.988  1.00  0.00     0.212 HD
ENDBRANCH   3  11
ENDBRANCH   1   3
BRANCH   1  13
HETATM   13  C3  UNL     1      15.452  17.445  20.928  1.00  0.00     0.112 C 
HETATM   14  C4  UNL     1      14.704  17.136  19.618  1.00  0.00     0.011 C 
HETATM   15  C5  UNL     1      15.278  17.903  18.468  1.00  0.00     0.007 C 
HETATM   16  C8  UNL     1      15.324  15.752  19.345  1.00  0.00     0.014 C 
HETATM   17  C6  UNL     1      16.626  17.240  18.134  1.00  0.00     0.007 C 
HETATM   18  C7  UNL     1      16.767  16.291  19.307  1.00  0.00     0.017 C 
HETATM   19  C9  UNL     1      16.829  17.114  20.557  1.00  0.00     0.145 C 
BRANCH  19  20
HETATM   20  O2  UNL     1      17.502  18.314  20.220  1.00  0.00    -0.393 OA
ATOM     21  H2  UNL     1      17.660  18.804  21.019  1.00  0.00     0.210 HD
ENDBRANCH  19  20
ENDBRANCH   1  13
TORSDOF 8
ENDMDL
MODEL 3
REMARK VINA RESULT: -6.101745796      3.185      4.979
REMARK  8 active torsions:
REMARK  status: ('A' for Active; 'I' for Inactive)
REMARK    1  A    between atoms: N1_1  and  N2_4 
REMARK    2  A    between atoms: N2_4  and  N3_5 
REMARK    3  A    between atoms: N3_5  and  C1_7 
REMARK    4  A    between atoms: C1_7  and  C2_8 
REMARK    5  A    between atoms: C2_8  and  O1_9 
REMARK    6  A    between atoms: C2_8  and  N4_11 
REMARK    7  A    between atoms: N4_11  and  C3_13 
REMARK    8  A    between atoms: C9_19  and  O2_20 
ROOT
HETATM    1  N4  UNL     1      16.376  16.661  20.676  1.00  0.00    -0.388 N 
ATOM      2  H4  UNL     1      15.889  16.367  21.522  1.00  0.00     0.156 HD
ENDROOT
BRANCH   1   3
HETATM    3  C2  UNL     1      17.570  17.335  20.836  1.00  0.00     0.234 C 
BRANCH   3   4
HETATM    4  C1  UNL     1      18.384  17.617  19.582  1.00  0.00     0.208 C 
BRANCH   4   5
HETATM    5  N3  UNL     1      19.797  17.785  19.871  1.00  0.00    -0.248 N 
ATOM      6  H3  UNL     1      20.176  18.731  19.915  1.00  0.00     0.197 HD
BRANCH   5   7
HETATM    7  N2  UNL     1      20.555  16.839  20.065  1.00  0.00    -0.248 NA
BRANCH   7   8
HETATM    8  N1  UNL     1      21.074  15.722  20.217  1.00  0.00    -0.261 N 
ATOM      9  H12 UNL     1      20.422  15.476  20.962  1.00  0.00     0.193 HD
ATOM     10  H11 UNL     1      21.648  14.880  20.160  1.00  0.00     0.193 HD
ENDBRANCH   7   8
ENDBRANCH   5   7
ENDBRANCH   4   5
ENDBRANCH   3   4
BRANCH   3  11
HETATM   11  O1  UNL     1      18.410  16.868  21.867  1.00  0.00    -0.375 OA
ATOM     12  H1  UNL     1      17.912  16.749  22.667  1.00  0.00     0.212 HD
ENDBRANCH   3  11
ENDBRANCH   1   3
BRANCH   1  13
HETATM   13  C3  UNL     1      15.789  16.354  19.468  1.00  0.00     0.112 C 
HETATM   14  C4  UNL     1      14.662  17.379  19.242  1.00  0.00     0.011 C 
HETATM   15  C5  UNL     1      14.023  17.199  17.902  1.00  0.00     0.007 C 
HETATM   16  C8  UNL     1      13.595  16.715  20.133  1.00  0.00     0.014 C 
HETATM   17  C6  UNL     1      13.168  15.923  17.997  1.00  0.00     0.007 C 
HETATM   18  C7  UNL     1      13.610  15.392  19.345  1.00  0.00     0.017 C 
HETATM   19  C9  UNL     1      15.076  15.092  19.260  1.00  0.00     0.145 C 
BRANCH  19  20
HETATM   20  O2  UNL     1      15.325  14.651  17.938  1.00  0.00    -0.393 OA
ATOM     21  H2  UNL     1      16.240  14.808  17.736  1.00  0.00     0.210 HD
ENDBRANCH  19  20
ENDBRANCH   1  13
TORSDOF 8
ENDMDL
MODEL 4
REMARK VINA RESULT: -5.963132520      1.993      2.787
REMARK  8 active torsions:
REMARK  status: ('A' for Active; 'I' for Inactive)
REMARK    1  A    between atoms: N1_1  and  N2_4 
REMARK    2  A    between atoms: N2_4  and  N3_5 
REMARK    3  A    between atoms: N3_5  and  C1_7 
REMARK    4  A    between atoms: C1_7  and  C2_8 
REMARK    5  A    between atoms: C2_8  and  O1_9 
REMARK    6  A    between atoms: C2_8  and  N4_11 
REMARK    7  A    between atoms: N4_11  and  C3_13 
REMARK    8  A    between atoms: C9_19  and  O2_20 
ROOT
HETATM    1  N4  UNL     1      13.276  16.431  21.374  1.00  0.00    -0.388 N 
ATOM      2  H4  UNL     1      12.741  15.616  21.077  1.00  0.00     0.156 HD
ENDROOT
BRANCH   1   3
HETATM    3  C2  UNL     1      12.992  16.957  22.618  1.00  0.00     0.234 C 
BRANCH   3   4
HETATM    4  C1  UNL     1      13.376  16.123  23.831  1.00  0.00     0.208 C 
BRANCH   4   5
HETATM    5  N3  UNL     1      14.693  16.466  24.337  1.00  0.00    -0.248 N 
ATOM      6  H3  UNL     1      14.944  16.171  25.281  1.00  0.00     0.197 HD
BRANCH   5   7
HETATM    7  N2  UNL     1      15.517  17.096  23.680  1.00  0.00    -0.248 NA
BRANCH   7   8
HETATM    8  N1  UNL     1      16.535  17.654  23.238  1.00  0.00    -0.261 N 
ATOM      9  H12 UNL     1      16.002  18.143  22.518  1.00  0.00     0.193 HD
ATOM     10  H11 UNL     1      17.481  17.987  23.054  1.00  0.00     0.193 HD
ENDBRANCH   7   8
ENDBRANCH   5   7
ENDBRANCH   4   5
ENDBRANCH   3   4
BRANCH   3  11
HETATM   11  O1  UNL     1      11.697  17.489  22.782  1.00  0.00    -0.375 OA
ATOM     12  H1  UNL     1      11.549  17.719  23.691  1.00  0.00     0.212 HD
ENDBRANCH   3  11
ENDBRANCH   1   3
BRANCH   1  13
HETATM   13  C3  UNL     1      14.225  16.918  20.501  1.00  0.00     0.112 C 
HETATM   14  C4  UNL     1      13.571  16.965  19.108  1.00  0.00     0.011 C 
HETATM   15  C5  UNL     1      14.487  17.580  18.097  1.00  0.00     0.007 C 
HETATM   16  C8  UNL     1      13.743  15.478  18.745  1.00  0.00     0.014 C 
HETATM   17  C6  UNL     1      15.581  16.536  17.810  1.00  0.00     0.007 C 
HETATM   18  C7  UNL     1      15.276  15.513  18.885  1.00  0.00     0.017 C 
HETATM   19  C9  UNL     1      15.456  16.179  20.215  1.00  0.00     0.145 C 
BRANCH  19  20
HETATM   20  O2  UNL     1      16.512  17.111  20.063  1.00  0.00    -0.393 OA
ATOM     21  H2  UNL     1      16.961  16.925  19.247  1.00  0.00     0.210 HD
ENDBRANCH  19  20
ENDBRANCH   1  13
TORSDOF 8
ENDMDL
MODEL 5
REMARK VINA RESULT: -5.926162284      1.716      1.971
REMARK  8 active torsions:
REMARK  status: ('A' for Active; 'I' for Inactive)
REMARK    1  A    between atoms: N1_1  and  N2_4 
REMARK    2  A    between atoms: N2_4  and  N3_5 
REMARK    3  A    between atoms: N3_5  and  C1_7 
REMARK    4  A    between atoms: C1_7  and  C2_8 
REMARK    5  A    between atoms: C2_8  and  O1_9 
REMARK    6  A    between atoms: C2_8  and  N4_11 
REMARK    7  A    between atoms: N4_11  and  C3_13 
REMARK    8  A    between atoms: C9_19  and  O2_20 
ROOT
HETATM    1  N4  UNL     1      16.354  17.436  21.011  1.00  0.00    -0.388 N 
ATOM      2  H4  UNL     1      16.415  18.391  20.659  1.00  0.00     0.156 HD
ENDROOT
BRANCH   1   3
HETATM    3  C2  UNL     1      17.127  17.114  22.107  1.00  0.00     0.234 C 
BRANCH   3   4
HETATM    4  C1  UNL     1      16.684  17.660  23.456  1.00  0.00     0.208 C 
BRANCH   4   5
HETATM    5  N3  UNL     1      15.708  16.801  24.102  1.00  0.00    -0.248 N 
ATOM      6  H3  UNL     1      16.003  16.246  24.906  1.00  0.00     0.197 HD
BRANCH   5   7
HETATM    7  N2  UNL     1      14.543  16.711  23.723  1.00  0.00    -0.248 NA
BRANCH   7   8
HETATM    8  N1  UNL     1      13.378  16.358  23.482  1.00  0.00    -0.261 N 
ATOM      9  H12 UNL     1      13.228  17.144  22.849  1.00  0.00     0.193 HD
ATOM     10  H11 UNL     1      12.475  15.886  23.439  1.00  0.00     0.193 HD
ENDBRANCH   7   8
ENDBRANCH   5   7
ENDBRANCH   4   5
ENDBRANCH   3   4
BRANCH   3  11
HETATM   11  O1  UNL     1      18.519  17.273  21.951  1.00  0.00    -0.375 OA
ATOM     12  H1  UNL     1      18.984  16.712  22.560  1.00  0.00     0.212 HD
ENDBRANCH   3  11
ENDBRANCH   1   3
BRANCH   1  13
HETATM   13  C3  UNL     1      15.507  16.572  20.351  1.00  0.00     0.112 C 
HETATM   14  C4  UNL     1      16.031  16.443  18.908  1.00  0.00     0.011 C 
HETATM   15  C5  UNL     1      15.240  15.441  18.129  1.00  0.00     0.007 C 
HETATM   16  C8  UNL     1      15.429  17.745  18.349  1.00  0.00     0.014 C 
HETATM   17  C6  UNL     1      13.881  16.099  17.830  1.00  0.00     0.007 C 
HETATM   18  C7  UNL     1      13.981  17.343  18.688  1.00  0.00     0.017 C 
HETATM   19  C9  UNL     1      14.101  16.906  20.116  1.00  0.00     0.145 C 
BRANCH  19  20
HETATM   20  O2  UNL     1      13.334  15.723  20.244  1.00  0.00    -0.393 OA
ATOM     21  H2  UNL     1      12.761  15.653  19.489  1.00  0.00     0.210 HD
ENDBRANCH  19  20
ENDBRANCH   1  13
TORSDOF 8
ENDMDL
