MODEL 1
REMARK VINA RESULT: -6.071006156      0.000      0.000
REMARK  4 active torsions:
REMARK  status: ('A' for Active; 'I' for Inactive)
REMARK    1  A    between atoms: N1_1  and  C1_5 
REMARK    2  A    between atoms: C1_5  and  C2_6 
REMARK    3  A    between atoms: C1_5  and  C6_13 
REMARK       I    between atoms: C2_6  and  N2_8 
REMARK    4  A    between atoms: N2_8  and  C3_10 
ROOT
HETATM    1  C1  UNL     1      14.024  16.627  19.600  1.00  0.00     0.278 C 
ENDROOT
BRANCH   1   2
HETATM    2  N1  UNL     1      13.330  16.476  20.891  1.00  0.00    -0.066 N 
ATOM      3  H13 UNL     1      12.681  15.690  20.896  1.00  0.00     0.275 HD
ATOM      4  H12 UNL     1      13.951  16.150  21.632  1.00  0.00     0.275 HD
ATOM      5  H11 UNL     1      12.875  17.359  21.125  1.00  0.00     0.275 HD
ENDBRANCH   1   2
BRANCH   1   6
HETATM    6  C2  UNL     1      13.405  15.715  18.619  1.00  0.00     0.248 C 
HETATM    7  O1  UNL     1      13.233  14.498  18.822  1.00  0.00    -0.271 OA
HETATM    8  N2  UNL     1      12.977  16.232  17.375  1.00  0.00    -0.355 N 
ATOM      9  H2  UNL     1      13.110  17.227  17.194  1.00  0.00     0.162 HD
BRANCH   8  10
HETATM   10  C3  UNL     1      12.359  15.425  16.345  1.00  0.00     0.084 A 
HETATM   11  C4  UNL     1      11.634  16.264  15.274  1.00  0.00     0.027 A 
HETATM   12  C5  UNL     1      12.886  15.496  14.939  1.00  0.00     0.027 A 
ENDBRANCH   8  10
ENDBRANCH   1   6
BRANCH   1  13
HETATM   13  C6  UNL     1      15.473  16.349  19.888  1.00  0.00     0.025 C 
HETATM   14  C7  UNL     1      16.372  16.436  18.686  1.00  0.00     0.007 C 
HETATM   15  C8  UNL     1      16.464  17.889  18.270  1.00  0.00     0.000 C 
HETATM   16  C9  UNL     1      17.443  18.554  19.240  1.00  0.00     0.000 C 
HETATM   17  C10 UNL     1      17.312  17.912  20.580  1.00  0.00     0.000 C 
HETATM   18  C11 UNL     1      15.941  17.383  20.886  1.00  0.00     0.007 C 
ENDBRANCH   1  13
TORSDOF 4
ENDMDL
MODEL 2
REMARK VINA RESULT: -5.764576588      1.948      2.984
REMARK  4 active torsions:
REMARK  status: ('A' for Active; 'I' for Inactive)
REMARK    1  A    between atoms: N1_1  and  C1_5 
REMARK    2  A    between atoms: C1_5  and  C2_6 
REMARK    3  A    between atoms: C1_5  and  C6_13 
REMARK       I    between atoms: C2_6  and  N2_8 
REMARK    4  A    between atoms: N2_8  and  C3_10 
ROOT
HETATM    1  C1  UNL     1      13.593  15.983  17.221  1.00  0.00     0.278 C 
ENDROOT
BRANCH   1   2
HETATM    2  N1  UNL     1      14.770  15.723  16.374  1.00  0.00    -0.066 N 
ATOM      3  H13 UNL     1      15.594  16.237  16.683  1.00  0.00     0.275 HD
ATOM      4  H12 UNL     1      15.138  14.780  16.496  1.00  0.00     0.275 HD
ATOM      5  H11 UNL     1      14.527  15.923  15.404  1.00  0.00     0.275 HD
ENDBRANCH   1   2
BRANCH   1   6
HETATM    6  C2  UNL     1      12.395  16.050  16.362  1.00  0.00     0.248 C 
HETATM    7  O1  UNL     1      11.710  15.055  16.057  1.00  0.00    -0.271 OA
HETATM    8  N2  UNL     1      11.988  17.302  15.847  1.00  0.00    -0.355 N 
ATOM      9  H2  UNL     1      12.539  18.126  16.088  1.00  0.00     0.162 HD
BRANCH   8  10
HETATM   10  C3  UNL     1      10.831  17.478  14.997  1.00  0.00     0.084 A 
HETATM   11  C4  UNL     1       9.953  18.675  15.410  1.00  0.00     0.027 A 
HETATM   12  C5  UNL     1      10.737  18.697  14.124  1.00  0.00     0.027 A 
ENDBRANCH   8  10
ENDBRANCH   1   6
BRANCH   1  13
HETATM   13  C6  UNL     1      13.906  17.252  17.964  1.00  0.00     0.025 C 
HETATM   14  C7  UNL     1      13.830  17.129  19.461  1.00  0.00     0.007 C 
HETATM   15  C8  UNL     1      14.986  16.267  19.922  1.00  0.00     0.000 C 
HETATM   16  C9  UNL     1      16.226  17.165  19.906  1.00  0.00     0.000 C 
HETATM   17  C10 UNL     1      16.103  18.144  18.787  1.00  0.00     0.000 C 
HETATM   18  C11 UNL     1      15.320  17.647  17.608  1.00  0.00     0.007 C 
ENDBRANCH   1  13
TORSDOF 4
ENDMDL
MODEL 3
REMARK VINA RESULT: -5.692067740      2.401      5.193
REMARK  4 active torsions:
REMARK  status: ('A' for Active; 'I' for Inactive)
REMARK    1  A    between atoms: N1_1  and  C1_5 
REMARK    2  A    between atoms: C1_5  and  C2_6 
REMARK    3  A    between atoms: C1_5  and  C6_13 
REMARK       I    between atoms: C2_6  and  N2_8 
REMARK    4  A    between atoms: N2_8  and  C3_10 
ROOT
HETATM    1  C1  UNL     1      14.032  15.694  19.002  1.00  0.00     0.278 C 
ENDROOT
BRANCH   1   2
HETATM    2  N1  UNL     1      13.229  14.499  19.316  1.00  0.00    -0.066 N 
ATOM      3  H13 UNL     1      12.330  14.733  19.736  1.00  0.00     0.275 HD
ATOM      4  H12 UNL     1      12.878  14.035  18.479  1.00  0.00     0.275 HD
ATOM      5  H11 UNL     1      13.783  13.876  19.904  1.00  0.00     0.275 HD
ENDBRANCH   1   2
BRANCH   1   6
HETATM    6  C2  UNL     1      14.320  16.415  20.256  1.00  0.00     0.248 C 
HETATM    7  O1  UNL     1      15.279  17.198  20.397  1.00  0.00    -0.271 OA
HETATM    8  N2  UNL     1      13.472  16.220  21.372  1.00  0.00    -0.355 N 
ATOM      9  H2  UNL     1      12.683  15.582  21.272  1.00  0.00     0.162 HD
BRANCH   8  10
HETATM   10  C3  UNL     1      13.665  16.877  22.646  1.00  0.00     0.084 A 
HETATM   11  C4  UNL     1      12.359  17.035  23.448  1.00  0.00     0.027 A 
HETATM   12  C5  UNL     1      13.446  16.103  23.915  1.00  0.00     0.027 A 
ENDBRANCH   8  10
ENDBRANCH   1   6
BRANCH   1  13
HETATM   13  C6  UNL     1      13.222  16.470  18.002  1.00  0.00     0.025 C 
HETATM   14  C7  UNL     1      14.032  17.385  17.125  1.00  0.00     0.007 C 
HETATM   15  C8  UNL     1      14.855  16.530  16.184  1.00  0.00     0.000 C 
HETATM   16  C9  UNL     1      13.902  16.064  15.081  1.00  0.00     0.000 C 
HETATM   17  C10 UNL     1      12.541  15.874  15.661  1.00  0.00     0.000 C 
HETATM   18  C11 UNL     1      12.531  15.470  17.105  1.00  0.00     0.007 C 
ENDBRANCH   1  13
TORSDOF 4
ENDMDL
MODEL 4
REMARK VINA RESULT: -5.660889286      1.974      5.450
REMARK  4 active torsions:
REMARK  status: ('A' for Active; 'I' for Inactive)
REMARK    1  A    between atoms: N1_1  and  C1_5 
REMARK    2  A    between atoms: C1_5  and  C2_6 
REMARK    3  A    between atoms: C1_5  and  C6_13 
REMARK       I    between atoms: C2_6  and  N2_8 
REMARK    4  A    between atoms: N2_8  and  C3_10 
ROOT
HETATM    1  C1  UNL     1      15.208  15.539  18.054  1.00  0.00     0.278 C 
ENDROOT
BRANCH   1   2
HETATM    2  N1  UNL     1      14.987  14.285  18.795  1.00  0.00    -0.066 N 
ATOM      3  H13 UNL     1      14.886  14.437  19.798  1.00  0.00     0.275 HD
ATOM      4  H12 UNL     1      14.066  13.885  18.620  1.00  0.00     0.275 HD
ATOM      5  H11 UNL     1      15.742  13.635  18.573  1.00  0.00     0.275 HD
ENDBRANCH   1   2
BRANCH   1   6
HETATM    6  C2  UNL     1      16.050  16.432  18.873  1.00  0.00     0.248 C 
HETATM    7  O1  UNL     1      17.161  16.860  18.505  1.00  0.00    -0.271 OA
HETATM    8  N2  UNL     1      15.589  16.834  20.148  1.00  0.00    -0.355 N 
ATOM      9  H2  UNL     1      14.682  16.491  20.463  1.00  0.00     0.162 HD
BRANCH   8  10
HETATM   10  C3  UNL     1      16.337  17.705  21.028  1.00  0.00     0.084 A 
HETATM   11  C4  UNL     1      16.025  17.469  22.519  1.00  0.00     0.027 A 
HETATM   12  C5  UNL     1      17.371  17.114  21.945  1.00  0.00     0.027 A 
ENDBRANCH   8  10
ENDBRANCH   1   6
BRANCH   1  13
HETATM   13  C6  UNL     1      13.835  16.073  17.752  1.00  0.00     0.025 C 
HETATM   14  C7  UNL     1      13.779  17.005  16.573  1.00  0.00     0.007 C 
HETATM   15  C8  UNL     1      14.024  16.193  15.318  1.00  0.00     0.000 C 
HETATM   16  C9  UNL     1      12.709  15.474  15.007  1.00  0.00     0.000 C 
HETATM   17  C10 UNL     1      12.023  15.138  16.288  1.00  0.00     0.000 C 
HETATM   18  C11 UNL     1      12.948  14.890  17.443  1.00  0.00     0.007 C 
ENDBRANCH   1  13
TORSDOF 4
ENDMDL
MODEL 5
REMARK VINA RESULT: -5.658923162      1.768      2.611
REMARK  4 active torsions:
REMARK  status: ('A' for Active; 'I' for Inactive)
REMARK    1  A    between atoms: N1_1  and  C1_5 
REMARK    2  A    between atoms: C1_5  and  C2_6 
REMARK    3  A    between atoms: C1_5  and  C6_13 
REMARK       I    between atoms: C2_6  and  N2_8 
REMARK    4  A    between atoms: N2_8  and  C3_10 
ROOT
HETATM    1  C1  UNL     1      13.877  15.321  18.621  1.00  0.00     0.278 C 
ENDROOT
BRANCH   1   2
HETATM    2  N1  UNL     1      15.030  14.405  18.670  1.00  0.00    -0.066 N 
ATOM      3  H13 UNL     1      14.758  13.447  18.888  1.00  0.00     0.275 HD
ATOM      4  H12 UNL     1      15.430  14.232  17.748  1.00  0.00     0.275 HD
ATOM      5  H11 UNL     1      15.716  14.775  19.328  1.00  0.00     0.275 HD
ENDBRANCH   1   2
BRANCH   1   6
HETATM    6  C2  UNL     1      13.353  15.351  17.242  1.00  0.00     0.248 C 
HETATM    7  O1  UNL     1      12.211  14.962  16.930  1.00  0.00    -0.271 OA
HETATM    8  N2  UNL     1      14.177  15.843  16.204  1.00  0.00    -0.355 N 
ATOM      9  H2  UNL     1      15.115  16.165  16.443  1.00  0.00     0.162 HD
BRANCH   8  10
HETATM   10  C3  UNL     1      13.760  15.915  14.820  1.00  0.00     0.084 A 
HETATM   11  C4  UNL     1      13.768  17.351  14.260  1.00  0.00     0.027 A 
HETATM   12  C5  UNL     1      14.756  16.325  13.771  1.00  0.00     0.027 A 
ENDBRANCH   8  10
ENDBRANCH   1   6
BRANCH   1  13
HETATM   13  C6  UNL     1      14.391  16.641  19.126  1.00  0.00     0.025 C 
HETATM   14  C7  UNL     1      13.564  17.248  20.225  1.00  0.00     0.007 C 
HETATM   15  C8  UNL     1      13.742  16.406  21.471  1.00  0.00     0.000 C 
HETATM   16  C9  UNL     1      15.096  16.799  22.065  1.00  0.00     0.000 C 
HETATM   17  C10 UNL     1      16.034  17.141  20.957  1.00  0.00     0.000 C 
HETATM   18  C11 UNL     1      15.779  16.404  19.676  1.00  0.00     0.007 C 
ENDBRANCH   1  13
TORSDOF 4
ENDMDL
