MODEL 1
REMARK VINA RESULT: -6.672238462      0.000      0.000
REMARK  6 active torsions:
REMARK  status: ('A' for Active; 'I' for Inactive)
REMARK    1  A    between atoms: C2_2  and  C3_3 
REMARK    2  A    between atoms: C2_2  and  C8_8 
REMARK    3  A    between atoms: C4_4  and  C5_5 
REMARK    4  A    between atoms: C10_10  and  O1_11 
REMARK    5  A    between atoms: C11_13  and  O2_14 
REMARK    6  A    between atoms: C12_16  and  O3_17 
ROOT
HETATM    1  C8  UNL     1      15.193  16.706  18.042  1.00  0.00     0.027 C 
HETATM    2  C9  UNL     1      14.037  17.620  17.680  1.00  0.00     0.042 C 
HETATM    3  C10 UNL     1      12.786  16.804  17.750  1.00  0.00     0.149 C 
HETATM    4  C11 UNL     1      13.285  15.378  17.739  1.00  0.00     0.176 C 
HETATM    5  C12 UNL     1      14.515  15.504  18.645  1.00  0.00     0.154 C 
ENDROOT
BRANCH   1   6
HETATM    6  C2  UNL     1      16.063  17.437  19.015  1.00  0.00     0.010 C 
HETATM    7  C1  UNL     1      17.490  17.394  18.490  1.00  0.00     0.015 C 
BRANCH   6   8
HETATM    8  C3  UNL     1      15.960  16.965  20.398  1.00  0.00    -0.026 C 
HETATM    9  C4  UNL     1      16.350  17.681  21.426  1.00  0.00    -0.026 C 
BRANCH   9  10
HETATM   10  C5  UNL     1      16.270  17.260  22.837  1.00  0.00     0.008 A 
HETATM   11  C6  UNL     1      15.630  18.290  23.792  1.00  0.00     0.009 A 
HETATM   12  C7  UNL     1      14.938  16.988  23.456  1.00  0.00     0.009 A 
ENDBRANCH   9  10
ENDBRANCH   6   8
ENDBRANCH   1   6
BRANCH   5  13
HETATM   13  O3  UNL     1      15.235  14.342  18.532  1.00  0.00    -0.393 OA
ATOM     14  H3  UNL     1      15.298  13.846  19.340  1.00  0.00     0.210 HD
ENDBRANCH   5  13
BRANCH   3  15
HETATM   15  O1  UNL     1      11.895  17.073  16.730  1.00  0.00    -0.393 OA
ATOM     16  H1  UNL     1      12.282  17.025  15.864  1.00  0.00     0.210 HD
ENDBRANCH   3  15
BRANCH   4  17
HETATM   17  O2  UNL     1      12.337  14.531  18.262  1.00  0.00    -0.390 OA
ATOM     18  H2  UNL     1      12.262  14.652  19.201  1.00  0.00     0.210 HD
ENDBRANCH   4  17
TORSDOF 6
ENDMDL
MODEL 2
REMARK VINA RESULT: -6.639660215      3.269      5.722
REMARK  6 active torsions:
REMARK  status: ('A' for Active; 'I' for Inactive)
REMARK    1  A    between atoms: C2_2  and  C3_3 
REMARK    2  A    between atoms: C2_2  and  C8_8 
REMARK    3  A    between atoms: C4_4  and  C5_5 
REMARK    4  A    between atoms: C10_10  and  O1_11 
REMARK    5  A    between atoms: C11_13  and  O2_14 
REMARK    6  A    between atoms: C12_16  and  O3_17 
ROOT
HETATM    1  C8  UNL     1      16.854  16.756  20.706  1.00  0.00     0.027 C 
HETATM    2  C9  UNL     1      15.677  17.210  21.550  1.00  0.00     0.042 C 
HETATM    3  C10 UNL     1      16.221  17.658  22.868  1.00  0.00     0.149 C 
HETATM    4  C11 UNL     1      17.613  17.072  22.902  1.00  0.00     0.176 C 
HETATM    5  C12 UNL     1      18.048  17.296  21.449  1.00  0.00     0.154 C 
ENDROOT
BRANCH   1   6
HETATM    6  C2  UNL     1      16.692  17.351  19.343  1.00  0.00     0.010 C 
HETATM    7  C1  UNL     1      17.487  18.648  19.303  1.00  0.00     0.015 C 
BRANCH   6   8
HETATM    8  C3  UNL     1      15.302  17.533  18.918  1.00  0.00    -0.026 C 
HETATM    9  C4  UNL     1      14.953  17.673  17.662  1.00  0.00    -0.026 C 
BRANCH   9  10
HETATM   10  C5  UNL     1      13.573  17.858  17.176  1.00  0.00     0.008 A 
HETATM   11  C6  UNL     1      13.354  17.520  15.686  1.00  0.00     0.009 A 
HETATM   12  C7  UNL     1      12.760  16.669  16.785  1.00  0.00     0.009 A 
ENDBRANCH   9  10
ENDBRANCH   6   8
ENDBRANCH   1   6
BRANCH   5  13
HETATM   13  O3  UNL     1      19.201  16.582  21.245  1.00  0.00    -0.393 OA
ATOM     14  H3  UNL     1      19.834  16.663  21.949  1.00  0.00     0.210 HD
ENDBRANCH   5  13
BRANCH   3  15
HETATM   15  O1  UNL     1      15.447  17.274  23.945  1.00  0.00    -0.393 OA
ATOM     16  H1  UNL     1      15.952  16.935  24.675  1.00  0.00     0.210 HD
ENDBRANCH   3  15
BRANCH   4  17
HETATM   17  O2  UNL     1      18.405  17.756  23.793  1.00  0.00    -0.390 OA
ATOM     18  H2  UNL     1      19.043  18.287  23.334  1.00  0.00     0.210 HD
ENDBRANCH   4  17
TORSDOF 6
ENDMDL
MODEL 3
REMARK VINA RESULT: -6.463248776      3.375      6.083
REMARK  6 active torsions:
REMARK  status: ('A' for Active; 'I' for Inactive)
REMARK    1  A    between atoms: C2_2  and  C3_3 
REMARK    2  A    between atoms: C2_2  and  C8_8 
REMARK    3  A    between atoms: C4_4  and  C5_5 
REMARK    4  A    between atoms: C10_10  and  O1_11 
REMARK    5  A    between atoms: C11_13  and  O2_14 
REMARK    6  A    between atoms: C12_16  and  O3_17 
ROOT
HETATM    1  C8  UNL     1      16.403  16.983  20.828  1.00  0.00     0.027 C 
HETATM    2  C9  UNL     1      15.420  17.032  21.983  1.00  0.00     0.042 C 
HETATM    3  C10 UNL     1      16.200  17.346  23.219  1.00  0.00     0.149 C 
HETATM    4  C11 UNL     1      17.630  17.061  22.825  1.00  0.00     0.176 C 
HETATM    5  C12 UNL     1      17.644  17.619  21.397  1.00  0.00     0.154 C 
ENDROOT
BRANCH   1   6
HETATM    6  C2  UNL     1      15.813  17.762  19.695  1.00  0.00     0.010 C 
HETATM    7  C1  UNL     1      14.485  17.117  19.327  1.00  0.00     0.015 C 
BRANCH   6   8
HETATM    8  C3  UNL     1      16.699  17.921  18.539  1.00  0.00    -0.026 C 
HETATM    9  C4  UNL     1      16.320  18.503  17.426  1.00  0.00    -0.026 C 
BRANCH   9  10
HETATM   10  C5  UNL     1      17.165  18.692  16.233  1.00  0.00     0.008 A 
HETATM   11  C6  UNL     1      16.546  18.199  14.907  1.00  0.00     0.009 A 
HETATM   12  C7  UNL     1      16.756  19.670  15.181  1.00  0.00     0.009 A 
ENDBRANCH   9  10
ENDBRANCH   6   8
ENDBRANCH   1   6
BRANCH   5  13
HETATM   13  O3  UNL     1      18.807  17.204  20.800  1.00  0.00    -0.393 OA
ATOM     14  H3  UNL     1      18.724  17.036  19.868  1.00  0.00     0.210 HD
ENDBRANCH   5  13
BRANCH   3  15
HETATM   15  O1  UNL     1      15.791  16.629  24.326  1.00  0.00    -0.393 OA
ATOM     16  H1  UNL     1      15.738  15.693  24.175  1.00  0.00     0.210 HD
ENDBRANCH   3  15
BRANCH   4  17
HETATM   17  O2  UNL     1      18.502  17.726  23.653  1.00  0.00    -0.390 OA
ATOM     18  H2  UNL     1      18.460  18.662  23.500  1.00  0.00     0.210 HD
ENDBRANCH   4  17
TORSDOF 6
ENDMDL
MODEL 4
REMARK VINA RESULT: -6.438631845      1.383      1.742
REMARK  6 active torsions:
REMARK  status: ('A' for Active; 'I' for Inactive)
REMARK    1  A    between atoms: C2_2  and  C3_3 
REMARK    2  A    between atoms: C2_2  and  C8_8 
REMARK    3  A    between atoms: C4_4  and  C5_5 
REMARK    4  A    between atoms: C10_10  and  O1_11 
REMARK    5  A    between atoms: C11_13  and  O2_14 
REMARK    6  A    between atoms: C12_16  and  O3_17 
ROOT
HETATM    1  C8  UNL     1      15.058  16.883  18.341  1.00  0.00     0.027 C 
HETATM    2  C9  UNL     1      15.366  16.668  16.870  1.00  0.00     0.042 C 
HETATM    3  C10 UNL     1      14.059  16.520  16.159  1.00  0.00     0.149 C 
HETATM    4  C11 UNL     1      13.074  16.240  17.270  1.00  0.00     0.176 C 
HETATM    5  C12 UNL     1      13.586  17.202  18.348  1.00  0.00     0.154 C 
ENDROOT
BRANCH   1   6
HETATM    6  C2  UNL     1      15.906  18.019  18.821  1.00  0.00     0.010 C 
HETATM    7  C1  UNL     1      16.892  18.366  17.716  1.00  0.00     0.015 C 
BRANCH   6   8
HETATM    8  C3  UNL     1      16.565  17.785  20.108  1.00  0.00    -0.026 C 
HETATM    9  C4  UNL     1      15.902  17.578  21.221  1.00  0.00    -0.026 C 
BRANCH   9  10
HETATM   10  C5  UNL     1      16.510  17.338  22.543  1.00  0.00     0.008 A 
HETATM   11  C6  UNL     1      16.015  18.270  23.669  1.00  0.00     0.009 A 
HETATM   12  C7  UNL     1      15.674  16.798  23.656  1.00  0.00     0.009 A 
ENDBRANCH   9  10
ENDBRANCH   6   8
ENDBRANCH   1   6
BRANCH   5  13
HETATM   13  O3  UNL     1      12.953  16.884  19.523  1.00  0.00    -0.393 OA
ATOM     14  H3  UNL     1      12.051  16.604  19.412  1.00  0.00     0.210 HD
ENDBRANCH   5  13
BRANCH   3  15
HETATM   15  O1  UNL     1      14.068  15.541  15.185  1.00  0.00    -0.393 OA
ATOM     16  H1  UNL     1      14.928  15.168  15.029  1.00  0.00     0.210 HD
ENDBRANCH   3  15
BRANCH   4  17
HETATM   17  O2  UNL     1      11.794  16.541  16.869  1.00  0.00    -0.390 OA
ATOM     18  H2  UNL     1      11.801  17.243  16.229  1.00  0.00     0.210 HD
ENDBRANCH   4  17
TORSDOF 6
ENDMDL
MODEL 5
REMARK VINA RESULT: -6.437292076      3.237      5.304
REMARK  6 active torsions:
REMARK  status: ('A' for Active; 'I' for Inactive)
REMARK    1  A    between atoms: C2_2  and  C3_3 
REMARK    2  A    between atoms: C2_2  and  C8_8 
REMARK    3  A    between atoms: C4_4  and  C5_5 
REMARK    4  A    between atoms: C10_10  and  O1_11 
REMARK    5  A    between atoms: C11_13  and  O2_14 
REMARK    6  A    between atoms: C12_16  and  O3_17 
ROOT
HETATM    1  C8  UNL     1      14.678  16.389  22.142  1.00  0.00     0.027 C 
HETATM    2  C9  UNL     1      13.296  16.783  21.655  1.00  0.00     0.042 C 
HETATM    3  C10 UNL     1      12.588  17.429  22.803  1.00  0.00     0.149 C 
HETATM    4  C11 UNL     1      13.405  17.022  24.006  1.00  0.00     0.176 C 
HETATM    5  C12 UNL     1      14.824  17.145  23.437  1.00  0.00     0.154 C 
ENDROOT
BRANCH   1   6
HETATM    6  C2  UNL     1      15.665  16.816  21.101  1.00  0.00     0.010 C 
HETATM    7  C1  UNL     1      16.454  17.991  21.658  1.00  0.00     0.015 C 
BRANCH   6   8
HETATM    8  C3  UNL     1      15.080  17.104  19.789  1.00  0.00    -0.026 C 
HETATM    9  C4  UNL     1      15.698  17.810  18.873  1.00  0.00    -0.026 C 
BRANCH   9  10
HETATM   10  C5  UNL     1      15.160  18.131  17.538  1.00  0.00     0.008 A 
HETATM   11  C6  UNL     1      16.193  18.684  16.532  1.00  0.00     0.009 A 
HETATM   12  C7  UNL     1      15.573  17.316  16.356  1.00  0.00     0.009 A 
ENDBRANCH   9  10
ENDBRANCH   6   8
ENDBRANCH   1   6
BRANCH   5  13
HETATM   13  O3  UNL     1      15.683  16.558  24.331  1.00  0.00    -0.393 OA
ATOM     14  H3  UNL     1      15.355  16.535  25.223  1.00  0.00     0.210 HD
ENDBRANCH   5  13
BRANCH   3  15
HETATM   15  O1  UNL     1      11.259  17.068  22.905  1.00  0.00    -0.393 OA
ATOM     16  H1  UNL     1      10.880  17.250  23.757  1.00  0.00     0.210 HD
ENDBRANCH   3  15
BRANCH   4  17
HETATM   17  O2  UNL     1      13.189  17.886  25.053  1.00  0.00    -0.390 OA
ATOM     18  H2  UNL     1      14.003  18.289  25.328  1.00  0.00     0.210 HD
ENDBRANCH   4  17
TORSDOF 6
ENDMDL
