MODEL 1
REMARK VINA RESULT: -5.510353507      0.000      0.000
REMARK  6 active torsions:
REMARK  status: ('A' for Active; 'I' for Inactive)
REMARK    1  A    between atoms: C2_2  and  C4_4 
REMARK    2  A    between atoms: C4_4  and  C5_5 
REMARK    3  A    between atoms: C5_5  and  O1_6 
REMARK    4  A    between atoms: C5_5  and  C6_8 
REMARK    5  A    between atoms: C9_11  and  O2_12 
REMARK    6  A    between atoms: C12_16  and  O3_17 
ROOT
HETATM    1  C4  UNL     1      13.167  16.959  16.265  1.00  0.00     0.047 C 
HETATM    2  C9  UNL     1      12.416  18.199  16.047  1.00  0.00     0.155 C 
HETATM    3  C10 UNL     1      11.108  17.779  15.412  1.00  0.00     0.004 C 
HETATM    4  C11 UNL     1      11.144  16.538  15.014  1.00  0.00     0.004 C 
HETATM    5  C12 UNL     1      12.473  15.967  15.330  1.00  0.00     0.155 C 
ENDROOT
BRANCH   1   6
HETATM    6  C2  UNL     1      14.528  17.187  15.555  1.00  0.00    -0.006 C 
HETATM    7  C1  UNL     1      14.919  16.078  14.648  1.00  0.00     0.010 C 
HETATM    8  C3  UNL     1      15.608  17.668  16.449  1.00  0.00     0.010 C 
ENDBRANCH   1   6
BRANCH   1   9
HETATM    9  C5  UNL     1      13.450  16.409  17.563  1.00  0.00     0.136 C 
BRANCH   9  10
HETATM   10  O1  UNL     1      12.162  16.268  18.203  1.00  0.00    -0.394 OA
ATOM     11  H1  UNL     1      12.265  15.548  18.815  1.00  0.00     0.210 HD
ENDBRANCH   9  10
BRANCH   9  12
HETATM   12  C6  UNL     1      14.180  15.223  17.952  1.00  0.00     0.015 A 
HETATM   13  C7  UNL     1      15.239  15.064  18.942  1.00  0.00     0.007 A 
HETATM   14  C8  UNL     1      13.934  14.217  18.992  1.00  0.00     0.007 A 
ENDBRANCH   9  12
ENDBRANCH   1   9
BRANCH   2  15
HETATM   15  O2  UNL     1      12.965  19.040  15.036  1.00  0.00    -0.391 OA
ATOM     16  H2  UNL     1      12.604  19.919  15.026  1.00  0.00     0.210 HD
ENDBRANCH   2  15
BRANCH   5  17
HETATM   17  O3  UNL     1      12.451  14.681  15.794  1.00  0.00    -0.391 OA
ATOM     18  H3  UNL     1      13.251  14.195  15.631  1.00  0.00     0.210 HD
ENDBRANCH   5  17
TORSDOF 6
ENDMDL
MODEL 2
REMARK VINA RESULT: -5.368278204      1.793      2.058
REMARK  6 active torsions:
REMARK  status: ('A' for Active; 'I' for Inactive)
REMARK    1  A    between atoms: C2_2  and  C4_4 
REMARK    2  A    between atoms: C4_4  and  C5_5 
REMARK    3  A    between atoms: C5_5  and  O1_6 
REMARK    4  A    between atoms: C5_5  and  C6_8 
REMARK    5  A    between atoms: C9_11  and  O2_12 
REMARK    6  A    between atoms: C12_16  and  O3_17 
ROOT
HETATM    1  C4  UNL     1      13.695  17.509  15.892  1.00  0.00     0.047 C 
HETATM    2  C9  UNL     1      12.357  17.813  15.375  1.00  0.00     0.155 C 
HETATM    3  C10 UNL     1      11.636  16.485  15.297  1.00  0.00     0.004 C 
HETATM    4  C11 UNL     1      12.458  15.483  15.441  1.00  0.00     0.004 C 
HETATM    5  C12 UNL     1      13.829  16.007  15.634  1.00  0.00     0.155 C 
ENDROOT
BRANCH   1   6
HETATM    6  C2  UNL     1      14.672  18.112  14.848  1.00  0.00    -0.006 C 
HETATM    7  C1  UNL     1      15.734  17.170  14.412  1.00  0.00     0.010 C 
HETATM    8  C3  UNL     1      15.149  19.477  15.178  1.00  0.00     0.010 C 
ENDBRANCH   1   6
BRANCH   1   9
HETATM    9  C5  UNL     1      14.163  17.903  17.193  1.00  0.00     0.136 C 
BRANCH   9  10
HETATM   10  O1  UNL     1      13.082  17.583  18.097  1.00  0.00    -0.394 OA
ATOM     11  H1  UNL     1      13.169  18.197  18.816  1.00  0.00     0.210 HD
ENDBRANCH   9  10
BRANCH   9  12
HETATM   12  C6  UNL     1      15.361  17.546  17.918  1.00  0.00     0.015 A 
HETATM   13  C7  UNL     1      16.479  18.382  18.339  1.00  0.00     0.007 A 
HETATM   14  C8  UNL     1      15.669  17.522  19.353  1.00  0.00     0.007 A 
ENDBRANCH   9  12
ENDBRANCH   1   9
BRANCH   2  15
HETATM   15  O2  UNL     1      12.341  18.226  14.011  1.00  0.00    -0.391 OA
ATOM     16  H2  UNL     1      12.661  17.568  13.404  1.00  0.00     0.210 HD
ENDBRANCH   2  15
BRANCH   5  17
HETATM   17  O3  UNL     1      14.572  15.342  16.571  1.00  0.00    -0.391 OA
ATOM     18  H3  UNL     1      15.186  15.893  17.041  1.00  0.00     0.210 HD
ENDBRANCH   5  17
TORSDOF 6
ENDMDL
MODEL 3
REMARK VINA RESULT: -5.293571756      1.699      4.012
REMARK  6 active torsions:
REMARK  status: ('A' for Active; 'I' for Inactive)
REMARK    1  A    between atoms: C2_2  and  C4_4 
REMARK    2  A    between atoms: C4_4  and  C5_5 
REMARK    3  A    between atoms: C5_5  and  O1_6 
REMARK    4  A    between atoms: C5_5  and  C6_8 
REMARK    5  A    between atoms: C9_11  and  O2_12 
REMARK    6  A    between atoms: C12_16  and  O3_17 
ROOT
HETATM    1  C4  UNL     1      12.777  16.956  15.586  1.00  0.00     0.047 C 
HETATM    2  C9  UNL     1      12.511  15.578  15.162  1.00  0.00     0.155 C 
HETATM    3  C10 UNL     1      12.372  14.776  16.437  1.00  0.00     0.004 C 
HETATM    4  C11 UNL     1      12.779  15.451  17.476  1.00  0.00     0.004 C 
HETATM    5  C12 UNL     1      13.241  16.786  17.034  1.00  0.00     0.155 C 
ENDROOT
BRANCH   1   6
HETATM    6  C2  UNL     1      14.091  17.350  14.861  1.00  0.00    -0.006 C 
HETATM    7  C1  UNL     1      15.119  17.927  15.764  1.00  0.00     0.010 C 
HETATM    8  C3  UNL     1      13.888  18.095  13.595  1.00  0.00     0.010 C 
ENDBRANCH   1   6
BRANCH   1   9
HETATM    9  C5  UNL     1      11.851  18.042  15.413  1.00  0.00     0.136 C 
BRANCH   9  10
HETATM   10  O1  UNL     1      10.587  17.546  15.909  1.00  0.00    -0.394 OA
ATOM     11  H1  UNL     1       9.936  17.869  15.298  1.00  0.00     0.210 HD
ENDBRANCH   9  10
BRANCH   9  12
HETATM   12  C6  UNL     1      11.904  19.415  15.864  1.00  0.00     0.015 A 
HETATM   13  C7  UNL     1      12.198  20.630  15.115  1.00  0.00     0.007 A 
HETATM   14  C8  UNL     1      10.882  20.466  15.929  1.00  0.00     0.007 A 
ENDBRANCH   9  12
ENDBRANCH   1   9
BRANCH   2  15
HETATM   15  O2  UNL     1      13.624  14.936  14.543  1.00  0.00    -0.391 OA
ATOM     16  H2  UNL     1      14.411  14.928  15.075  1.00  0.00     0.210 HD
ENDBRANCH   2  15
BRANCH   5  17
HETATM   17  O3  UNL     1      12.889  17.819  17.859  1.00  0.00    -0.391 OA
ATOM     18  H3  UNL     1      11.976  18.073  17.795  1.00  0.00     0.210 HD
ENDBRANCH   5  17
TORSDOF 6
ENDMDL
MODEL 4
REMARK VINA RESULT: -5.222450170      1.758      3.262
REMARK  6 active torsions:
REMARK  status: ('A' for Active; 'I' for Inactive)
REMARK    1  A    between atoms: C2_2  and  C4_4 
REMARK    2  A    between atoms: C4_4  and  C5_5 
REMARK    3  A    between atoms: C5_5  and  O1_6 
REMARK    4  A    between atoms: C5_5  and  C6_8 
REMARK    5  A    between atoms: C9_11  and  O2_12 
REMARK    6  A    between atoms: C12_16  and  O3_17 
ROOT
HETATM    1  C4  UNL     1      13.849  16.396  16.179  1.00  0.00     0.047 C 
HETATM    2  C9  UNL     1      14.671  16.093  15.003  1.00  0.00     0.155 C 
HETATM    3  C10 UNL     1      14.690  17.360  14.178  1.00  0.00     0.004 C 
HETATM    4  C11 UNL     1      13.795  18.215  14.589  1.00  0.00     0.004 C 
HETATM    5  C12 UNL     1      13.065  17.634  15.738  1.00  0.00     0.155 C 
ENDROOT
BRANCH   1   6
HETATM    6  C2  UNL     1      12.753  15.298  16.192  1.00  0.00    -0.006 C 
HETATM    7  C1  UNL     1      11.543  15.655  15.408  1.00  0.00     0.010 C 
HETATM    8  C3  UNL     1      12.478  14.729  17.534  1.00  0.00     0.010 C 
ENDBRANCH   1   6
BRANCH   1   9
HETATM    9  C5  UNL     1      14.366  16.500  17.516  1.00  0.00     0.136 C 
BRANCH   9  10
HETATM   10  O1  UNL     1      15.323  15.424  17.637  1.00  0.00    -0.394 OA
ATOM     11  H1  UNL     1      16.174  15.847  17.645  1.00  0.00     0.210 HD
ENDBRANCH   9  10
BRANCH   9  12
HETATM   12  C6  UNL     1      14.978  17.610  18.212  1.00  0.00     0.015 A 
HETATM   13  C7  UNL     1      15.934  17.606  19.312  1.00  0.00     0.007 A 
HETATM   14  C8  UNL     1      16.224  18.348  17.976  1.00  0.00     0.007 A 
ENDBRANCH   9  12
ENDBRANCH   1   9
BRANCH   2  15
HETATM   15  O2  UNL     1      14.071  15.172  14.096  1.00  0.00    -0.391 OA
ATOM     16  H2  UNL     1      14.366  15.265  13.198  1.00  0.00     0.210 HD
ENDBRANCH   2  15
BRANCH   5  17
HETATM   17  O3  UNL     1      12.793  18.513  16.750  1.00  0.00    -0.391 OA
ATOM     18  H3  UNL     1      12.136  19.164  16.533  1.00  0.00     0.210 HD
ENDBRANCH   5  17
TORSDOF 6
ENDMDL
MODEL 5
REMARK VINA RESULT: -5.136573342      1.235      1.685
REMARK  6 active torsions:
REMARK  status: ('A' for Active; 'I' for Inactive)
REMARK    1  A    between atoms: C2_2  and  C4_4 
REMARK    2  A    between atoms: C4_4  and  C5_5 
REMARK    3  A    between atoms: C5_5  and  O1_6 
REMARK    4  A    between atoms: C5_5  and  C6_8 
REMARK    5  A    between atoms: C9_11  and  O2_12 
REMARK    6  A    between atoms: C12_16  and  O3_17 
ROOT
HETATM    1  C4  UNL     1      13.327  16.625  16.438  1.00  0.00     0.047 C 
HETATM    2  C9  UNL     1      12.904  17.971  16.042  1.00  0.00     0.155 C 
HETATM    3  C10 UNL     1      11.533  17.806  15.425  1.00  0.00     0.004 C 
HETATM    4  C11 UNL     1      11.260  16.552  15.189  1.00  0.00     0.004 C 
HETATM    5  C12 UNL     1      12.407  15.720  15.614  1.00  0.00     0.155 C 
ENDROOT
BRANCH   1   6
HETATM    6  C2  UNL     1      14.700  16.418  15.747  1.00  0.00    -0.006 C 
HETATM    7  C1  UNL     1      15.644  17.546  15.948  1.00  0.00     0.010 C 
HETATM    8  C3  UNL     1      14.611  15.925  14.351  1.00  0.00     0.010 C 
ENDBRANCH   1   6
BRANCH   1   9
HETATM    9  C5  UNL     1      13.466  16.196  17.803  1.00  0.00     0.136 C 
BRANCH   9  10
HETATM   10  O1  UNL     1      14.403  15.097  17.761  1.00  0.00    -0.394 OA
ATOM     11  H1  UNL     1      14.501  14.818  18.664  1.00  0.00     0.210 HD
ENDBRANCH   9  10
BRANCH   9  12
HETATM   12  C6  UNL     1      13.822  16.931  18.996  1.00  0.00     0.015 A 
HETATM   13  C7  UNL     1      13.979  16.461  20.367  1.00  0.00     0.007 A 
HETATM   14  C8  UNL     1      15.119  17.215  19.623  1.00  0.00     0.007 A 
ENDBRANCH   9  12
ENDBRANCH   1   9
BRANCH   2  15
HETATM   15  O2  UNL     1      13.642  18.514  14.950  1.00  0.00    -0.391 OA
ATOM     16  H2  UNL     1      13.177  19.185  14.464  1.00  0.00     0.210 HD
ENDBRANCH   2  15
BRANCH   5  17
HETATM   17  O3  UNL     1      12.069  14.550  16.237  1.00  0.00    -0.391 OA
ATOM     18  H3  UNL     1      11.703  13.893  15.656  1.00  0.00     0.210 HD
ENDBRANCH   5  17
TORSDOF 6
ENDMDL
