MODEL 1
REMARK VINA RESULT: -8.895530335      0.000      0.000
REMARK  16 active torsions:
REMARK  status: ('A' for Active; 'I' for Inactive)
REMARK    1  A    between atoms: C2_2  and  C3_3 
REMARK    2  A    between atoms: C3_3  and  C4_4 
REMARK    3  A    between atoms: C3_3  and  C7_10 
REMARK    4  A    between atoms: C4_4  and  O2_6 
REMARK    5  A    between atoms: O2_6  and  C5_7 
REMARK    6  A    between atoms: C7_10  and  C8_11 
REMARK    7  A    between atoms: C7_10  and  C29_40 
REMARK       I    between atoms: C8_11  and  N1_13 
REMARK    8  A    between atoms: N1_13  and  C9_15 
REMARK    9  A    between atoms: C9_15  and  C10_16 
REMARK   10  A    between atoms: C9_15  and  C24_32 
REMARK   11  A    between atoms: C10_16  and  C11_17 
REMARK   12  A    between atoms: C11_17  and  O5_19 
REMARK   13  A    between atoms: O5_19  and  C13_20 
REMARK   14  A    between atoms: C13_20  and  C14_22 
REMARK       I    between atoms: C24_32  and  N2_34 
REMARK   15  A    between atoms: N2_34  and  C25_36 
REMARK   16  A    between atoms: C29_40  and  O9_42 
ROOT
HETATM    1  C9  UNL     1      16.057  21.424  17.676  1.00  0.00     0.179 C 
ENDROOT
BRANCH   1   2
HETATM    2  N1  UNL     1      15.251  20.295  18.127  1.00  0.00    -0.347 N 
HETATM    3  C8  UNL     1      13.870  20.226  17.968  1.00  0.00     0.233 C 
HETATM    4  O4  UNL     1      13.286  21.191  17.402  1.00  0.00    -0.273 OA
ATOM      5  H1  UNL     1      15.724  19.515  18.583  1.00  0.00     0.163 HD
BRANCH   3   6
HETATM    6  C7  UNL     1      13.033  19.104  18.415  1.00  0.00     0.194 C 
BRANCH   6   7
HETATM    7  C3  UNL     1      12.288  18.397  17.314  1.00  0.00     0.130 C 
BRANCH   7   8
HETATM    8  C2  UNL     1      11.658  17.141  17.864  1.00  0.00    -0.021 C 
HETATM    9  C1  UNL     1      11.080  16.228  17.110  1.00  0.00     0.008 C 
ENDBRANCH   7   8
BRANCH   7  10
HETATM   10  C4  UNL     1      11.178  19.151  16.712  1.00  0.00     0.275 C 
HETATM   11  O1  UNL     1      10.315  19.746  17.376  1.00  0.00    -0.264 OA
BRANCH  10  12
HETATM   12  O2  UNL     1      11.059  19.218  15.326  1.00  0.00    -0.245 OA
BRANCH  12  13
HETATM   13  C5  UNL     1      11.668  20.237  14.599  1.00  0.00     0.262 C 
HETATM   14  C6  UNL     1      13.019  20.127  14.002  1.00  0.00     0.126 C 
HETATM   15  O3  UNL     1      11.022  21.319  14.442  1.00  0.00    -0.265 OA
ENDBRANCH  12  13
ENDBRANCH  10  12
ENDBRANCH   7  10
ENDBRANCH   6   7
BRANCH   6  16
HETATM   16  C29 UNL     1      13.833  18.084  19.155  1.00  0.00     0.272 C 
HETATM   17  O8  UNL     1      14.701  17.449  18.517  1.00  0.00    -0.264 OA
BRANCH  16  18
HETATM   18  O9  UNL     1      13.658  17.813  20.492  1.00  0.00    -0.326 OA
HETATM   19  C30 UNL     1      12.523  18.245  21.241  1.00  0.00     0.213 C 
ENDBRANCH  16  18
ENDBRANCH   6  16
ENDBRANCH   3   6
ENDBRANCH   1   2
BRANCH   1  20
HETATM   20  C10 UNL     1      16.481  21.267  16.256  1.00  0.00     0.067 C 
BRANCH  20  21
HETATM   21  C11 UNL     1      16.451  22.534  15.431  1.00  0.00     0.130 C 
HETATM   22  C12 UNL     1      15.894  22.349  14.072  1.00  0.00     0.040 C 
BRANCH  21  23
HETATM   23  O5  UNL     1      17.702  23.148  15.521  1.00  0.00    -0.316 OA
BRANCH  23  24
HETATM   24  C13 UNL     1      17.941  24.382  16.071  1.00  0.00     0.268 C 
HETATM   25  O6  UNL     1      17.107  24.719  16.978  1.00  0.00    -0.264 OA
BRANCH  24  26
HETATM   26  C14 UNL     1      19.034  25.286  15.695  1.00  0.00     0.049 C 
HETATM   27  C15 UNL     1      18.658  26.220  14.572  1.00  0.00     0.024 C 
HETATM   28  C16 UNL     1      19.793  27.167  14.332  1.00  0.00    -0.013 C 
HETATM   29  C17 UNL     1      20.192  27.959  15.543  1.00  0.00     0.009 C 
HETATM   30  C21 UNL     1      21.008  26.377  13.871  1.00  0.00     0.009 C 
HETATM   31  C18 UNL     1      20.595  27.005  16.653  1.00  0.00    -0.013 C 
HETATM   32  C19 UNL     1      21.766  26.160  16.249  1.00  0.00     0.009 C 
HETATM   33  C23 UNL     1      19.404  26.109  16.904  1.00  0.00     0.024 C 
HETATM   34  C20 UNL     1      21.405  25.441  14.965  1.00  0.00    -0.013 C 
HETATM   35  C22 UNL     1      20.266  24.513  15.266  1.00  0.00     0.024 C 
ENDBRANCH  24  26
ENDBRANCH  23  24
ENDBRANCH  21  23
ENDBRANCH  20  21
ENDBRANCH   1  20
BRANCH   1  36
HETATM   36  C24 UNL     1      17.312  21.583  18.484  1.00  0.00     0.241 C 
HETATM   37  O7  UNL     1      18.253  20.777  18.485  1.00  0.00    -0.271 OA
HETATM   38  N2  UNL     1      17.436  22.727  19.307  1.00  0.00    -0.351 N 
ATOM     39  H2  UNL     1      16.674  23.405  19.321  1.00  0.00     0.163 HD
BRANCH  38  40
HETATM   40  C25 UNL     1      18.604  22.976  20.132  1.00  0.00     0.022 C 
HETATM   41  C26 UNL     1      18.887  21.840  21.073  1.00  0.00     0.037 C 
HETATM   42  C27 UNL     1      18.373  24.222  20.984  1.00  0.00     0.037 C 
HETATM   43  C28 UNL     1      19.854  23.243  19.320  1.00  0.00     0.037 C 
ENDBRANCH  38  40
ENDBRANCH   1  36
TORSDOF 16
ENDMDL
MODEL 2
REMARK VINA RESULT: -8.879839793      0.052      1.150
REMARK  16 active torsions:
REMARK  status: ('A' for Active; 'I' for Inactive)
REMARK    1  A    between atoms: C2_2  and  C3_3 
REMARK    2  A    between atoms: C3_3  and  C4_4 
REMARK    3  A    between atoms: C3_3  and  C7_10 
REMARK    4  A    between atoms: C4_4  and  O2_6 
REMARK    5  A    between atoms: O2_6  and  C5_7 
REMARK    6  A    between atoms: C7_10  and  C8_11 
REMARK    7  A    between atoms: C7_10  and  C29_40 
REMARK       I    between atoms: C8_11  and  N1_13 
REMARK    8  A    between atoms: N1_13  and  C9_15 
REMARK    9  A    between atoms: C9_15  and  C10_16 
REMARK   10  A    between atoms: C9_15  and  C24_32 
REMARK   11  A    between atoms: C10_16  and  C11_17 
REMARK   12  A    between atoms: C11_17  and  O5_19 
REMARK   13  A    between atoms: O5_19  and  C13_20 
REMARK   14  A    between atoms: C13_20  and  C14_22 
REMARK       I    between atoms: C24_32  and  N2_34 
REMARK   15  A    between atoms: N2_34  and  C25_36 
REMARK   16  A    between atoms: C29_40  and  O9_42 
ROOT
HETATM    1  C9  UNL     1      16.056  21.427  17.676  1.00  0.00     0.179 C 
ENDROOT
BRANCH   1   2
HETATM    2  N1  UNL     1      15.249  20.299  18.129  1.00  0.00    -0.347 N 
HETATM    3  C8  UNL     1      13.869  20.230  17.970  1.00  0.00     0.233 C 
HETATM    4  O4  UNL     1      13.286  21.195  17.401  1.00  0.00    -0.273 OA
ATOM      5  H1  UNL     1      15.722  19.520  18.588  1.00  0.00     0.163 HD
BRANCH   3   6
HETATM    6  C7  UNL     1      13.031  19.110  18.419  1.00  0.00     0.194 C 
BRANCH   6   7
HETATM    7  C3  UNL     1      12.283  18.404  17.320  1.00  0.00     0.130 C 
BRANCH   7   8
HETATM    8  C2  UNL     1      11.645  17.152  17.874  1.00  0.00    -0.021 C 
HETATM    9  C1  UNL     1      11.111  16.215  17.119  1.00  0.00     0.008 C 
ENDBRANCH   7   8
BRANCH   7  10
HETATM   10  C4  UNL     1      11.176  19.162  16.716  1.00  0.00     0.275 C 
HETATM   11  O1  UNL     1      10.316  19.763  17.378  1.00  0.00    -0.264 OA
BRANCH  10  12
HETATM   12  O2  UNL     1      11.058  19.226  15.329  1.00  0.00    -0.245 OA
BRANCH  12  13
HETATM   13  C5  UNL     1      11.658  20.249  14.601  1.00  0.00     0.262 C 
HETATM   14  C6  UNL     1      13.003  20.146  13.991  1.00  0.00     0.126 C 
HETATM   15  O3  UNL     1      11.007  21.331  14.456  1.00  0.00    -0.265 OA
ENDBRANCH  12  13
ENDBRANCH  10  12
ENDBRANCH   7  10
ENDBRANCH   6   7
BRANCH   6  16
HETATM   16  C29 UNL     1      13.831  18.089  19.158  1.00  0.00     0.272 C 
HETATM   17  O8  UNL     1      14.692  17.448  18.516  1.00  0.00    -0.264 OA
BRANCH  16  18
HETATM   18  O9  UNL     1      13.663  17.824  20.497  1.00  0.00    -0.326 OA
HETATM   19  C30 UNL     1      12.522  18.240  21.245  1.00  0.00     0.213 C 
ENDBRANCH  16  18
ENDBRANCH   6  16
ENDBRANCH   3   6
ENDBRANCH   1   2
BRANCH   1  20
HETATM   20  C10 UNL     1      16.472  21.272  16.254  1.00  0.00     0.067 C 
BRANCH  20  21
HETATM   21  C11 UNL     1      16.454  22.542  15.435  1.00  0.00     0.130 C 
HETATM   22  C12 UNL     1      15.884  22.371  14.079  1.00  0.00     0.040 C 
BRANCH  21  23
HETATM   23  O5  UNL     1      17.714  23.139  15.518  1.00  0.00    -0.316 OA
BRANCH  23  24
HETATM   24  C13 UNL     1      17.975  24.360  16.085  1.00  0.00     0.268 C 
HETATM   25  O6  UNL     1      17.115  24.727  16.954  1.00  0.00    -0.264 OA
BRANCH  24  26
HETATM   26  C14 UNL     1      19.121  25.220  15.766  1.00  0.00     0.049 C 
HETATM   27  C15 UNL     1      20.332  24.437  15.324  1.00  0.00     0.024 C 
HETATM   28  C16 UNL     1      21.408  25.399  14.923  1.00  0.00    -0.013 C 
HETATM   29  C17 UNL     1      20.996  26.357  13.842  1.00  0.00     0.009 C 
HETATM   30  C21 UNL     1      21.820  26.215  16.137  1.00  0.00     0.009 C 
HETATM   31  C18 UNL     1      19.796  27.156  14.315  1.00  0.00    -0.013 C 
HETATM   32  C19 UNL     1      20.120  27.956  15.542  1.00  0.00     0.009 C 
HETATM   33  C23 UNL     1      18.716  26.153  14.652  1.00  0.00     0.024 C 
HETATM   34  C20 UNL     1      20.639  27.003  16.599  1.00  0.00    -0.013 C 
HETATM   35  C22 UNL     1      19.523  26.067  16.957  1.00  0.00     0.024 C 
ENDBRANCH  24  26
ENDBRANCH  23  24
ENDBRANCH  21  23
ENDBRANCH  20  21
ENDBRANCH   1  20
BRANCH   1  36
HETATM   36  C24 UNL     1      17.316  21.580  18.478  1.00  0.00     0.241 C 
HETATM   37  O7  UNL     1      18.259  20.777  18.465  1.00  0.00    -0.271 OA
HETATM   38  N2  UNL     1      17.443  22.717  19.312  1.00  0.00    -0.351 N 
ATOM     39  H2  UNL     1      16.680  23.393  19.337  1.00  0.00     0.163 HD
BRANCH  38  40
HETATM   40  C25 UNL     1      18.615  22.961  20.131  1.00  0.00     0.022 C 
HETATM   41  C26 UNL     1      18.888  21.831  21.082  1.00  0.00     0.037 C 
HETATM   42  C27 UNL     1      18.400  24.217  20.971  1.00  0.00     0.037 C 
HETATM   43  C28 UNL     1      19.867  23.205  19.314  1.00  0.00     0.037 C 
ENDBRANCH  38  40
ENDBRANCH   1  36
TORSDOF 16
ENDMDL
MODEL 3
REMARK VINA RESULT: -8.842707099      0.529      1.284
REMARK  16 active torsions:
REMARK  status: ('A' for Active; 'I' for Inactive)
REMARK    1  A    between atoms: C2_2  and  C3_3 
REMARK    2  A    between atoms: C3_3  and  C4_4 
REMARK    3  A    between atoms: C3_3  and  C7_10 
REMARK    4  A    between atoms: C4_4  and  O2_6 
REMARK    5  A    between atoms: O2_6  and  C5_7 
REMARK    6  A    between atoms: C7_10  and  C8_11 
REMARK    7  A    between atoms: C7_10  and  C29_40 
REMARK       I    between atoms: C8_11  and  N1_13 
REMARK    8  A    between atoms: N1_13  and  C9_15 
REMARK    9  A    between atoms: C9_15  and  C10_16 
REMARK   10  A    between atoms: C9_15  and  C24_32 
REMARK   11  A    between atoms: C10_16  and  C11_17 
REMARK   12  A    between atoms: C11_17  and  O5_19 
REMARK   13  A    between atoms: O5_19  and  C13_20 
REMARK   14  A    between atoms: C13_20  and  C14_22 
REMARK       I    between atoms: C24_32  and  N2_34 
REMARK   15  A    between atoms: N2_34  and  C25_36 
REMARK   16  A    between atoms: C29_40  and  O9_42 
ROOT
HETATM    1  C9  UNL     1      16.130  21.521  17.335  1.00  0.00     0.179 C 
ENDROOT
BRANCH   1   2
HETATM    2  N1  UNL     1      15.268  20.377  17.609  1.00  0.00    -0.347 N 
HETATM    3  C8  UNL     1      14.046  20.477  18.267  1.00  0.00     0.233 C 
HETATM    4  O4  UNL     1      13.664  21.620  18.645  1.00  0.00    -0.273 OA
ATOM      5  H1  UNL     1      15.577  19.455  17.302  1.00  0.00     0.163 HD
BRANCH   3   6
HETATM    6  C7  UNL     1      13.159  19.343  18.559  1.00  0.00     0.194 C 
BRANCH   6   7
HETATM    7  C3  UNL     1      12.403  18.813  17.370  1.00  0.00     0.130 C 
BRANCH   7   8
HETATM    8  C2  UNL     1      11.567  17.630  17.796  1.00  0.00    -0.021 C 
HETATM    9  C1  UNL     1      11.173  16.684  16.969  1.00  0.00     0.008 C 
ENDBRANCH   7   8
BRANCH   7  10
HETATM   10  C4  UNL     1      11.452  19.751  16.753  1.00  0.00     0.275 C 
HETATM   11  O1  UNL     1      10.331  20.000  17.224  1.00  0.00    -0.264 OA
BRANCH  10  12
HETATM   12  O2  UNL     1      11.797  20.410  15.574  1.00  0.00    -0.245 OA
BRANCH  12  13
HETATM   13  C5  UNL     1      11.930  19.717  14.375  1.00  0.00     0.262 C 
HETATM   14  C6  UNL     1      13.173  19.693  13.571  1.00  0.00     0.126 C 
HETATM   15  O3  UNL     1      10.922  19.069  13.952  1.00  0.00    -0.265 OA
ENDBRANCH  12  13
ENDBRANCH  10  12
ENDBRANCH   7  10
ENDBRANCH   6   7
BRANCH   6  16
HETATM   16  C29 UNL     1      13.908  18.204  19.169  1.00  0.00     0.272 C 
HETATM   17  O8  UNL     1      14.738  17.602  18.452  1.00  0.00    -0.264 OA
BRANCH  16  18
HETATM   18  O9  UNL     1      13.726  17.792  20.469  1.00  0.00    -0.326 OA
HETATM   19  C30 UNL     1      12.452  17.744  21.109  1.00  0.00     0.213 C 
ENDBRANCH  16  18
ENDBRANCH   6  16
ENDBRANCH   3   6
ENDBRANCH   1   2
BRANCH   1  20
HETATM   20  C10 UNL     1      16.704  21.465  15.961  1.00  0.00     0.067 C 
BRANCH  20  21
HETATM   21  C11 UNL     1      16.334  22.621  15.060  1.00  0.00     0.130 C 
HETATM   22  C12 UNL     1      15.665  22.209  13.805  1.00  0.00     0.040 C 
BRANCH  21  23
HETATM   23  O5  UNL     1      17.445  23.457  14.936  1.00  0.00    -0.316 OA
BRANCH  23  24
HETATM   24  C13 UNL     1      17.730  24.521  15.754  1.00  0.00     0.268 C 
HETATM   25  O6  UNL     1      16.852  24.736  16.656  1.00  0.00    -0.264 OA
BRANCH  24  26
HETATM   26  C14 UNL     1      18.916  25.379  15.655  1.00  0.00     0.049 C 
HETATM   27  C15 UNL     1      19.204  26.126  16.933  1.00  0.00     0.024 C 
HETATM   28  C16 UNL     1      20.483  26.888  16.770  1.00  0.00    -0.013 C 
HETATM   29  C17 UNL     1      21.660  26.030  16.403  1.00  0.00     0.009 C 
HETATM   30  C21 UNL     1      20.304  27.926  15.674  1.00  0.00     0.009 C 
HETATM   31  C18 UNL     1      21.365  25.309  15.100  1.00  0.00    -0.013 C 
HETATM   32  C19 UNL     1      21.134  26.278  13.979  1.00  0.00     0.009 C 
HETATM   33  C23 UNL     1      20.104  24.508  15.328  1.00  0.00     0.024 C 
HETATM   34  C20 UNL     1      20.018  27.215  14.393  1.00  0.00    -0.013 C 
HETATM   35  C22 UNL     1      18.768  26.398  14.543  1.00  0.00     0.024 C 
ENDBRANCH  24  26
ENDBRANCH  23  24
ENDBRANCH  21  23
ENDBRANCH  20  21
ENDBRANCH   1  20
BRANCH   1  36
HETATM   36  C24 UNL     1      17.292  21.595  18.283  1.00  0.00     0.241 C 
HETATM   37  O7  UNL     1      18.135  20.700  18.431  1.00  0.00    -0.271 OA
HETATM   38  N2  UNL     1      17.440  22.763  19.069  1.00  0.00    -0.351 N 
ATOM     39  H2  UNL     1      16.759  23.513  18.963  1.00  0.00     0.163 HD
BRANCH  38  40
HETATM   40  C25 UNL     1      18.523  22.936  20.019  1.00  0.00     0.022 C 
HETATM   41  C26 UNL     1      18.656  21.763  20.949  1.00  0.00     0.037 C 
HETATM   42  C27 UNL     1      18.258  24.168  20.880  1.00  0.00     0.037 C 
HETATM   43  C28 UNL     1      19.864  23.164  19.351  1.00  0.00     0.037 C 
ENDBRANCH  38  40
ENDBRANCH   1  36
TORSDOF 16
ENDMDL
MODEL 4
REMARK VINA RESULT: -8.464574179      2.186      9.865
REMARK  16 active torsions:
REMARK  status: ('A' for Active; 'I' for Inactive)
REMARK    1  A    between atoms: C2_2  and  C3_3 
REMARK    2  A    between atoms: C3_3  and  C4_4 
REMARK    3  A    between atoms: C3_3  and  C7_10 
REMARK    4  A    between atoms: C4_4  and  O2_6 
REMARK    5  A    between atoms: O2_6  and  C5_7 
REMARK    6  A    between atoms: C7_10  and  C8_11 
REMARK    7  A    between atoms: C7_10  and  C29_40 
REMARK       I    between atoms: C8_11  and  N1_13 
REMARK    8  A    between atoms: N1_13  and  C9_15 
REMARK    9  A    between atoms: C9_15  and  C10_16 
REMARK   10  A    between atoms: C9_15  and  C24_32 
REMARK   11  A    between atoms: C10_16  and  C11_17 
REMARK   12  A    between atoms: C11_17  and  O5_19 
REMARK   13  A    between atoms: O5_19  and  C13_20 
REMARK   14  A    between atoms: C13_20  and  C14_22 
REMARK       I    between atoms: C24_32  and  N2_34 
REMARK   15  A    between atoms: N2_34  and  C25_36 
REMARK   16  A    between atoms: C29_40  and  O9_42 
ROOT
HETATM    1  C9  UNL     1      16.714  22.906  16.669  1.00  0.00     0.179 C 
ENDROOT
BRANCH   1   2
HETATM    2  N1  UNL     1      17.786  23.833  16.325  1.00  0.00    -0.347 N 
HETATM    3  C8  UNL     1      17.890  25.116  16.854  1.00  0.00     0.233 C 
HETATM    4  O4  UNL     1      17.011  25.495  17.677  1.00  0.00    -0.273 OA
ATOM      5  H1  UNL     1      18.496  23.525  15.661  1.00  0.00     0.163 HD
BRANCH   3   6
HETATM    6  C7  UNL     1      18.956  26.071  16.524  1.00  0.00     0.194 C 
BRANCH   6   7
HETATM    7  C3  UNL     1      20.294  25.762  17.142  1.00  0.00     0.130 C 
BRANCH   7   8
HETATM    8  C2  UNL     1      20.915  27.039  17.655  1.00  0.00    -0.021 C 
HETATM    9  C1  UNL     1      22.205  27.293  17.596  1.00  0.00     0.008 C 
ENDBRANCH   7   8
BRANCH   7  10
HETATM   10  C4  UNL     1      20.262  24.858  18.302  1.00  0.00     0.275 C 
HETATM   11  O1  UNL     1      20.323  23.622  18.210  1.00  0.00    -0.264 OA
BRANCH  10  12
HETATM   12  O2  UNL     1      20.156  25.386  19.587  1.00  0.00    -0.245 OA
BRANCH  12  13
HETATM   13  C5  UNL     1      20.561  24.656  20.701  1.00  0.00     0.262 C 
HETATM   14  C6  UNL     1      21.976  24.466  21.091  1.00  0.00     0.126 C 
HETATM   15  O3  UNL     1      19.657  24.127  21.420  1.00  0.00    -0.265 OA
ENDBRANCH  12  13
ENDBRANCH  10  12
ENDBRANCH   7  10
ENDBRANCH   6   7
BRANCH   6  16
HETATM   16  C29 UNL     1      19.150  26.188  15.048  1.00  0.00     0.272 C 
HETATM   17  O8  UNL     1      18.138  26.097  14.319  1.00  0.00    -0.264 OA
BRANCH  16  18
HETATM   18  O9  UNL     1      20.378  26.386  14.462  1.00  0.00    -0.326 OA
HETATM   19  C30 UNL     1      20.861  27.666  14.059  1.00  0.00     0.213 C 
ENDBRANCH  16  18
ENDBRANCH   6  16
ENDBRANCH   3   6
ENDBRANCH   1   2
BRANCH   1  20
HETATM   20  C10 UNL     1      17.233  21.695  17.365  1.00  0.00     0.067 C 
BRANCH  20  21
HETATM   21  C11 UNL     1      16.824  21.560  18.815  1.00  0.00     0.130 C 
HETATM   22  C12 UNL     1      17.965  21.558  19.758  1.00  0.00     0.040 C 
BRANCH  21  23
HETATM   23  O5  UNL     1      15.918  20.503  18.921  1.00  0.00    -0.316 OA
BRANCH  23  24
HETATM   24  C13 UNL     1      14.552  20.632  18.945  1.00  0.00     0.268 C 
HETATM   25  O6  UNL     1      14.140  21.836  18.850  1.00  0.00    -0.264 OA
BRANCH  24  26
HETATM   26  C14 UNL     1      13.594  19.527  19.069  1.00  0.00     0.049 C 
HETATM   27  C15 UNL     1      12.334  19.756  18.272  1.00  0.00     0.024 C 
HETATM   28  C16 UNL     1      11.469  18.538  18.376  1.00  0.00    -0.013 C 
HETATM   29  C17 UNL     1      12.140  17.274  17.921  1.00  0.00     0.009 C 
HETATM   30  C21 UNL     1      11.054  18.349  19.826  1.00  0.00     0.009 C 
HETATM   31  C18 UNL     1      13.388  17.044  18.753  1.00  0.00    -0.013 C 
HETATM   32  C19 UNL     1      13.056  16.891  20.207  1.00  0.00     0.009 C 
HETATM   33  C23 UNL     1      14.258  18.267  18.572  1.00  0.00     0.024 C 
HETATM   34  C20 UNL     1      12.283  18.119  20.643  1.00  0.00    -0.013 C 
HETATM   35  C22 UNL     1      13.197  19.302  20.514  1.00  0.00     0.024 C 
ENDBRANCH  24  26
ENDBRANCH  23  24
ENDBRANCH  21  23
ENDBRANCH  20  21
ENDBRANCH   1  20
BRANCH   1  36
HETATM   36  C24 UNL     1      15.973  22.421  15.457  1.00  0.00     0.241 C 
HETATM   37  O7  UNL     1      16.436  22.414  14.308  1.00  0.00    -0.271 OA
HETATM   38  N2  UNL     1      14.654  21.938  15.628  1.00  0.00    -0.351 N 
ATOM     39  H2  UNL     1      14.253  21.933  16.566  1.00  0.00     0.163 HD
BRANCH  38  40
HETATM   40  C25 UNL     1      13.848  21.450  14.525  1.00  0.00     0.022 C 
HETATM   41  C26 UNL     1      13.001  22.533  13.918  1.00  0.00     0.037 C 
HETATM   42  C27 UNL     1      12.902  20.361  15.023  1.00  0.00     0.037 C 
HETATM   43  C28 UNL     1      14.675  20.823  13.421  1.00  0.00     0.037 C 
ENDBRANCH  38  40
ENDBRANCH   1  36
TORSDOF 16
ENDMDL
MODEL 5
REMARK VINA RESULT: -8.300167223      2.295      9.951
REMARK  16 active torsions:
REMARK  status: ('A' for Active; 'I' for Inactive)
REMARK    1  A    between atoms: C2_2  and  C3_3 
REMARK    2  A    between atoms: C3_3  and  C4_4 
REMARK    3  A    between atoms: C3_3  and  C7_10 
REMARK    4  A    between atoms: C4_4  and  O2_6 
REMARK    5  A    between atoms: O2_6  and  C5_7 
REMARK    6  A    between atoms: C7_10  and  C8_11 
REMARK    7  A    between atoms: C7_10  and  C29_40 
REMARK       I    between atoms: C8_11  and  N1_13 
REMARK    8  A    between atoms: N1_13  and  C9_15 
REMARK    9  A    between atoms: C9_15  and  C10_16 
REMARK   10  A    between atoms: C9_15  and  C24_32 
REMARK   11  A    between atoms: C10_16  and  C11_17 
REMARK   12  A    between atoms: C11_17  and  O5_19 
REMARK   13  A    between atoms: O5_19  and  C13_20 
REMARK   14  A    between atoms: C13_20  and  C14_22 
REMARK       I    between atoms: C24_32  and  N2_34 
REMARK   15  A    between atoms: N2_34  and  C25_36 
REMARK   16  A    between atoms: C29_40  and  O9_42 
ROOT
HETATM    1  C9  UNL     1      17.669  23.295  17.204  1.00  0.00     0.179 C 
ENDROOT
BRANCH   1   2
HETATM    2  N1  UNL     1      18.876  24.010  16.805  1.00  0.00    -0.347 N 
HETATM    3  C8  UNL     1      19.001  25.394  16.859  1.00  0.00     0.233 C 
HETATM    4  O4  UNL     1      18.018  26.065  17.279  1.00  0.00    -0.273 OA
ATOM      5  H1  UNL     1      19.670  23.466  16.467  1.00  0.00     0.163 HD
BRANCH   3   6
HETATM    6  C7  UNL     1      20.202  26.141  16.460  1.00  0.00     0.194 C 
BRANCH   6   7
HETATM    7  C3  UNL     1      21.381  25.974  17.381  1.00  0.00     0.130 C 
BRANCH   7   8
HETATM    8  C2  UNL     1      22.547  26.773  16.849  1.00  0.00    -0.021 C 
HETATM    9  C1  UNL     1      23.771  26.674  17.324  1.00  0.00     0.008 C 
ENDBRANCH   7   8
BRANCH   7  10
HETATM   10  C4  UNL     1      21.184  26.455  18.757  1.00  0.00     0.275 C 
HETATM   11  O1  UNL     1      20.861  27.620  19.037  1.00  0.00    -0.264 OA
BRANCH  10  12
HETATM   12  O2  UNL     1      21.365  25.581  19.827  1.00  0.00    -0.245 OA
BRANCH  12  13
HETATM   13  C5  UNL     1      20.513  24.498  20.025  1.00  0.00     0.262 C 
HETATM   14  C6  UNL     1      19.294  24.553  20.863  1.00  0.00     0.126 C 
HETATM   15  O3  UNL     1      20.806  23.404  19.450  1.00  0.00    -0.265 OA
ENDBRANCH  12  13
ENDBRANCH  10  12
ENDBRANCH   7  10
ENDBRANCH   6   7
BRANCH   6  16
HETATM   16  C29 UNL     1      20.643  25.774  15.081  1.00  0.00     0.272 C 
HETATM   17  O8  UNL     1      21.142  24.640  14.912  1.00  0.00    -0.264 OA
BRANCH  16  18
HETATM   18  O9  UNL     1      20.526  26.619  14.003  1.00  0.00    -0.326 OA
HETATM   19  C30 UNL     1      20.880  28.001  14.043  1.00  0.00     0.213 C 
ENDBRANCH  16  18
ENDBRANCH   6  16
ENDBRANCH   3   6
ENDBRANCH   1   2
BRANCH   1  20
HETATM   20  C10 UNL     1      17.978  21.927  17.709  1.00  0.00     0.067 C 
BRANCH  20  21
HETATM   21  C11 UNL     1      17.306  21.553  19.010  1.00  0.00     0.130 C 
HETATM   22  C12 UNL     1      18.255  21.241  20.104  1.00  0.00     0.040 C 
BRANCH  21  23
HETATM   23  O5  UNL     1      16.321  20.601  18.741  1.00  0.00    -0.316 OA
BRANCH  23  24
HETATM   24  C13 UNL     1      14.976  20.775  18.943  1.00  0.00     0.268 C 
HETATM   25  O6  UNL     1      14.611  21.997  19.001  1.00  0.00    -0.264 OA
BRANCH  24  26
HETATM   26  C14 UNL     1      13.990  19.698  19.092  1.00  0.00     0.049 C 
HETATM   27  C15 UNL     1      12.701  19.984  18.363  1.00  0.00     0.024 C 
HETATM   28  C16 UNL     1      11.802  18.792  18.485  1.00  0.00    -0.013 C 
HETATM   29  C17 UNL     1      12.409  17.518  17.970  1.00  0.00     0.009 C 
HETATM   30  C21 UNL     1      11.453  18.583  19.949  1.00  0.00     0.009 C 
HETATM   31  C18 UNL     1      13.688  17.230  18.734  1.00  0.00    -0.013 C 
HETATM   32  C19 UNL     1      13.423  17.055  20.199  1.00  0.00     0.009 C 
HETATM   33  C23 UNL     1      14.587  18.430  18.535  1.00  0.00     0.024 C 
HETATM   34  C20 UNL     1      12.713  18.297  20.698  1.00  0.00    -0.013 C 
HETATM   35  C22 UNL     1      13.657  19.453  20.550  1.00  0.00     0.024 C 
ENDBRANCH  24  26
ENDBRANCH  23  24
ENDBRANCH  21  23
ENDBRANCH  20  21
ENDBRANCH   1  20
BRANCH   1  36
HETATM   36  C24 UNL     1      16.707  23.125  16.064  1.00  0.00     0.241 C 
HETATM   37  O7  UNL     1      16.656  23.866  15.073  1.00  0.00    -0.271 OA
HETATM   38  N2  UNL     1      15.789  22.049  16.118  1.00  0.00    -0.351 N 
ATOM     39  H2  UNL     1      15.814  21.425  16.925  1.00  0.00     0.163 HD
BRANCH  38  40
HETATM   40  C25 UNL     1      14.815  21.796  15.073  1.00  0.00     0.022 C 
HETATM   41  C26 UNL     1      13.733  22.838  15.042  1.00  0.00     0.037 C 
HETATM   42  C27 UNL     1      14.139  20.450  15.317  1.00  0.00     0.037 C 
HETATM   43  C28 UNL     1      15.435  21.717  13.694  1.00  0.00     0.037 C 
ENDBRANCH  38  40
ENDBRANCH   1  36
TORSDOF 16
ENDMDL
