MODEL 1
REMARK VINA RESULT: -9.874359323      0.000      0.000
REMARK  13 active torsions:
REMARK  status: ('A' for Active; 'I' for Inactive)
REMARK    1  A    between atoms: C4_4  and  C5_5 
REMARK    2  A    between atoms: C5_5  and  N1_6 
REMARK    3  A    between atoms: N1_6  and  C6_7 
REMARK    4  A    between atoms: N2_11  and  C10_12 
REMARK    5  A    between atoms: C10_12  and  C11_13 
REMARK    6  A    between atoms: C11_13  and  N3_14 
REMARK    7  A    between atoms: N4_17  and  C14_18 
REMARK    8  A    between atoms: C14_18  and  C15_19 
REMARK    9  A    between atoms: C15_19  and  N5_20 
REMARK   10  A    between atoms: N5_20  and  C16_22 
REMARK   11  A    between atoms: C17_23  and  N6_24 
REMARK   12  A    between atoms: N6_24  and  C18_26 
REMARK   13  A    between atoms: C18_26  and  C19_27 
ROOT
HETATM    1  N3  UNL     1      18.610  22.774  18.356  1.00  0.00     0.100 N 
HETATM    2  C12 UNL     1      18.668  24.118  17.876  1.00  0.00     0.293 C 
HETATM    3  C13 UNL     1      20.094  24.663  18.104  1.00  0.00     0.156 C 
HETATM    4  N4  UNL     1      20.286  24.591  19.522  1.00  0.00    -0.347 N 
HETATM    5  C28 UNL     1      19.292  23.959  20.310  1.00  0.00     0.248 C 
HETATM    6  O3  UNL     1      18.903  24.479  21.416  1.00  0.00    -0.271 OA
HETATM    7  C29 UNL     1      18.735  22.678  19.792  1.00  0.00     0.374 C 
ENDROOT
BRANCH   4   8
HETATM    8  C14 UNL     1      21.461  25.153  20.166  1.00  0.00     0.145 C 
BRANCH   8   9
HETATM    9  C15 UNL     1      22.515  24.093  20.306  1.00  0.00     0.140 C 
BRANCH   9  10
HETATM   10  N5  UNL     1      23.547  24.098  19.333  1.00  0.00    -0.383 N 
ATOM     11  H5  UNL     1      23.636  23.295  18.712  1.00  0.00     0.159 HD
BRANCH  10  12
HETATM   12  C16 UNL     1      24.473  25.188  19.187  1.00  0.00     0.114 A 
HETATM   13  C17 UNL     1      24.863  25.961  18.102  1.00  0.00     0.114 A 
HETATM   14  C26 UNL     1      25.716  26.659  18.907  1.00  0.00     0.252 A 
HETATM   15  O1  UNL     1      26.513  27.605  18.728  1.00  0.00    -0.281 OA
HETATM   16  C27 UNL     1      25.327  25.892  19.975  1.00  0.00     0.252 A 
HETATM   17  O2  UNL     1      25.683  25.901  21.205  1.00  0.00    -0.281 OA
BRANCH  13  18
HETATM   18  N6  UNL     1      24.464  25.968  16.732  1.00  0.00    -0.384 N 
ATOM     19  H6  UNL     1      24.693  25.142  16.178  1.00  0.00     0.159 HD
BRANCH  18  20
HETATM   20  C18 UNL     1      23.774  27.024  16.069  1.00  0.00     0.124 C 
BRANCH  20  21
HETATM   21  C19 UNL     1      22.293  26.903  15.924  1.00  0.00     0.003 C 
HETATM   22  C20 UNL     1      21.556  28.155  15.601  1.00  0.00     0.006 C 
HETATM   23  C21 UNL     1      20.471  27.901  14.539  1.00  0.00     0.005 C 
HETATM   24  C22 UNL     1      19.710  26.656  14.976  1.00  0.00    -0.019 C 
HETATM   25  C23 UNL     1      18.432  26.516  14.194  1.00  0.00     0.010 C 
HETATM   26  C24 UNL     1      20.593  25.457  14.776  1.00  0.00     0.005 C 
HETATM   27  C25 UNL     1      22.048  25.894  14.808  1.00  0.00     0.006 C 
ENDBRANCH  20  21
ENDBRANCH  18  20
ENDBRANCH  13  18
ENDBRANCH  10  12
ENDBRANCH   9  10
ENDBRANCH   8   9
ENDBRANCH   4   8
BRANCH   1  28
HETATM   28  C11 UNL     1      17.589  21.934  17.828  1.00  0.00     0.293 C 
BRANCH  28  29
HETATM   29  C10 UNL     1      16.265  22.584  17.575  1.00  0.00     0.162 C 
BRANCH  29  30
HETATM   30  N2  UNL     1      15.487  21.911  16.583  1.00  0.00    -0.310 N 
HETATM   31  C4  UNL     1      14.455  21.136  16.933  1.00  0.00     0.066 A 
HETATM   32  C3  UNL     1      13.665  20.479  15.994  1.00  0.00     0.039 A 
HETATM   33  C2  UNL     1      13.935  20.615  14.645  1.00  0.00    -0.048 A 
HETATM   34  C1  UNL     1      13.066  19.891  13.679  1.00  0.00     0.049 C 
HETATM   35  C31 UNL     1      14.991  21.407  14.277  1.00  0.00     0.012 A 
HETATM   36  C30 UNL     1      15.726  22.024  15.250  1.00  0.00     0.254 A 
HETATM   37  C32 UNL     1      15.313  21.577  12.826  1.00  0.00     0.054 C 
HETATM   38  O4  UNL     1      16.700  22.755  14.905  1.00  0.00    -0.267 OA
BRANCH  31  39
HETATM   39  C5  UNL     1      14.151  20.941  18.349  1.00  0.00     0.205 C 
BRANCH  39  40
HETATM   40  N1  UNL     1      13.723  19.928  18.787  1.00  0.00    -0.448 NA
BRANCH  40  41
HETATM   41  C6  UNL     1      13.239  18.787  19.287  1.00  0.00     0.081 C 
HETATM   42  C7  UNL     1      13.184  18.660  20.807  1.00  0.00     0.053 C 
HETATM   43  C8  UNL     1      11.778  18.536  18.835  1.00  0.00     0.053 C 
HETATM   44  C9  UNL     1      13.978  17.505  18.836  1.00  0.00     0.053 C 
ENDBRANCH  40  41
ENDBRANCH  39  40
ENDBRANCH  31  39
ENDBRANCH  29  30
ENDBRANCH  28  29
ENDBRANCH   1  28
TORSDOF 13
ENDMDL
MODEL 2
REMARK VINA RESULT: -9.872767306      0.944      1.558
REMARK  13 active torsions:
REMARK  status: ('A' for Active; 'I' for Inactive)
REMARK    1  A    between atoms: C4_4  and  C5_5 
REMARK    2  A    between atoms: C5_5  and  N1_6 
REMARK    3  A    between atoms: N1_6  and  C6_7 
REMARK    4  A    between atoms: N2_11  and  C10_12 
REMARK    5  A    between atoms: C10_12  and  C11_13 
REMARK    6  A    between atoms: C11_13  and  N3_14 
REMARK    7  A    between atoms: N4_17  and  C14_18 
REMARK    8  A    between atoms: C14_18  and  C15_19 
REMARK    9  A    between atoms: C15_19  and  N5_20 
REMARK   10  A    between atoms: N5_20  and  C16_22 
REMARK   11  A    between atoms: C17_23  and  N6_24 
REMARK   12  A    between atoms: N6_24  and  C18_26 
REMARK   13  A    between atoms: C18_26  and  C19_27 
ROOT
HETATM    1  N3  UNL     1      17.684  23.503  19.166  1.00  0.00     0.100 N 
HETATM    2  C12 UNL     1      18.580  22.511  19.670  1.00  0.00     0.293 C 
HETATM    3  C13 UNL     1      19.407  23.129  20.817  1.00  0.00     0.156 C 
HETATM    4  N4  UNL     1      20.106  24.223  20.209  1.00  0.00    -0.347 N 
HETATM    5  C28 UNL     1      19.801  24.561  18.868  1.00  0.00     0.248 C 
HETATM    6  O3  UNL     1      20.735  24.832  18.031  1.00  0.00    -0.271 OA
HETATM    7  C29 UNL     1      18.360  24.586  18.489  1.00  0.00     0.374 C 
ENDROOT
BRANCH   4   8
HETATM    8  C14 UNL     1      21.116  24.981  20.928  1.00  0.00     0.145 C 
BRANCH   8   9
HETATM    9  C15 UNL     1      22.407  24.214  20.940  1.00  0.00     0.140 C 
BRANCH   9  10
HETATM   10  N5  UNL     1      23.090  24.110  19.702  1.00  0.00    -0.383 N 
ATOM     11  H5  UNL     1      22.823  23.366  19.058  1.00  0.00     0.159 HD
BRANCH  10  12
HETATM   12  C16 UNL     1      24.142  25.009  19.315  1.00  0.00     0.114 A 
HETATM   13  C17 UNL     1      24.231  26.009  18.355  1.00  0.00     0.114 A 
HETATM   14  C26 UNL     1      25.521  26.252  18.728  1.00  0.00     0.252 A 
HETATM   15  O1  UNL     1      26.406  27.050  18.352  1.00  0.00    -0.281 OA
HETATM   16  C27 UNL     1      25.427  25.263  19.674  1.00  0.00     0.252 A 
HETATM   17  O2  UNL     1      26.274  24.816  20.524  1.00  0.00    -0.281 OA
BRANCH  13  18
HETATM   18  N6  UNL     1      23.291  26.524  17.413  1.00  0.00    -0.384 N 
ATOM     19  H6  UNL     1      22.407  26.873  17.783  1.00  0.00     0.159 HD
BRANCH  18  20
HETATM   20  C18 UNL     1      23.477  26.593  16.001  1.00  0.00     0.124 C 
BRANCH  20  21
HETATM   21  C19 UNL     1      22.257  26.670  15.143  1.00  0.00     0.003 C 
HETATM   22  C20 UNL     1      21.638  25.372  14.757  1.00  0.00     0.006 C 
HETATM   23  C21 UNL     1      20.103  25.440  14.857  1.00  0.00     0.005 C 
HETATM   24  C22 UNL     1      19.674  26.729  14.167  1.00  0.00    -0.019 C 
HETATM   25  C23 UNL     1      18.190  26.725  13.919  1.00  0.00     0.010 C 
HETATM   26  C24 UNL     1      20.068  27.892  15.032  1.00  0.00     0.005 C 
HETATM   27  C25 UNL     1      21.231  27.485  15.921  1.00  0.00     0.006 C 
ENDBRANCH  20  21
ENDBRANCH  18  20
ENDBRANCH  13  18
ENDBRANCH  10  12
ENDBRANCH   9  10
ENDBRANCH   8   9
ENDBRANCH   4   8
BRANCH   1  28
HETATM   28  C11 UNL     1      16.527  23.049  18.472  1.00  0.00     0.293 C 
BRANCH  28  29
HETATM   29  C10 UNL     1      16.582  21.650  17.942  1.00  0.00     0.162 C 
BRANCH  29  30
HETATM   30  N2  UNL     1      15.606  21.392  16.931  1.00  0.00    -0.310 N 
HETATM   31  C4  UNL     1      14.380  20.969  17.257  1.00  0.00     0.066 A 
HETATM   32  C3  UNL     1      13.398  20.725  16.302  1.00  0.00     0.039 A 
HETATM   33  C2  UNL     1      13.673  20.917  14.961  1.00  0.00    -0.048 A 
HETATM   34  C1  UNL     1      12.594  20.638  13.976  1.00  0.00     0.049 C 
HETATM   35  C31 UNL     1      14.927  21.349  14.617  1.00  0.00     0.012 A 
HETATM   36  C30 UNL     1      15.844  21.571  15.605  1.00  0.00     0.254 A 
HETATM   37  C32 UNL     1      15.260  21.567  13.175  1.00  0.00     0.054 C 
HETATM   38  O4  UNL     1      17.001  21.971  15.282  1.00  0.00    -0.267 OA
BRANCH  31  39
HETATM   39  C5  UNL     1      14.054  20.726  18.661  1.00  0.00     0.205 C 
BRANCH  39  40
HETATM   40  N1  UNL     1      13.546  19.728  19.045  1.00  0.00    -0.448 NA
BRANCH  40  41
HETATM   41  C6  UNL     1      12.978  18.600  19.482  1.00  0.00     0.081 C 
HETATM   42  C7  UNL     1      11.533  18.340  19.064  1.00  0.00     0.053 C 
HETATM   43  C8  UNL     1      13.743  17.344  18.991  1.00  0.00     0.053 C 
HETATM   44  C9  UNL     1      12.955  18.426  21.019  1.00  0.00     0.053 C 
ENDBRANCH  40  41
ENDBRANCH  39  40
ENDBRANCH  31  39
ENDBRANCH  29  30
ENDBRANCH  28  29
ENDBRANCH   1  28
TORSDOF 13
ENDMDL
MODEL 3
REMARK VINA RESULT: -9.806906457      3.456     10.892
REMARK  13 active torsions:
REMARK  status: ('A' for Active; 'I' for Inactive)
REMARK    1  A    between atoms: C4_4  and  C5_5 
REMARK    2  A    between atoms: C5_5  and  N1_6 
REMARK    3  A    between atoms: N1_6  and  C6_7 
REMARK    4  A    between atoms: N2_11  and  C10_12 
REMARK    5  A    between atoms: C10_12  and  C11_13 
REMARK    6  A    between atoms: C11_13  and  N3_14 
REMARK    7  A    between atoms: N4_17  and  C14_18 
REMARK    8  A    between atoms: C14_18  and  C15_19 
REMARK    9  A    between atoms: C15_19  and  N5_20 
REMARK   10  A    between atoms: N5_20  and  C16_22 
REMARK   11  A    between atoms: C17_23  and  N6_24 
REMARK   12  A    between atoms: N6_24  and  C18_26 
REMARK   13  A    between atoms: C18_26  and  C19_27 
ROOT
HETATM    1  N3  UNL     1      15.887  22.525  15.232  1.00  0.00     0.100 N 
HETATM    2  C12 UNL     1      14.642  23.096  15.636  1.00  0.00     0.293 C 
HETATM    3  C13 UNL     1      13.769  21.987  16.260  1.00  0.00     0.156 C 
HETATM    4  N4  UNL     1      13.602  21.025  15.210  1.00  0.00    -0.347 N 
HETATM    5  C28 UNL     1      14.324  21.205  14.005  1.00  0.00     0.248 C 
HETATM    6  O3  UNL     1      13.758  21.030  12.867  1.00  0.00    -0.271 OA
HETATM    7  C29 UNL     1      15.756  21.600  14.129  1.00  0.00     0.374 C 
ENDROOT
BRANCH   4   8
HETATM    8  C14 UNL     1      12.711  19.886  15.348  1.00  0.00     0.145 C 
BRANCH   8   9
HETATM    9  C15 UNL     1      11.383  20.347  15.879  1.00  0.00     0.140 C 
BRANCH   9  10
HETATM   10  N5  UNL     1      10.942  19.742  17.083  1.00  0.00    -0.383 N 
ATOM     11  H5  UNL     1      10.691  20.342  17.868  1.00  0.00     0.159 HD
BRANCH  10  12
HETATM   12  C16 UNL     1      10.833  18.318  17.244  1.00  0.00     0.114 A 
HETATM   13  C17 UNL     1      10.903  17.480  18.350  1.00  0.00     0.114 A 
HETATM   14  C26 UNL     1      10.706  16.398  17.541  1.00  0.00     0.252 A 
HETATM   15  O1  UNL     1      10.624  15.165  17.732  1.00  0.00    -0.281 OA
HETATM   16  C27 UNL     1      10.638  17.231  16.453  1.00  0.00     0.252 A 
HETATM   17  O2  UNL     1      10.460  16.991  15.208  1.00  0.00    -0.281 OA
BRANCH  13  18
HETATM   18  N6  UNL     1      11.088  17.737  19.740  1.00  0.00    -0.384 N 
ATOM     19  H6  UNL     1      10.318  18.185  20.237  1.00  0.00     0.159 HD
BRANCH  18  20
HETATM   20  C18 UNL     1      12.253  17.422  20.500  1.00  0.00     0.124 C 
BRANCH  20  21
HETATM   21  C19 UNL     1      13.538  18.068  20.101  1.00  0.00     0.003 C 
HETATM   22  C20 UNL     1      14.263  17.448  18.958  1.00  0.00     0.006 C 
HETATM   23  C21 UNL     1      14.821  18.522  18.007  1.00  0.00     0.005 C 
HETATM   24  C22 UNL     1      15.512  19.564  18.878  1.00  0.00    -0.019 C 
HETATM   25  C23 UNL     1      16.369  20.471  18.037  1.00  0.00     0.010 C 
HETATM   26  C24 UNL     1      14.464  20.349  19.614  1.00  0.00     0.005 C 
HETATM   27  C25 UNL     1      13.203  19.510  19.739  1.00  0.00     0.006 C 
ENDBRANCH  20  21
ENDBRANCH  18  20
ENDBRANCH  13  18
ENDBRANCH  10  12
ENDBRANCH   9  10
ENDBRANCH   8   9
ENDBRANCH   4   8
BRANCH   1  28
HETATM   28  C11 UNL     1      16.997  23.405  15.092  1.00  0.00     0.293 C 
BRANCH  28  29
HETATM   29  C10 UNL     1      16.794  24.805  15.583  1.00  0.00     0.162 C 
BRANCH  29  30
HETATM   30  N2  UNL     1      18.018  25.476  15.891  1.00  0.00    -0.310 N 
HETATM   31  C4  UNL     1      18.622  25.288  17.069  1.00  0.00     0.066 A 
HETATM   32  C3  UNL     1      19.824  25.911  17.397  1.00  0.00     0.039 A 
HETATM   33  C2  UNL     1      20.433  26.759  16.493  1.00  0.00    -0.048 A 
HETATM   34  C1  UNL     1      21.713  27.405  16.889  1.00  0.00     0.049 C 
HETATM   35  C31 UNL     1      19.820  26.959  15.283  1.00  0.00     0.012 A 
HETATM   36  C30 UNL     1      18.643  26.316  15.024  1.00  0.00     0.254 A 
HETATM   37  C32 UNL     1      20.452  27.872  14.280  1.00  0.00     0.054 C 
HETATM   38  O4  UNL     1      18.081  26.503  13.906  1.00  0.00    -0.267 OA
BRANCH  31  39
HETATM   39  C5  UNL     1      17.999  24.421  18.066  1.00  0.00     0.205 C 
BRANCH  39  40
HETATM   40  N1  UNL     1      18.594  23.936  18.967  1.00  0.00    -0.448 NA
BRANCH  40  41
HETATM   41  C6  UNL     1      19.272  23.389  19.981  1.00  0.00     0.081 C 
HETATM   42  C7  UNL     1      20.795  23.388  19.882  1.00  0.00     0.053 C 
HETATM   43  C8  UNL     1      18.983  24.114  21.321  1.00  0.00     0.053 C 
HETATM   44  C9  UNL     1      18.919  21.915  20.289  1.00  0.00     0.053 C 
ENDBRANCH  40  41
ENDBRANCH  39  40
ENDBRANCH  31  39
ENDBRANCH  29  30
ENDBRANCH  28  29
ENDBRANCH   1  28
TORSDOF 13
ENDMDL
MODEL 4
REMARK VINA RESULT: -9.790064215      2.351      5.353
REMARK  13 active torsions:
REMARK  status: ('A' for Active; 'I' for Inactive)
REMARK    1  A    between atoms: C4_4  and  C5_5 
REMARK    2  A    between atoms: C5_5  and  N1_6 
REMARK    3  A    between atoms: N1_6  and  C6_7 
REMARK    4  A    between atoms: N2_11  and  C10_12 
REMARK    5  A    between atoms: C10_12  and  C11_13 
REMARK    6  A    between atoms: C11_13  and  N3_14 
REMARK    7  A    between atoms: N4_17  and  C14_18 
REMARK    8  A    between atoms: C14_18  and  C15_19 
REMARK    9  A    between atoms: C15_19  and  N5_20 
REMARK   10  A    between atoms: N5_20  and  C16_22 
REMARK   11  A    between atoms: C17_23  and  N6_24 
REMARK   12  A    between atoms: N6_24  and  C18_26 
REMARK   13  A    between atoms: C18_26  and  C19_27 
ROOT
HETATM    1  N3  UNL     1      15.180  22.689  15.961  1.00  0.00     0.100 N 
HETATM    2  C12 UNL     1      15.488  23.265  17.231  1.00  0.00     0.293 C 
HETATM    3  C13 UNL     1      16.591  24.327  17.038  1.00  0.00     0.156 C 
HETATM    4  N4  UNL     1      17.701  23.600  16.495  1.00  0.00    -0.347 N 
HETATM    5  C28 UNL     1      17.516  22.240  16.146  1.00  0.00     0.248 C 
HETATM    6  O3  UNL     1      18.399  21.359  16.446  1.00  0.00    -0.271 OA
HETATM    7  C29 UNL     1      16.260  21.895  15.421  1.00  0.00     0.374 C 
ENDROOT
BRANCH   4   8
HETATM    8  C14 UNL     1      19.002  24.219  16.306  1.00  0.00     0.145 C 
BRANCH   8   9
HETATM    9  C15 UNL     1      18.898  25.697  16.548  1.00  0.00     0.140 C 
BRANCH   9  10
HETATM   10  N5  UNL     1      19.591  26.201  17.678  1.00  0.00    -0.383 N 
ATOM     11  H5  UNL     1      19.091  26.280  18.563  1.00  0.00     0.159 HD
BRANCH  10  12
HETATM   12  C16 UNL     1      20.969  26.605  17.628  1.00  0.00     0.114 A 
HETATM   13  C17 UNL     1      22.123  26.120  18.230  1.00  0.00     0.114 A 
HETATM   14  C26 UNL     1      22.852  27.098  17.620  1.00  0.00     0.252 A 
HETATM   15  O1  UNL     1      24.062  27.415  17.614  1.00  0.00    -0.281 OA
HETATM   16  C27 UNL     1      21.710  27.573  17.028  1.00  0.00     0.252 A 
HETATM   17  O2  UNL     1      21.509  28.557  16.233  1.00  0.00    -0.281 OA
BRANCH  13  18
HETATM   18  N6  UNL     1      22.360  25.019  19.107  1.00  0.00    -0.384 N 
ATOM     19  H6  UNL     1      22.925  24.251  18.745  1.00  0.00     0.159 HD
BRANCH  18  20
HETATM   20  C18 UNL     1      21.878  24.897  20.443  1.00  0.00     0.124 C 
BRANCH  20  21
HETATM   21  C19 UNL     1      20.714  23.992  20.681  1.00  0.00     0.003 C 
HETATM   22  C20 UNL     1      19.414  24.653  20.979  1.00  0.00     0.006 C 
HETATM   23  C21 UNL     1      18.258  23.961  20.232  1.00  0.00     0.005 C 
HETATM   24  C22 UNL     1      18.425  22.464  20.454  1.00  0.00    -0.019 C 
HETATM   25  C23 UNL     1      17.176  21.728  20.050  1.00  0.00     0.010 C 
HETATM   26  C24 UNL     1      19.606  21.987  19.657  1.00  0.00     0.005 C 
HETATM   27  C25 UNL     1      20.555  23.151  19.421  1.00  0.00     0.006 C 
ENDBRANCH  20  21
ENDBRANCH  18  20
ENDBRANCH  13  18
ENDBRANCH  10  12
ENDBRANCH   9  10
ENDBRANCH   8   9
ENDBRANCH   4   8
BRANCH   1  28
HETATM   28  C11 UNL     1      13.907  22.070  15.814  1.00  0.00     0.293 C 
BRANCH  28  29
HETATM   29  C10 UNL     1      13.915  20.594  15.568  1.00  0.00     0.162 C 
BRANCH  29  30
HETATM   30  N2  UNL     1      13.132  19.861  16.513  1.00  0.00    -0.310 N 
HETATM   31  C4  UNL     1      11.959  19.325  16.159  1.00  0.00     0.066 A 
HETATM   32  C3  UNL     1      11.178  18.590  17.047  1.00  0.00     0.039 A 
HETATM   33  C2  UNL     1      11.606  18.393  18.346  1.00  0.00    -0.048 A 
HETATM   34  C1  UNL     1      10.737  17.605  19.259  1.00  0.00     0.049 C 
HETATM   35  C31 UNL     1      12.807  18.939  18.718  1.00  0.00     0.012 A 
HETATM   36  C30 UNL     1      13.525  19.649  17.796  1.00  0.00     0.254 A 
HETATM   37  C32 UNL     1      13.301  18.746  20.117  1.00  0.00     0.054 C 
HETATM   38  O4  UNL     1      14.633  20.151  18.144  1.00  0.00    -0.267 OA
BRANCH  31  39
HETATM   39  C5  UNL     1      11.454  19.532  14.803  1.00  0.00     0.205 C 
BRANCH  39  40
HETATM   40  N1  UNL     1      11.341  18.658  14.013  1.00  0.00    -0.448 NA
BRANCH  40  41
HETATM   41  C6  UNL     1      11.214  17.667  13.125  1.00  0.00     0.081 C 
HETATM   42  C7  UNL     1      12.441  17.323  12.284  1.00  0.00     0.053 C 
HETATM   43  C8  UNL     1      10.839  16.327  13.809  1.00  0.00     0.053 C 
HETATM   44  C9  UNL     1      10.091  17.860  12.078  1.00  0.00     0.053 C 
ENDBRANCH  40  41
ENDBRANCH  39  40
ENDBRANCH  31  39
ENDBRANCH  29  30
ENDBRANCH  28  29
ENDBRANCH   1  28
TORSDOF 13
ENDMDL
MODEL 5
REMARK VINA RESULT: -9.778981735      1.871     10.638
REMARK  13 active torsions:
REMARK  status: ('A' for Active; 'I' for Inactive)
REMARK    1  A    between atoms: C4_4  and  C5_5 
REMARK    2  A    between atoms: C5_5  and  N1_6 
REMARK    3  A    between atoms: N1_6  and  C6_7 
REMARK    4  A    between atoms: N2_11  and  C10_12 
REMARK    5  A    between atoms: C10_12  and  C11_13 
REMARK    6  A    between atoms: C11_13  and  N3_14 
REMARK    7  A    between atoms: N4_17  and  C14_18 
REMARK    8  A    between atoms: C14_18  and  C15_19 
REMARK    9  A    between atoms: C15_19  and  N5_20 
REMARK   10  A    between atoms: N5_20  and  C16_22 
REMARK   11  A    between atoms: C17_23  and  N6_24 
REMARK   12  A    between atoms: N6_24  and  C18_26 
REMARK   13  A    between atoms: C18_26  and  C19_27 
ROOT
HETATM    1  N3  UNL     1      19.206  23.187  19.385  1.00  0.00     0.100 N 
HETATM    2  C12 UNL     1      18.639  23.934  18.307  1.00  0.00     0.293 C 
HETATM    3  C13 UNL     1      17.103  23.931  18.459  1.00  0.00     0.156 C 
HETATM    4  N4  UNL     1      16.737  22.546  18.403  1.00  0.00    -0.347 N 
HETATM    5  C28 UNL     1      17.766  21.573  18.379  1.00  0.00     0.248 C 
HETATM    6  O3  UNL     1      17.702  20.570  17.583  1.00  0.00    -0.271 OA
HETATM    7  C29 UNL     1      18.907  21.775  19.316  1.00  0.00     0.374 C 
ENDROOT
BRANCH   4   8
HETATM    8  C14 UNL     1      15.347  22.123  18.362  1.00  0.00     0.145 C 
BRANCH   8   9
HETATM    9  C15 UNL     1      14.469  23.303  18.059  1.00  0.00     0.140 C 
BRANCH   9  10
HETATM   10  N5  UNL     1      14.068  23.458  16.708  1.00  0.00    -0.383 N 
ATOM     11  H5  UNL     1      13.669  24.350  16.417  1.00  0.00     0.159 HD
BRANCH  10  12
HETATM   12  C16 UNL     1      14.198  22.412  15.732  1.00  0.00     0.114 A 
HETATM   13  C17 UNL     1      13.337  21.418  15.285  1.00  0.00     0.114 A 
HETATM   14  C26 UNL     1      14.302  20.965  14.433  1.00  0.00     0.252 A 
HETATM   15  O1  UNL     1      14.370  20.037  13.599  1.00  0.00    -0.281 OA
HETATM   16  C27 UNL     1      15.149  21.949  14.879  1.00  0.00     0.252 A 
HETATM   17  O2  UNL     1      16.353  22.243  14.560  1.00  0.00    -0.281 OA
BRANCH  13  18
HETATM   18  N6  UNL     1      11.991  21.089  15.623  1.00  0.00    -0.384 N 
ATOM     19  H6  UNL     1      11.315  21.853  15.633  1.00  0.00     0.159 HD
BRANCH  18  20
HETATM   20  C18 UNL     1      11.505  19.788  15.947  1.00  0.00     0.124 C 
BRANCH  20  21
HETATM   21  C19 UNL     1      11.460  19.403  17.389  1.00  0.00     0.003 C 
HETATM   22  C20 UNL     1      10.738  18.142  17.713  1.00  0.00     0.006 C 
HETATM   23  C21 UNL     1      11.509  17.316  18.759  1.00  0.00     0.005 C 
HETATM   24  C22 UNL     1      11.909  18.278  19.871  1.00  0.00    -0.019 C 
HETATM   25  C23 UNL     1      12.370  17.517  21.085  1.00  0.00     0.010 C 
HETATM   26  C24 UNL     1      12.997  19.179  19.360  1.00  0.00     0.005 C 
HETATM   27  C25 UNL     1      12.907  19.265  17.845  1.00  0.00     0.006 C 
ENDBRANCH  20  21
ENDBRANCH  18  20
ENDBRANCH  13  18
ENDBRANCH  10  12
ENDBRANCH   9  10
ENDBRANCH   8   9
ENDBRANCH   4   8
BRANCH   1  28
HETATM   28  C11 UNL     1      20.563  23.454  19.723  1.00  0.00     0.293 C 
BRANCH  28  29
HETATM   29  C10 UNL     1      20.904  24.883  20.007  1.00  0.00     0.162 C 
BRANCH  29  30
HETATM   30  N2  UNL     1      22.127  25.302  19.398  1.00  0.00    -0.310 N 
HETATM   31  C4  UNL     1      22.120  26.158  18.371  1.00  0.00     0.066 A 
HETATM   32  C3  UNL     1      23.292  26.602  17.764  1.00  0.00     0.039 A 
HETATM   33  C2  UNL     1      24.519  26.157  18.219  1.00  0.00    -0.048 A 
HETATM   34  C1  UNL     1      25.743  26.655  17.537  1.00  0.00     0.049 C 
HETATM   35  C31 UNL     1      24.535  25.279  19.271  1.00  0.00     0.012 A 
HETATM   36  C30 UNL     1      23.348  24.884  19.822  1.00  0.00     0.254 A 
HETATM   37  C32 UNL     1      25.845  24.776  19.790  1.00  0.00     0.054 C 
HETATM   38  O4  UNL     1      23.369  24.074  20.794  1.00  0.00    -0.267 OA
BRANCH  31  39
HETATM   39  C5  UNL     1      20.845  26.632  17.839  1.00  0.00     0.205 C 
BRANCH  39  40
HETATM   40  N1  UNL     1      20.560  26.577  16.691  1.00  0.00    -0.448 NA
BRANCH  40  41
HETATM   41  C6  UNL     1      20.239  26.510  15.395  1.00  0.00     0.081 C 
HETATM   42  C7  UNL     1      18.832  26.031  15.049  1.00  0.00     0.053 C 
HETATM   43  C8  UNL     1      20.346  27.893  14.704  1.00  0.00     0.053 C 
HETATM   44  C9  UNL     1      21.158  25.609  14.536  1.00  0.00     0.053 C 
ENDBRANCH  40  41
ENDBRANCH  39  40
ENDBRANCH  31  39
ENDBRANCH  29  30
ENDBRANCH  28  29
ENDBRANCH   1  28
TORSDOF 13
ENDMDL
