MODEL 1
REMARK VINA RESULT: -9.494856747      0.000      0.000
REMARK  12 active torsions:
REMARK  status: ('A' for Active; 'I' for Inactive)
REMARK    1  A    between atoms: O1_2  and  C2_3 
REMARK    2  A    between atoms: C2_3  and  C3_5 
REMARK    3  A    between atoms: C3_5  and  C4_6 
REMARK    4  A    between atoms: C4_6  and  C5_7 
REMARK       I    between atoms: N1_8  and  C6_10 
REMARK    5  A    between atoms: C6_10  and  C7_12 
REMARK    6  A    between atoms: C8_13  and  C9_14 
REMARK       I    between atoms: C9_14  and  N2_16 
REMARK    7  A    between atoms: N2_16  and  C10_18 
REMARK    8  A    between atoms: C10_18  and  C11_19 
REMARK    9  A    between atoms: C11_19  and  C12_20 
REMARK   10  A    between atoms: C12_20  and  N3_21 
REMARK       I    between atoms: N3_21  and  C13_23 
REMARK   11  A    between atoms: C13_23  and  C14_25 
REMARK   12  A    between atoms: N4_27  and  C16_28 
ROOT
HETATM    1  C7  UNL     1      13.468  18.516  17.645  1.00  0.00     0.121 C 
HETATM    2  C8  UNL     1      12.651  19.731  17.650  1.00  0.00     0.094 C 
HETATM    3  C21 UNL     1      11.420  19.692  18.459  1.00  0.00     0.020 C 
HETATM    4  C22 UNL     1      11.031  18.382  19.077  1.00  0.00    -0.000 C 
HETATM    5  C23 UNL     1      10.351  17.425  18.170  1.00  0.00     0.037 C 
HETATM    6  C24 UNL     1      11.241  16.450  17.478  1.00  0.00     0.118 C 
HETATM    7  C25 UNL     1      10.608  15.047  17.577  1.00  0.00     0.039 C 
HETATM    8  O6  UNL     1      12.494  16.321  17.948  1.00  0.00    -0.379 OA
HETATM    9  C26 UNL     1      13.129  17.375  18.537  1.00  0.00     0.144 C 
HETATM   10  C27 UNL     1      12.285  17.830  19.705  1.00  0.00    -0.009 A 
HETATM   11  C28 UNL     1      12.825  18.419  20.924  1.00  0.00     0.013 A 
HETATM   12  C29 UNL     1      12.190  17.017  20.941  1.00  0.00     0.013 A 
ENDROOT
BRANCH   2  13
HETATM   13  C9  UNL     1      12.212  19.991  16.185  1.00  0.00     0.226 C 
HETATM   14  O4  UNL     1      11.006  20.162  15.994  1.00  0.00    -0.273 OA
HETATM   15  N2  UNL     1      13.226  20.003  15.232  1.00  0.00    -0.337 N 
ATOM     16  H2  UNL     1      14.148  19.839  15.638  1.00  0.00     0.168 HD
BRANCH  15  17
HETATM   17  C10 UNL     1      13.276  20.190  13.834  1.00  0.00     0.092 C 
BRANCH  17  18
HETATM   18  C11 UNL     1      13.976  21.297  13.209  1.00  0.00     0.034 C 
BRANCH  18  19
HETATM   19  C12 UNL     1      15.420  21.461  13.228  1.00  0.00     0.092 C 
BRANCH  19  20
HETATM   20  N3  UNL     1      16.095  22.357  14.064  1.00  0.00    -0.332 N 
HETATM   21  C13 UNL     1      15.908  22.742  15.383  1.00  0.00     0.274 C 
HETATM   22  O5  UNL     1      15.024  22.313  16.125  1.00  0.00    -0.266 OA
ATOM     23  H3  UNL     1      16.884  22.821  13.613  1.00  0.00     0.168 HD
BRANCH  21  24
HETATM   24  C14 UNL     1      16.818  23.748  16.012  1.00  0.00     0.131 A 
HETATM   25  C15 UNL     1      18.151  23.881  15.734  1.00  0.00     0.144 A 
HETATM   26  N4  UNL     1      18.659  24.885  16.496  1.00  0.00    -0.280 N 
HETATM   27  N5  UNL     1      17.645  25.343  17.215  1.00  0.00    -0.020 NA
HETATM   28  N6  UNL     1      16.533  24.665  16.931  1.00  0.00    -0.278 N 
ATOM     29  H6  UNL     1      15.616  24.824  17.349  1.00  0.00     0.184 HD
BRANCH  26  30
HETATM   30  C16 UNL     1      20.023  25.350  16.513  1.00  0.00     0.105 C 
HETATM   31  C17 UNL     1      20.163  26.787  16.917  1.00  0.00     0.027 C 
HETATM   32  C18 UNL     1      20.993  27.428  15.821  1.00  0.00     0.002 C 
HETATM   33  C19 UNL     1      20.558  26.641  14.610  1.00  0.00     0.002 C 
HETATM   34  C20 UNL     1      20.652  25.222  15.128  1.00  0.00     0.027 C 
ENDBRANCH  26  30
ENDBRANCH  21  24
ENDBRANCH  19  20
ENDBRANCH  18  19
ENDBRANCH  17  18
ENDBRANCH  15  17
ENDBRANCH   2  13
BRANCH   1  35
HETATM   35  C6  UNL     1      14.922  18.846  17.957  1.00  0.00     0.228 C 
HETATM   36  N1  UNL     1      15.305  20.178  18.133  1.00  0.00    -0.340 N 
HETATM   37  C5  UNL     1      16.123  20.563  19.062  1.00  0.00     0.064 C 
ATOM     38  H1  UNL     1      14.923  20.881  17.501  1.00  0.00     0.167 HD
HETATM   39  O3  UNL     1      15.717  17.906  18.040  1.00  0.00    -0.273 OA
BRANCH  37  40
HETATM   40  C4  UNL     1      16.562  21.931  19.300  1.00  0.00     0.054 C 
BRANCH  40  41
HETATM   41  C3  UNL     1      18.063  22.086  19.324  1.00  0.00     0.116 C 
BRANCH  41  42
HETATM   42  C2  UNL     1      18.598  22.213  20.687  1.00  0.00     0.258 C 
HETATM   43  O2  UNL     1      18.820  21.199  21.365  1.00  0.00    -0.265 OA
BRANCH  42  44
HETATM   44  O1  UNL     1      18.850  23.462  21.201  1.00  0.00    -0.326 OA
HETATM   45  C1  UNL     1      19.598  24.452  20.547  1.00  0.00     0.213 C 
ENDBRANCH  42  44
ENDBRANCH  41  42
ENDBRANCH  40  41
ENDBRANCH  37  40
ENDBRANCH   1  35
TORSDOF 12
ENDMDL
MODEL 2
REMARK VINA RESULT: -9.306534266      2.912      8.664
REMARK  12 active torsions:
REMARK  status: ('A' for Active; 'I' for Inactive)
REMARK    1  A    between atoms: O1_2  and  C2_3 
REMARK    2  A    between atoms: C2_3  and  C3_5 
REMARK    3  A    between atoms: C3_5  and  C4_6 
REMARK    4  A    between atoms: C4_6  and  C5_7 
REMARK       I    between atoms: N1_8  and  C6_10 
REMARK    5  A    between atoms: C6_10  and  C7_12 
REMARK    6  A    between atoms: C8_13  and  C9_14 
REMARK       I    between atoms: C9_14  and  N2_16 
REMARK    7  A    between atoms: N2_16  and  C10_18 
REMARK    8  A    between atoms: C10_18  and  C11_19 
REMARK    9  A    between atoms: C11_19  and  C12_20 
REMARK   10  A    between atoms: C12_20  and  N3_21 
REMARK       I    between atoms: N3_21  and  C13_23 
REMARK   11  A    between atoms: C13_23  and  C14_25 
REMARK   12  A    between atoms: N4_27  and  C16_28 
ROOT
HETATM    1  C7  UNL     1      16.342  21.966  16.464  1.00  0.00     0.121 C 
HETATM    2  C8  UNL     1      15.342  23.029  16.578  1.00  0.00     0.094 C 
HETATM    3  C21 UNL     1      14.638  23.133  17.869  1.00  0.00     0.020 C 
HETATM    4  C22 UNL     1      14.889  22.064  18.890  1.00  0.00    -0.000 C 
HETATM    5  C23 UNL     1      14.136  20.801  18.691  1.00  0.00     0.037 C 
HETATM    6  C24 UNL     1      14.842  19.747  17.907  1.00  0.00     0.118 C 
HETATM    7  C25 UNL     1      14.678  18.398  18.635  1.00  0.00     0.039 C 
HETATM    8  O6  UNL     1      16.164  19.903  17.718  1.00  0.00    -0.379 OA
HETATM    9  C26 UNL     1      16.715  21.150  17.650  1.00  0.00     0.144 C 
HETATM   10  C27 UNL     1      16.383  21.874  18.934  1.00  0.00    -0.009 A 
HETATM   11  C28 UNL     1      17.241  22.878  19.551  1.00  0.00     0.013 A 
HETATM   12  C29 UNL     1      17.038  21.503  20.211  1.00  0.00     0.013 A 
ENDROOT
BRANCH   2  13
HETATM   13  C9  UNL     1      14.257  22.752  15.503  1.00  0.00     0.226 C 
HETATM   14  O4  UNL     1      13.378  23.607  15.374  1.00  0.00    -0.273 OA
HETATM   15  N2  UNL     1      14.388  21.563  14.791  1.00  0.00    -0.337 N 
ATOM     16  H2  UNL     1      15.204  21.022  15.078  1.00  0.00     0.168 HD
BRANCH  15  17
HETATM   17  C10 UNL     1      13.654  20.933  13.763  1.00  0.00     0.092 C 
BRANCH  17  18
HETATM   18  C11 UNL     1      12.532  20.051  14.020  1.00  0.00     0.034 C 
BRANCH  18  19
HETATM   19  C12 UNL     1      11.832  19.975  15.292  1.00  0.00     0.092 C 
BRANCH  19  20
HETATM   20  N3  UNL     1      11.397  18.780  15.876  1.00  0.00    -0.332 N 
HETATM   21  C13 UNL     1      10.991  18.451  17.161  1.00  0.00     0.274 C 
HETATM   22  O5  UNL     1      10.933  19.236  18.107  1.00  0.00    -0.266 OA
ATOM     23  H3  UNL     1      11.375  17.993  15.228  1.00  0.00     0.168 HD
BRANCH  21  24
HETATM   24  C14 UNL     1      10.575  17.051  17.485  1.00  0.00     0.131 A 
HETATM   25  C15 UNL     1      10.784  15.965  16.680  1.00  0.00     0.144 A 
HETATM   26  N4  UNL     1      10.267  14.865  17.287  1.00  0.00    -0.280 N 
HETATM   27  N5  UNL     1       9.760  15.288  18.435  1.00  0.00    -0.020 NA
HETATM   28  N6  UNL     1       9.941  16.603  18.564  1.00  0.00    -0.278 N 
ATOM     29  H6  UNL     1       9.642  17.170  19.357  1.00  0.00     0.184 HD
BRANCH  26  30
HETATM   30  C16 UNL     1      10.273  13.515  16.778  1.00  0.00     0.105 C 
HETATM   31  C17 UNL     1      10.384  13.437  15.285  1.00  0.00     0.027 C 
HETATM   32  C18 UNL     1       9.234  12.550  14.849  1.00  0.00     0.002 C 
HETATM   33  C19 UNL     1       8.184  12.884  15.879  1.00  0.00     0.002 C 
HETATM   34  C20 UNL     1       8.985  12.792  17.160  1.00  0.00     0.027 C 
ENDBRANCH  26  30
ENDBRANCH  21  24
ENDBRANCH  19  20
ENDBRANCH  18  19
ENDBRANCH  17  18
ENDBRANCH  15  17
ENDBRANCH   2  13
BRANCH   1  35
HETATM   35  C6  UNL     1      17.658  22.523  15.934  1.00  0.00     0.228 C 
HETATM   36  N1  UNL     1      17.683  23.786  15.338  1.00  0.00    -0.340 N 
HETATM   37  C5  UNL     1      18.623  24.652  15.551  1.00  0.00     0.064 C 
ATOM     38  H1  UNL     1      16.924  24.039  14.704  1.00  0.00     0.167 HD
HETATM   39  O3  UNL     1      18.665  21.821  16.055  1.00  0.00    -0.273 OA
BRANCH  37  40
HETATM   40  C4  UNL     1      18.708  25.982  14.964  1.00  0.00     0.054 C 
BRANCH  40  41
HETATM   41  C3  UNL     1      20.123  26.489  14.826  1.00  0.00     0.116 C 
BRANCH  41  42
HETATM   42  C2  UNL     1      20.453  27.523  15.817  1.00  0.00     0.258 C 
HETATM   43  O2  UNL     1      20.838  28.641  15.445  1.00  0.00    -0.265 OA
BRANCH  42  44
HETATM   44  O1  UNL     1      20.331  27.239  17.156  1.00  0.00    -0.326 OA
HETATM   45  C1  UNL     1      21.385  27.301  18.080  1.00  0.00     0.213 C 
ENDBRANCH  42  44
ENDBRANCH  41  42
ENDBRANCH  40  41
ENDBRANCH  37  40
ENDBRANCH   1  35
TORSDOF 12
ENDMDL
MODEL 3
REMARK VINA RESULT: -9.261290215      2.418     10.480
REMARK  12 active torsions:
REMARK  status: ('A' for Active; 'I' for Inactive)
REMARK    1  A    between atoms: O1_2  and  C2_3 
REMARK    2  A    between atoms: C2_3  and  C3_5 
REMARK    3  A    between atoms: C3_5  and  C4_6 
REMARK    4  A    between atoms: C4_6  and  C5_7 
REMARK       I    between atoms: N1_8  and  C6_10 
REMARK    5  A    between atoms: C6_10  and  C7_12 
REMARK    6  A    between atoms: C8_13  and  C9_14 
REMARK       I    between atoms: C9_14  and  N2_16 
REMARK    7  A    between atoms: N2_16  and  C10_18 
REMARK    8  A    between atoms: C10_18  and  C11_19 
REMARK    9  A    between atoms: C11_19  and  C12_20 
REMARK   10  A    between atoms: C12_20  and  N3_21 
REMARK       I    between atoms: N3_21  and  C13_23 
REMARK   11  A    between atoms: C13_23  and  C14_25 
REMARK   12  A    between atoms: N4_27  and  C16_28 
ROOT
HETATM    1  C7  UNL     1      21.062  25.397  16.354  1.00  0.00     0.121 C 
HETATM    2  C8  UNL     1      20.404  26.305  17.295  1.00  0.00     0.094 C 
HETATM    3  C21 UNL     1      20.689  27.742  17.131  1.00  0.00     0.020 C 
HETATM    4  C22 UNL     1      21.734  28.136  16.130  1.00  0.00    -0.000 C 
HETATM    5  C23 UNL     1      23.139  28.008  16.588  1.00  0.00     0.037 C 
HETATM    6  C24 UNL     1      23.804  26.713  16.267  1.00  0.00     0.118 C 
HETATM    7  C25 UNL     1      25.211  27.005  15.708  1.00  0.00     0.039 C 
HETATM    8  O6  UNL     1      23.206  25.922  15.359  1.00  0.00    -0.379 OA
HETATM    9  C26 UNL     1      21.849  25.934  15.212  1.00  0.00     0.144 C 
HETATM   10  C27 UNL     1      21.432  27.348  14.881  1.00  0.00    -0.009 A 
HETATM   11  C28 UNL     1      20.285  27.688  14.048  1.00  0.00     0.013 A 
HETATM   12  C29 UNL     1      21.721  27.938  13.553  1.00  0.00     0.013 A 
ENDROOT
BRANCH   2  13
HETATM   13  C9  UNL     1      20.886  25.916  18.718  1.00  0.00     0.226 C 
HETATM   14  O4  UNL     1      21.295  26.834  19.431  1.00  0.00    -0.273 OA
HETATM   15  N2  UNL     1      20.809  24.565  19.044  1.00  0.00    -0.337 N 
ATOM     16  H2  UNL     1      20.432  23.999  18.284  1.00  0.00     0.168 HD
BRANCH  15  17
HETATM   17  C10 UNL     1      21.132  23.797  20.183  1.00  0.00     0.092 C 
BRANCH  17  18
HETATM   18  C11 UNL     1      20.138  23.340  21.136  1.00  0.00     0.034 C 
BRANCH  18  19
HETATM   19  C12 UNL     1      18.782  23.860  21.210  1.00  0.00     0.092 C 
BRANCH  19  20
HETATM   20  N3  UNL     1      17.661  23.199  20.694  1.00  0.00    -0.332 N 
HETATM   21  C13 UNL     1      17.333  22.747  19.425  1.00  0.00     0.274 C 
HETATM   22  O5  UNL     1      18.048  22.857  18.429  1.00  0.00    -0.266 OA
ATOM     23  H3  UNL     1      16.941  23.014  21.392  1.00  0.00     0.168 HD
BRANCH  21  24
HETATM   24  C14 UNL     1      16.026  22.061  19.183  1.00  0.00     0.131 A 
HETATM   25  C15 UNL     1      15.854  20.706  19.108  1.00  0.00     0.144 A 
HETATM   26  N4  UNL     1      14.542  20.445  18.869  1.00  0.00    -0.280 N 
HETATM   27  N5  UNL     1      13.943  21.624  18.805  1.00  0.00    -0.020 NA
HETATM   28  N6  UNL     1      14.828  22.604  18.993  1.00  0.00    -0.278 N 
ATOM     29  H6  UNL     1      14.620  23.602  18.991  1.00  0.00     0.184 HD
BRANCH  26  30
HETATM   30  C16 UNL     1      13.935  19.146  18.717  1.00  0.00     0.105 C 
HETATM   31  C17 UNL     1      12.500  19.200  18.286  1.00  0.00     0.027 C 
HETATM   32  C18 UNL     1      11.752  18.346  19.291  1.00  0.00     0.002 C 
HETATM   33  C19 UNL     1      12.555  18.578  20.546  1.00  0.00     0.002 C 
HETATM   34  C20 UNL     1      13.966  18.380  20.037  1.00  0.00     0.027 C 
ENDBRANCH  26  30
ENDBRANCH  21  24
ENDBRANCH  19  20
ENDBRANCH  18  19
ENDBRANCH  17  18
ENDBRANCH  15  17
ENDBRANCH   2  13
BRANCH   1  35
HETATM   35  C6  UNL     1      20.049  24.447  15.727  1.00  0.00     0.228 C 
HETATM   36  N1  UNL     1      18.693  24.586  16.030  1.00  0.00    -0.340 N 
HETATM   37  C5  UNL     1      17.754  24.482  15.143  1.00  0.00     0.064 C 
ATOM     38  H1  UNL     1      18.429  24.780  16.996  1.00  0.00     0.167 HD
HETATM   39  O3  UNL     1      20.478  23.576  14.965  1.00  0.00    -0.273 OA
BRANCH  37  40
HETATM   40  C4  UNL     1      16.326  24.617  15.392  1.00  0.00     0.054 C 
BRANCH  40  41
HETATM   41  C3  UNL     1      15.670  23.332  15.838  1.00  0.00     0.116 C 
BRANCH  41  42
HETATM   42  C2  UNL     1      16.208  22.151  15.147  1.00  0.00     0.258 C 
HETATM   43  O2  UNL     1      16.873  21.314  15.773  1.00  0.00    -0.265 OA
BRANCH  42  44
HETATM   44  O1  UNL     1      15.968  21.986  13.804  1.00  0.00    -0.326 OA
HETATM   45  C1  UNL     1      14.854  21.319  13.274  1.00  0.00     0.213 C 
ENDBRANCH  42  44
ENDBRANCH  41  42
ENDBRANCH  40  41
ENDBRANCH  37  40
ENDBRANCH   1  35
TORSDOF 12
ENDMDL
MODEL 4
REMARK VINA RESULT: -9.212965907      3.650      6.136
REMARK  12 active torsions:
REMARK  status: ('A' for Active; 'I' for Inactive)
REMARK    1  A    between atoms: O1_2  and  C2_3 
REMARK    2  A    between atoms: C2_3  and  C3_5 
REMARK    3  A    between atoms: C3_5  and  C4_6 
REMARK    4  A    between atoms: C4_6  and  C5_7 
REMARK       I    between atoms: N1_8  and  C6_10 
REMARK    5  A    between atoms: C6_10  and  C7_12 
REMARK    6  A    between atoms: C8_13  and  C9_14 
REMARK       I    between atoms: C9_14  and  N2_16 
REMARK    7  A    between atoms: N2_16  and  C10_18 
REMARK    8  A    between atoms: C10_18  and  C11_19 
REMARK    9  A    between atoms: C11_19  and  C12_20 
REMARK   10  A    between atoms: C12_20  and  N3_21 
REMARK       I    between atoms: N3_21  and  C13_23 
REMARK   11  A    between atoms: C13_23  and  C14_25 
REMARK   12  A    between atoms: N4_27  and  C16_28 
ROOT
HETATM    1  C7  UNL     1      16.813  22.218  16.976  1.00  0.00     0.121 C 
HETATM    2  C8  UNL     1      16.231  23.379  17.651  1.00  0.00     0.094 C 
HETATM    3  C21 UNL     1      14.764  23.510  17.589  1.00  0.00     0.020 C 
HETATM    4  C22 UNL     1      14.013  22.542  16.723  1.00  0.00    -0.000 C 
HETATM    5  C23 UNL     1      14.006  22.856  15.272  1.00  0.00     0.037 C 
HETATM    6  C24 UNL     1      15.086  22.214  14.471  1.00  0.00     0.118 C 
HETATM    7  C25 UNL     1      14.466  21.627  13.186  1.00  0.00     0.039 C 
HETATM    8  O6  UNL     1      15.762  21.203  15.046  1.00  0.00    -0.379 OA
HETATM    9  C26 UNL     1      15.936  21.163  16.399  1.00  0.00     0.144 C 
HETATM   10  C27 UNL     1      14.570  21.179  17.042  1.00  0.00    -0.009 A 
HETATM   11  C28 UNL     1      14.255  20.527  18.308  1.00  0.00     0.013 A 
HETATM   12  C29 UNL     1      13.684  19.992  16.982  1.00  0.00     0.013 A 
ENDROOT
BRANCH   2  13
HETATM   13  C9  UNL     1      16.819  24.644  16.970  1.00  0.00     0.226 C 
HETATM   14  O4  UNL     1      16.804  25.683  17.633  1.00  0.00    -0.273 OA
HETATM   15  N2  UNL     1      17.302  24.475  15.676  1.00  0.00    -0.337 N 
ATOM     16  H2  UNL     1      17.206  23.516  15.343  1.00  0.00     0.168 HD
BRANCH  15  17
HETATM   17  C10 UNL     1      17.896  25.325  14.718  1.00  0.00     0.092 C 
BRANCH  17  18
HETATM   18  C11 UNL     1      18.982  26.234  15.031  1.00  0.00     0.034 C 
BRANCH  18  19
HETATM   19  C12 UNL     1      20.282  26.203  14.381  1.00  0.00     0.092 C 
BRANCH  19  20
HETATM   20  N3  UNL     1      21.475  26.597  14.998  1.00  0.00    -0.332 N 
HETATM   21  C13 UNL     1      21.887  27.783  15.586  1.00  0.00     0.274 C 
HETATM   22  O5  UNL     1      21.200  28.801  15.680  1.00  0.00    -0.266 OA
ATOM     23  H3  UNL     1      22.184  25.864  15.019  1.00  0.00     0.168 HD
BRANCH  21  24
HETATM   24  C14 UNL     1      23.258  27.898  16.173  1.00  0.00     0.131 A 
HETATM   25  C15 UNL     1      23.990  26.852  16.665  1.00  0.00     0.144 A 
HETATM   26  N4  UNL     1      25.177  27.328  17.123  1.00  0.00    -0.280 N 
HETATM   27  N5  UNL     1      25.153  28.634  16.907  1.00  0.00    -0.020 NA
HETATM   28  N6  UNL     1      24.002  28.988  16.335  1.00  0.00    -0.278 N 
ATOM     29  H6  UNL     1      23.737  29.935  16.067  1.00  0.00     0.184 HD
BRANCH  26  30
HETATM   30  C16 UNL     1      26.241  26.560  17.723  1.00  0.00     0.105 C 
HETATM   31  C17 UNL     1      26.564  25.299  16.980  1.00  0.00     0.027 C 
HETATM   32  C18 UNL     1      26.510  24.200  18.023  1.00  0.00     0.002 C 
HETATM   33  C19 UNL     1      25.435  24.711  18.949  1.00  0.00     0.002 C 
HETATM   34  C20 UNL     1      25.870  26.148  19.145  1.00  0.00     0.027 C 
ENDBRANCH  26  30
ENDBRANCH  21  24
ENDBRANCH  19  20
ENDBRANCH  18  19
ENDBRANCH  17  18
ENDBRANCH  15  17
ENDBRANCH   2  13
BRANCH   1  35
HETATM   35  C6  UNL     1      17.765  21.477  17.907  1.00  0.00     0.228 C 
HETATM   36  N1  UNL     1      18.473  22.189  18.878  1.00  0.00    -0.340 N 
HETATM   37  C5  UNL     1      18.641  21.759  20.089  1.00  0.00     0.064 C 
ATOM     38  H1  UNL     1      18.876  23.090  18.623  1.00  0.00     0.167 HD
HETATM   39  O3  UNL     1      17.874  20.257  17.760  1.00  0.00    -0.273 OA
BRANCH  37  40
HETATM   40  C4  UNL     1      19.366  22.450  21.147  1.00  0.00     0.054 C 
BRANCH  40  41
HETATM   41  C3  UNL     1      19.142  23.943  21.153  1.00  0.00     0.116 C 
BRANCH  41  42
HETATM   42  C2  UNL     1      20.284  24.689  20.606  1.00  0.00     0.258 C 
HETATM   43  O2  UNL     1      20.815  25.590  21.273  1.00  0.00    -0.265 OA
BRANCH  42  44
HETATM   44  O1  UNL     1      20.757  24.379  19.355  1.00  0.00    -0.326 OA
HETATM   45  C1  UNL     1      20.527  25.151  18.206  1.00  0.00     0.213 C 
ENDBRANCH  42  44
ENDBRANCH  41  42
ENDBRANCH  40  41
ENDBRANCH  37  40
ENDBRANCH   1  35
TORSDOF 12
ENDMDL
MODEL 5
REMARK VINA RESULT: -9.118650702      3.692      8.356
REMARK  12 active torsions:
REMARK  status: ('A' for Active; 'I' for Inactive)
REMARK    1  A    between atoms: O1_2  and  C2_3 
REMARK    2  A    between atoms: C2_3  and  C3_5 
REMARK    3  A    between atoms: C3_5  and  C4_6 
REMARK    4  A    between atoms: C4_6  and  C5_7 
REMARK       I    between atoms: N1_8  and  C6_10 
REMARK    5  A    between atoms: C6_10  and  C7_12 
REMARK    6  A    between atoms: C8_13  and  C9_14 
REMARK       I    between atoms: C9_14  and  N2_16 
REMARK    7  A    between atoms: N2_16  and  C10_18 
REMARK    8  A    between atoms: C10_18  and  C11_19 
REMARK    9  A    between atoms: C11_19  and  C12_20 
REMARK   10  A    between atoms: C12_20  and  N3_21 
REMARK       I    between atoms: N3_21  and  C13_23 
REMARK   11  A    between atoms: C13_23  and  C14_25 
REMARK   12  A    between atoms: N4_27  and  C16_28 
ROOT
HETATM    1  C7  UNL     1      18.110  22.339  17.895  1.00  0.00     0.121 C 
HETATM    2  C8  UNL     1      17.526  23.151  18.963  1.00  0.00     0.094 C 
HETATM    3  C21 UNL     1      17.123  24.523  18.602  1.00  0.00     0.020 C 
HETATM    4  C22 UNL     1      17.481  25.017  17.232  1.00  0.00    -0.000 C 
HETATM    5  C23 UNL     1      18.879  25.487  17.067  1.00  0.00     0.037 C 
HETATM    6  C24 UNL     1      19.849  24.464  16.583  1.00  0.00     0.118 C 
HETATM    7  C25 UNL     1      20.711  25.090  15.468  1.00  0.00     0.039 C 
HETATM    8  O6  UNL     1      19.341  23.333  16.062  1.00  0.00    -0.379 OA
HETATM    9  C26 UNL     1      18.143  22.844  16.496  1.00  0.00     0.144 C 
HETATM   10  C27 UNL     1      17.100  23.914  16.278  1.00  0.00    -0.009 A 
HETATM   11  C28 UNL     1      15.699  23.642  15.981  1.00  0.00     0.013 A 
HETATM   12  C29 UNL     1      16.626  24.253  14.915  1.00  0.00     0.013 A 
ENDROOT
BRANCH   2  13
HETATM   13  C9  UNL     1      18.600  23.283  20.075  1.00  0.00     0.226 C 
HETATM   14  O4  UNL     1      18.832  22.270  20.739  1.00  0.00    -0.273 OA
HETATM   15  N2  UNL     1      19.192  24.535  20.212  1.00  0.00    -0.337 N 
ATOM     16  H2  UNL     1      18.832  25.214  19.541  1.00  0.00     0.168 HD
BRANCH  15  17
HETATM   17  C10 UNL     1      20.175  25.082  21.064  1.00  0.00     0.092 C 
BRANCH  17  18
HETATM   18  C11 UNL     1      21.589  24.786  20.932  1.00  0.00     0.034 C 
BRANCH  18  19
HETATM   19  C12 UNL     1      22.212  24.318  19.705  1.00  0.00     0.092 C 
BRANCH  19  20
HETATM   20  N3  UNL     1      22.889  25.148  18.805  1.00  0.00    -0.332 N 
HETATM   21  C13 UNL     1      22.651  26.434  18.343  1.00  0.00     0.274 C 
HETATM   22  O5  UNL     1      21.703  27.142  18.683  1.00  0.00    -0.266 OA
ATOM     23  H3  UNL     1      23.727  24.722  18.409  1.00  0.00     0.168 HD
BRANCH  21  24
HETATM   24  C14 UNL     1      23.581  27.066  17.357  1.00  0.00     0.131 A 
HETATM   25  C15 UNL     1      24.724  26.488  16.876  1.00  0.00     0.144 A 
HETATM   26  N4  UNL     1      25.320  27.351  16.012  1.00  0.00    -0.280 N 
HETATM   27  N5  UNL     1      24.544  28.424  15.978  1.00  0.00    -0.020 NA
HETATM   28  N6  UNL     1      23.494  28.262  16.784  1.00  0.00    -0.278 N 
ATOM     29  H6  UNL     1      22.749  28.942  16.935  1.00  0.00     0.184 HD
BRANCH  26  30
HETATM   30  C16 UNL     1      26.547  27.136  15.285  1.00  0.00     0.105 C 
HETATM   31  C17 UNL     1      27.318  25.937  15.751  1.00  0.00     0.027 C 
HETATM   32  C18 UNL     1      28.719  26.450  16.022  1.00  0.00     0.002 C 
HETATM   33  C19 UNL     1      28.444  27.857  16.489  1.00  0.00     0.002 C 
HETATM   34  C20 UNL     1      27.475  28.338  15.430  1.00  0.00     0.027 C 
ENDBRANCH  26  30
ENDBRANCH  21  24
ENDBRANCH  19  20
ENDBRANCH  18  19
ENDBRANCH  17  18
ENDBRANCH  15  17
ENDBRANCH   2  13
BRANCH   1  35
HETATM   35  C6  UNL     1      17.420  20.984  17.812  1.00  0.00     0.228 C 
HETATM   36  N1  UNL     1      16.377  20.686  18.692  1.00  0.00    -0.340 N 
HETATM   37  C5  UNL     1      15.294  20.074  18.327  1.00  0.00     0.064 C 
ATOM     38  H1  UNL     1      16.472  20.962  19.669  1.00  0.00     0.167 HD
HETATM   39  O3  UNL     1      17.820  20.190  16.957  1.00  0.00    -0.273 OA
BRANCH  37  40
HETATM   40  C4  UNL     1      14.172  19.735  19.191  1.00  0.00     0.054 C 
BRANCH  40  41
HETATM   41  C3  UNL     1      13.265  18.676  18.611  1.00  0.00     0.116 C 
BRANCH  41  42
HETATM   42  C2  UNL     1      11.865  18.840  19.029  1.00  0.00     0.258 C 
HETATM   43  O2  UNL     1      11.056  19.410  18.283  1.00  0.00    -0.265 OA
BRANCH  42  44
HETATM   44  O1  UNL     1      11.463  18.355  20.250  1.00  0.00    -0.326 OA
HETATM   45  C1  UNL     1      12.166  17.394  20.993  1.00  0.00     0.213 C 
ENDBRANCH  42  44
ENDBRANCH  41  42
ENDBRANCH  40  41
ENDBRANCH  37  40
ENDBRANCH   1  35
TORSDOF 12
ENDMDL
