MODEL 1
REMARK VINA RESULT: -9.347444054      0.000      0.000
REMARK  4 active torsions:
REMARK  status: ('A' for Active; 'I' for Inactive)
REMARK    1  A    between atoms: N1_2  and  C2_4 
REMARK    2  A    between atoms: C7_15  and  N5_16 
REMARK       I    between atoms: N5_16  and  C8_18 
REMARK    3  A    between atoms: C8_18  and  C9_20 
REMARK    4  A    between atoms: C9_20  and  O2_23 
ROOT
HETATM    1  C2  UNL     1      51.158  -9.057  70.644  1.00  0.00     0.689 A 
HETATM    2  N2  UNL     1      50.575  -7.935  71.104  1.00  0.00    -0.192 N 
ATOM      3  H2  UNL     1      49.904  -7.875  71.868  1.00  0.00     0.184 HD
HETATM    4  C3  UNL     1      51.041  -6.909  70.373  1.00  0.00     0.068 A 
HETATM    5  C4  UNL     1      50.689  -5.473  70.505  1.00  0.00     0.073 C 
HETATM    6  C5  UNL     1      51.925  -7.448  69.452  1.00  0.00     0.157 A 
HETATM    7  N3  UNL     1      52.591  -6.695  68.541  1.00  0.00    -0.324 N 
ATOM      8  H3  UNL     1      52.733  -5.709  68.758  1.00  0.00     0.169 HD
HETATM    9  C6  UNL     1      53.087  -7.158  67.351  1.00  0.00     0.150 A 
HETATM   10  N4  UNL     1      53.217  -6.422  66.247  1.00  0.00    -0.174 N 
ATOM     11  H4  UNL     1      52.966  -5.438  66.156  1.00  0.00     0.186 HD
HETATM   12  C7  UNL     1      53.748  -7.216  65.244  1.00  0.00     0.689 A 
HETATM   13  N6  UNL     1      53.942  -8.443  65.750  1.00  0.00    -0.183 N 
HETATM   14  C12 UNL     1      54.464  -9.637  65.147  1.00  0.00     0.175 C 
HETATM   15  C13 UNL     1      53.538  -8.431  67.055  1.00  0.00     0.101 A 
HETATM   16  C14 UNL     1      53.579  -9.514  67.918  1.00  0.00     0.109 C 
HETATM   17  C15 UNL     1      52.702  -9.740  68.990  1.00  0.00     0.270 C 
HETATM   18  O3  UNL     1      52.599 -10.925  69.348  1.00  0.00    -0.267 OA
HETATM   19  N7  UNL     1      51.995  -8.784  69.626  1.00  0.00    -0.094 N 
ENDROOT
BRANCH  12  20
HETATM   20  N5  UNL     1      53.988  -6.805  64.071  1.00  0.00    -0.157 N 
HETATM   21  C8  UNL     1      53.201  -6.267  63.078  1.00  0.00     0.269 C 
HETATM   22  O1  UNL     1      52.660  -5.117  63.252  1.00  0.00    -0.269 OA
ATOM     23  H5  UNL     1      54.969  -6.889  63.806  1.00  0.00     0.187 HD
BRANCH  21  24
HETATM   24  C9  UNL     1      52.914  -6.927  61.769  1.00  0.00     0.132 C 
HETATM   25  C10 UNL     1      53.518  -8.286  61.659  1.00  0.00     0.056 C 
HETATM   26  C11 UNL     1      53.536  -5.983  60.722  1.00  0.00     0.056 C 
BRANCH  24  27
HETATM   27  O2  UNL     1      51.574  -6.973  61.471  1.00  0.00    -0.381 OA
ATOM     28  H2  UNL     1      51.326  -7.753  60.989  1.00  0.00     0.211 HD
ENDBRANCH  24  27
ENDBRANCH  21  24
ENDBRANCH  12  20
BRANCH   1  29
HETATM   29  N1  UNL     1      50.938 -10.215  71.118  1.00  0.00    -0.230 N 
HETATM   30  C1  UNL     1      50.914 -10.503  72.531  1.00  0.00     0.165 C 
ATOM     31  H1  UNL     1      50.769 -10.981  70.466  1.00  0.00     0.177 HD
ENDBRANCH   1  29
TORSDOF 4
ENDMDL
MODEL 2
REMARK VINA RESULT: -9.145417813      2.201      3.690
REMARK  4 active torsions:
REMARK  status: ('A' for Active; 'I' for Inactive)
REMARK    1  A    between atoms: N1_2  and  C2_4 
REMARK    2  A    between atoms: C7_15  and  N5_16 
REMARK       I    between atoms: N5_16  and  C8_18 
REMARK    3  A    between atoms: C8_18  and  C9_20 
REMARK    4  A    between atoms: C9_20  and  O2_23 
ROOT
HETATM    1  C2  UNL     1      53.146 -11.741  69.312  1.00  0.00     0.689 A 
HETATM    2  N2  UNL     1      53.700 -12.858  68.807  1.00  0.00    -0.192 N 
ATOM      3  H2  UNL     1      53.979 -13.684  69.336  1.00  0.00     0.184 HD
HETATM    4  C3  UNL     1      53.819 -12.687  67.480  1.00  0.00     0.068 A 
HETATM    5  C4  UNL     1      54.375 -13.644  66.491  1.00  0.00     0.073 C 
HETATM    6  C5  UNL     1      53.318 -11.426  67.198  1.00  0.00     0.157 A 
HETATM    7  N3  UNL     1      53.278 -10.912  65.943  1.00  0.00    -0.324 N 
ATOM      8  H3  UNL     1      53.269 -11.570  65.164  1.00  0.00     0.169 HD
HETATM    9  C6  UNL     1      53.250  -9.576  65.642  1.00  0.00     0.150 A 
HETATM   10  N4  UNL     1      53.761  -9.039  64.534  1.00  0.00    -0.174 N 
ATOM     11  H4  UNL     1      54.228  -9.551  63.786  1.00  0.00     0.186 HD
HETATM   12  C7  UNL     1      53.552  -7.669  64.567  1.00  0.00     0.689 A 
HETATM   13  N6  UNL     1      52.907  -7.380  65.707  1.00  0.00    -0.183 N 
HETATM   14  C12 UNL     1      52.452  -6.126  66.237  1.00  0.00     0.175 C 
HETATM   15  C13 UNL     1      52.710  -8.547  66.390  1.00  0.00     0.101 A 
HETATM   16  C14 UNL     1      52.078  -8.661  67.618  1.00  0.00     0.109 C 
HETATM   17  C15 UNL     1      52.347  -9.638  68.588  1.00  0.00     0.270 C 
HETATM   18  O3  UNL     1      52.035  -9.329  69.751  1.00  0.00    -0.267 OA
HETATM   19  N7  UNL     1      52.901 -10.843  68.341  1.00  0.00    -0.094 N 
ENDROOT
BRANCH  12  20
HETATM   20  N5  UNL     1      53.927  -6.876  63.654  1.00  0.00    -0.157 N 
HETATM   21  C8  UNL     1      53.254  -6.149  62.699  1.00  0.00     0.269 C 
HETATM   22  O1  UNL     1      52.480  -5.192  63.061  1.00  0.00    -0.269 OA
ATOM     23  H5  UNL     1      54.938  -6.749  63.620  1.00  0.00     0.187 HD
BRANCH  21  24
HETATM   24  C9  UNL     1      53.353  -6.382  61.227  1.00  0.00     0.132 C 
HETATM   25  C10 UNL     1      53.636  -5.136  60.459  1.00  0.00     0.056 C 
HETATM   26  C11 UNL     1      51.972  -6.945  60.837  1.00  0.00     0.056 C 
BRANCH  24  27
HETATM   27  O2  UNL     1      54.256  -7.363  60.896  1.00  0.00    -0.381 OA
ATOM     28  H2  UNL     1      54.267  -8.084  61.515  1.00  0.00     0.211 HD
ENDBRANCH  24  27
ENDBRANCH  21  24
ENDBRANCH  12  20
BRANCH   1  29
HETATM   29  N1  UNL     1      52.894 -11.571  70.546  1.00  0.00    -0.230 N 
HETATM   30  C1  UNL     1      53.896 -11.655  71.580  1.00  0.00     0.165 C 
ATOM     31  H1  UNL     1      51.933 -11.365  70.819  1.00  0.00     0.177 HD
ENDBRANCH   1  29
TORSDOF 4
ENDMDL
MODEL 3
REMARK VINA RESULT: -9.001551759      1.006      1.280
REMARK  4 active torsions:
REMARK  status: ('A' for Active; 'I' for Inactive)
REMARK    1  A    between atoms: N1_2  and  C2_4 
REMARK    2  A    between atoms: C7_15  and  N5_16 
REMARK       I    between atoms: N5_16  and  C8_18 
REMARK    3  A    between atoms: C8_18  and  C9_20 
REMARK    4  A    between atoms: C9_20  and  O2_23 
ROOT
HETATM    1  C2  UNL     1      51.146  -9.101  70.477  1.00  0.00     0.689 A 
HETATM    2  N2  UNL     1      50.592  -8.061  71.126  1.00  0.00    -0.192 N 
ATOM      3  H2  UNL     1      50.057  -8.106  71.992  1.00  0.00     0.184 HD
HETATM    4  C3  UNL     1      50.874  -6.950  70.424  1.00  0.00     0.068 A 
HETATM    5  C4  UNL     1      50.477  -5.556  70.741  1.00  0.00     0.073 C 
HETATM    6  C5  UNL     1      51.617  -7.354  69.326  1.00  0.00     0.157 A 
HETATM    7  N3  UNL     1      52.080  -6.488  68.389  1.00  0.00    -0.324 N 
ATOM      8  H3  UNL     1      52.205  -5.515  68.668  1.00  0.00     0.169 HD
HETATM    9  C6  UNL     1      52.391  -6.820  67.098  1.00  0.00     0.150 A 
HETATM   10  N4  UNL     1      52.294  -5.992  66.058  1.00  0.00    -0.174 N 
ATOM     11  H4  UNL     1      51.981  -5.022  66.099  1.00  0.00     0.186 HD
HETATM   12  C7  UNL     1      52.688  -6.665  64.914  1.00  0.00     0.689 A 
HETATM   13  N6  UNL     1      53.028  -7.914  65.269  1.00  0.00    -0.183 N 
HETATM   14  C12 UNL     1      53.501  -9.018  64.484  1.00  0.00     0.175 C 
HETATM   15  C13 UNL     1      52.850  -8.033  66.618  1.00  0.00     0.101 A 
HETATM   16  C14 UNL     1      53.092  -9.177  67.362  1.00  0.00     0.109 C 
HETATM   17  C15 UNL     1      52.422  -9.546  68.538  1.00  0.00     0.270 C 
HETATM   18  O3  UNL     1      52.442 -10.760  68.800  1.00  0.00    -0.267 OA
HETATM   19  N7  UNL     1      51.783  -8.693  69.364  1.00  0.00    -0.094 N 
ENDROOT
BRANCH  12  20
HETATM   20  N5  UNL     1      52.705  -6.146  63.759  1.00  0.00    -0.157 N 
HETATM   21  C8  UNL     1      52.372  -6.612  62.508  1.00  0.00     0.269 C 
HETATM   22  O1  UNL     1      51.148  -6.895  62.243  1.00  0.00    -0.269 OA
ATOM     23  H5  UNL     1      53.034  -5.181  63.755  1.00  0.00     0.187 HD
BRANCH  21  24
HETATM   24  C9  UNL     1      53.341  -6.823  61.392  1.00  0.00     0.132 C 
HETATM   25  C10 UNL     1      53.699  -5.558  60.686  1.00  0.00     0.056 C 
HETATM   26  C11 UNL     1      52.613  -7.781  60.430  1.00  0.00     0.056 C 
BRANCH  24  27
HETATM   27  O2  UNL     1      54.478  -7.489  61.784  1.00  0.00    -0.381 OA
ATOM     28  H2  UNL     1      55.276  -7.014  61.584  1.00  0.00     0.211 HD
ENDBRANCH  24  27
ENDBRANCH  21  24
ENDBRANCH  12  20
BRANCH   1  29
HETATM   29  N1  UNL     1      51.069 -10.305  70.875  1.00  0.00    -0.230 N 
HETATM   30  C1  UNL     1      50.938 -10.676  72.262  1.00  0.00     0.165 C 
ATOM     31  H1  UNL     1      51.102 -11.048  70.176  1.00  0.00     0.177 HD
ENDBRANCH   1  29
TORSDOF 4
ENDMDL
MODEL 4
REMARK VINA RESULT: -8.999823045      2.295      3.782
REMARK  4 active torsions:
REMARK  status: ('A' for Active; 'I' for Inactive)
REMARK    1  A    between atoms: N1_2  and  C2_4 
REMARK    2  A    between atoms: C7_15  and  N5_16 
REMARK       I    between atoms: N5_16  and  C8_18 
REMARK    3  A    between atoms: C8_18  and  C9_20 
REMARK    4  A    between atoms: C9_20  and  O2_23 
ROOT
HETATM    1  C2  UNL     1      53.666 -12.134  69.434  1.00  0.00     0.689 A 
HETATM    2  N2  UNL     1      54.007 -13.293  68.845  1.00  0.00    -0.192 N 
ATOM      3  H2  UNL     1      54.283 -14.152  69.320  1.00  0.00     0.184 HD
HETATM    4  C3  UNL     1      53.918 -13.114  67.516  1.00  0.00     0.068 A 
HETATM    5  C4  UNL     1      54.198 -14.108  66.450  1.00  0.00     0.073 C 
HETATM    6  C5  UNL     1      53.512 -11.804  67.320  1.00  0.00     0.157 A 
HETATM    7  N3  UNL     1      53.316 -11.268  66.089  1.00  0.00    -0.324 N 
ATOM      8  H3  UNL     1      53.108 -11.910  65.324  1.00  0.00     0.169 HD
HETATM    9  C6  UNL     1      53.377  -9.933  65.794  1.00  0.00     0.150 A 
HETATM   10  N4  UNL     1      53.748  -9.433  64.616  1.00  0.00    -0.174 N 
ATOM     11  H4  UNL     1      54.027  -9.979  63.801  1.00  0.00     0.186 HD
HETATM   12  C7  UNL     1      53.693  -8.050  64.681  1.00  0.00     0.689 A 
HETATM   13  N6  UNL     1      53.282  -7.714  65.913  1.00  0.00    -0.183 N 
HETATM   14  C12 UNL     1      53.056  -6.428  66.510  1.00  0.00     0.175 C 
HETATM   15  C13 UNL     1      53.082  -8.865  66.621  1.00  0.00     0.101 A 
HETATM   16  C14 UNL     1      52.656  -8.933  67.938  1.00  0.00     0.109 C 
HETATM   17  C15 UNL     1      52.980  -9.948  68.851  1.00  0.00     0.270 C 
HETATM   18  O3  UNL     1      52.902  -9.627  70.049  1.00  0.00    -0.267 OA
HETATM   19  N7  UNL     1      53.356 -11.199  68.516  1.00  0.00    -0.094 N 
ENDROOT
BRANCH  12  20
HETATM   20  N5  UNL     1      53.990  -7.286  63.717  1.00  0.00    -0.157 N 
HETATM   21  C8  UNL     1      53.248  -6.468  62.895  1.00  0.00     0.269 C 
HETATM   22  O1  UNL     1      52.663  -5.437  63.389  1.00  0.00    -0.269 OA
ATOM     23  H5  UNL     1      54.987  -7.273  63.504  1.00  0.00     0.187 HD
BRANCH  21  24
HETATM   24  C9  UNL     1      53.059  -6.680  61.429  1.00  0.00     0.132 C 
HETATM   25  C10 UNL     1      53.881  -7.803  60.894  1.00  0.00     0.056 C 
HETATM   26  C11 UNL     1      53.499  -5.348  60.792  1.00  0.00     0.056 C 
BRANCH  24  27
HETATM   27  O2  UNL     1      51.741  -6.840  61.073  1.00  0.00    -0.381 OA
ATOM     28  H2  UNL     1      51.631  -7.134  60.177  1.00  0.00     0.211 HD
ENDBRANCH  24  27
ENDBRANCH  21  24
ENDBRANCH  12  20
BRANCH   1  29
HETATM   29  N1  UNL     1      53.643 -11.958  70.692  1.00  0.00    -0.230 N 
HETATM   30  C1  UNL     1      54.800 -12.122  71.537  1.00  0.00     0.165 C 
ATOM     31  H1  UNL     1      52.761 -11.687  71.127  1.00  0.00     0.177 HD
ENDBRANCH   1  29
TORSDOF 4
ENDMDL
MODEL 5
REMARK VINA RESULT: -8.846067493      1.268      1.523
REMARK  4 active torsions:
REMARK  status: ('A' for Active; 'I' for Inactive)
REMARK    1  A    between atoms: N1_2  and  C2_4 
REMARK    2  A    between atoms: C7_15  and  N5_16 
REMARK       I    between atoms: N5_16  and  C8_18 
REMARK    3  A    between atoms: C8_18  and  C9_20 
REMARK    4  A    between atoms: C9_20  and  O2_23 
ROOT
HETATM    1  C2  UNL     1      51.520  -8.401  71.482  1.00  0.00     0.689 A 
HETATM    2  N2  UNL     1      50.898  -7.255  71.811  1.00  0.00    -0.192 N 
ATOM      3  H2  UNL     1      50.428  -7.057  72.694  1.00  0.00     0.184 HD
HETATM    4  C3  UNL     1      51.009  -6.419  70.765  1.00  0.00     0.068 A 
HETATM    5  C4  UNL     1      50.481  -5.037  70.653  1.00  0.00     0.073 C 
HETATM    6  C5  UNL     1      51.720  -7.100  69.790  1.00  0.00     0.157 A 
HETATM    7  N3  UNL     1      52.023  -6.557  68.584  1.00  0.00    -0.324 N 
ATOM      8  H3  UNL     1      52.058  -5.539  68.521  1.00  0.00     0.169 HD
HETATM    9  C6  UNL     1      52.285  -7.270  67.444  1.00  0.00     0.150 A 
HETATM   10  N4  UNL     1      52.031  -6.842  66.208  1.00  0.00    -0.174 N 
ATOM     11  H4  UNL     1      51.616  -5.943  65.964  1.00  0.00     0.186 HD
HETATM   12  C7  UNL     1      52.423  -7.820  65.309  1.00  0.00     0.689 A 
HETATM   13  N6  UNL     1      52.920  -8.848  66.013  1.00  0.00    -0.183 N 
HETATM   14  C12 UNL     1      53.461 -10.107  65.583  1.00  0.00     0.175 C 
HETATM   15  C13 UNL     1      52.844  -8.530  67.339  1.00  0.00     0.101 A 
HETATM   16  C14 UNL     1      53.258  -9.340  68.384  1.00  0.00     0.109 C 
HETATM   17  C15 UNL     1      52.710  -9.354  69.675  1.00  0.00     0.270 C 
HETATM   18  O3  UNL     1      52.881 -10.408  70.311  1.00  0.00    -0.267 OA
HETATM   19  N7  UNL     1      52.035  -8.332  70.241  1.00  0.00    -0.094 N 
ENDROOT
BRANCH  12  20
HETATM   20  N5  UNL     1      52.308  -7.712  64.053  1.00  0.00    -0.157 N 
HETATM   21  C8  UNL     1      53.200  -7.436  63.042  1.00  0.00     0.269 C 
HETATM   22  O1  UNL     1      54.132  -8.276  62.774  1.00  0.00    -0.269 OA
ATOM     23  H5  UNL     1      51.355  -7.860  63.721  1.00  0.00     0.187 HD
BRANCH  21  24
HETATM   24  C9  UNL     1      53.175  -6.204  62.199  1.00  0.00     0.132 C 
HETATM   25  C10 UNL     1      51.851  -5.517  62.212  1.00  0.00     0.056 C 
HETATM   26  C11 UNL     1      53.499  -6.707  60.779  1.00  0.00     0.056 C 
BRANCH  24  27
HETATM   27  O2  UNL     1      54.177  -5.317  62.512  1.00  0.00    -0.381 OA
ATOM     28  H2  UNL     1      55.043  -5.640  62.293  1.00  0.00     0.211 HD
ENDBRANCH  24  27
ENDBRANCH  21  24
ENDBRANCH  12  20
BRANCH   1  29
HETATM   29  N1  UNL     1      51.602  -9.409  72.252  1.00  0.00    -0.230 N 
HETATM   30  C1  UNL     1      50.714  -9.631  73.366  1.00  0.00     0.165 C 
ATOM     31  H1  UNL     1      52.335 -10.096  72.073  1.00  0.00     0.177 HD
ENDBRANCH   1  29
TORSDOF 4
ENDMDL
