MODEL 1
REMARK VINA RESULT: -9.080330566      0.000      0.000
REMARK  4 active torsions:
REMARK  status: ('A' for Active; 'I' for Inactive)
REMARK    1  A    between atoms: C4_4  and  N1_5 
REMARK    2  A    between atoms: N1_5  and  C5_7 
REMARK    3  A    between atoms: C7_10  and  C8_11 
REMARK    4  A    between atoms: C8_11  and  O1_12 
ROOT
HETATM    1  C8  UNL     1      53.508 -12.004  67.327  1.00  0.00     0.181 C 
HETATM    2  N3  UNL     1      54.447 -12.889  67.768  1.00  0.00    -0.267 N 
HETATM    3  C9  UNL     1      55.374 -12.872  68.827  1.00  0.00     0.171 C 
HETATM    4  C10 UNL     1      54.524 -14.137  66.995  1.00  0.00     0.186 C 
HETATM    5  N4  UNL     1      54.569 -15.111  66.374  1.00  0.00    -0.172 NA
ENDROOT
BRANCH   1   6
HETATM    6  C7  UNL     1      53.018 -10.717  67.740  1.00  0.00     0.130 A 
HETATM    7  N2  UNL     1      53.066  -9.614  66.882  1.00  0.00    -0.149 N 
HETATM    8  C6  UNL     1      53.576  -9.406  65.654  1.00  0.00     0.151 A 
HETATM    9  C13 UNL     1      52.472  -8.562  67.464  1.00  0.00     0.694 A 
HETATM   10  C5  UNL     1      53.505  -8.170  64.989  1.00  0.00     0.120 A 
HETATM   11  C15 UNL     1      52.877  -7.157  65.667  1.00  0.00     0.289 A 
HETATM   12  N6  UNL     1      52.363  -7.325  66.881  1.00  0.00    -0.149 N 
HETATM   13  O2  UNL     1      52.777  -6.023  65.134  1.00  0.00    -0.265 OA
HETATM   14  C14 UNL     1      51.692  -6.281  67.631  1.00  0.00     0.179 C 
HETATM   15  N5  UNL     1      52.049  -8.961  68.662  1.00  0.00    -0.193 N 
HETATM   16  C11 UNL     1      52.373 -10.277  68.850  1.00  0.00     0.055 A 
ATOM     17  H5  UNL     1      51.558  -8.374  69.337  1.00  0.00     0.184 HD
HETATM   18  C12 UNL     1      51.994 -11.013  70.061  1.00  0.00     0.071 C 
BRANCH  10  19
HETATM   19  N1  UNL     1      54.048  -8.011  63.724  1.00  0.00    -0.336 N 
ATOM     20  H1  UNL     1      55.066  -7.975  63.672  1.00  0.00     0.168 HD
BRANCH  19  21
HETATM   21  C4  UNL     1      53.425  -7.905  62.620  1.00  0.00     0.122 A 
HETATM   22  C3  UNL     1      53.805  -8.581  61.469  1.00  0.00     0.075 A 
HETATM   23  C2  UNL     1      52.937  -8.256  60.455  1.00  0.00     0.025 A 
HETATM   24  C1  UNL     1      53.033  -8.794  59.072  1.00  0.00     0.070 C 
HETATM   25  N8  UNL     1      52.052  -7.404  60.982  1.00  0.00    -0.304 N 
HETATM   26  N7  UNL     1      52.345  -7.194  62.276  1.00  0.00    -0.285 N 
ATOM     27  H8  UNL     1      51.274  -6.978  60.479  1.00  0.00     0.186 HD
ATOM     28  H7  UNL     1      51.821  -6.584  62.903  1.00  0.00     0.188 HD
ENDBRANCH  19  21
ENDBRANCH  10  19
ENDBRANCH   1   6
BRANCH   1  29
HETATM   29  O1  UNL     1      52.917 -12.501  66.216  1.00  0.00    -0.344 OA
ATOM     30  H1  UNL     1      52.984 -13.444  66.121  1.00  0.00     0.219 HD
ENDBRANCH   1  29
TORSDOF 4
ENDMDL
MODEL 2
REMARK VINA RESULT: -8.877856071      2.822      6.091
REMARK  4 active torsions:
REMARK  status: ('A' for Active; 'I' for Inactive)
REMARK    1  A    between atoms: C4_4  and  N1_5 
REMARK    2  A    between atoms: N1_5  and  C5_7 
REMARK    3  A    between atoms: C7_10  and  C8_11 
REMARK    4  A    between atoms: C8_11  and  O1_12 
ROOT
HETATM    1  C8  UNL     1      52.686 -11.653  68.934  1.00  0.00     0.181 C 
HETATM    2  N3  UNL     1      52.922 -11.681  70.276  1.00  0.00    -0.267 N 
HETATM    3  C9  UNL     1      53.849 -11.032  71.112  1.00  0.00     0.171 C 
HETATM    4  C10 UNL     1      52.028 -12.567  71.037  1.00  0.00     0.186 C 
HETATM    5  N4  UNL     1      51.315 -13.267  71.617  1.00  0.00    -0.172 NA
ENDROOT
BRANCH   1   6
HETATM    6  C7  UNL     1      53.221 -10.948  67.800  1.00  0.00     0.130 A 
HETATM    7  N2  UNL     1      52.978  -9.584  67.615  1.00  0.00    -0.149 N 
HETATM    8  C6  UNL     1      52.228  -8.671  68.259  1.00  0.00     0.151 A 
HETATM    9  C13 UNL     1      53.655  -9.145  66.542  1.00  0.00     0.694 A 
HETATM   10  C5  UNL     1      52.137  -7.327  67.860  1.00  0.00     0.120 A 
HETATM   11  C15 UNL     1      52.866  -6.978  66.752  1.00  0.00     0.289 A 
HETATM   12  N6  UNL     1      53.617  -7.851  66.090  1.00  0.00    -0.149 N 
HETATM   13  O2  UNL     1      52.833  -5.791  66.337  1.00  0.00    -0.265 OA
HETATM   14  C14 UNL     1      54.402  -7.522  64.916  1.00  0.00     0.179 C 
HETATM   15  N5  UNL     1      54.318 -10.186  66.042  1.00  0.00    -0.193 N 
HETATM   16  C11 UNL     1      54.066 -11.299  66.799  1.00  0.00     0.055 A 
ATOM     17  H5  UNL     1      54.922 -10.158  65.220  1.00  0.00     0.184 HD
HETATM   18  C12 UNL     1      54.696 -12.594  66.521  1.00  0.00     0.071 C 
BRANCH  10  19
HETATM   19  N1  UNL     1      51.348  -6.429  68.561  1.00  0.00    -0.336 N 
ATOM     20  H1  UNL     1      50.733  -5.838  68.002  1.00  0.00     0.168 HD
BRANCH  19  21
HETATM   21  C4  UNL     1      51.302  -6.254  69.820  1.00  0.00     0.122 A 
HETATM   22  C3  UNL     1      50.207  -6.613  70.593  1.00  0.00     0.075 A 
HETATM   23  C2  UNL     1      50.465  -6.297  71.905  1.00  0.00     0.025 A 
HETATM   24  C1  UNL     1      49.517  -6.540  73.023  1.00  0.00     0.070 C 
HETATM   25  N8  UNL     1      51.690  -5.760  71.923  1.00  0.00    -0.304 N 
HETATM   26  N7  UNL     1      52.189  -5.734  70.677  1.00  0.00    -0.285 N 
ATOM     27  H8  UNL     1      52.172  -5.421  72.756  1.00  0.00     0.186 HD
ATOM     28  H7  UNL     1      53.107  -5.372  70.421  1.00  0.00     0.188 HD
ENDBRANCH  19  21
ENDBRANCH  10  19
ENDBRANCH   1   6
BRANCH   1  29
HETATM   29  O1  UNL     1      51.696 -12.526  68.638  1.00  0.00    -0.344 OA
ATOM     30  H1  UNL     1      51.585 -12.698  67.711  1.00  0.00     0.219 HD
ENDBRANCH   1  29
TORSDOF 4
ENDMDL
MODEL 3
REMARK VINA RESULT: -8.748042105      2.555      4.758
REMARK  4 active torsions:
REMARK  status: ('A' for Active; 'I' for Inactive)
REMARK    1  A    between atoms: C4_4  and  N1_5 
REMARK    2  A    between atoms: N1_5  and  C5_7 
REMARK    3  A    between atoms: C7_10  and  C8_11 
REMARK    4  A    between atoms: C8_11  and  O1_12 
ROOT
HETATM    1  C8  UNL     1      51.375  -8.529  70.352  1.00  0.00     0.181 C 
HETATM    2  N3  UNL     1      51.393  -7.849  71.533  1.00  0.00    -0.267 N 
HETATM    3  C9  UNL     1      52.207  -7.916  72.679  1.00  0.00     0.171 C 
HETATM    4  C10 UNL     1      50.355  -6.816  71.661  1.00  0.00     0.186 C 
HETATM    5  N4  UNL     1      49.532  -6.008  71.742  1.00  0.00    -0.172 NA
ENDROOT
BRANCH   1   6
HETATM    6  C7  UNL     1      52.166  -9.558  69.734  1.00  0.00     0.130 A 
HETATM    7  N2  UNL     1      52.920  -9.299  68.585  1.00  0.00    -0.149 N 
HETATM    8  C6  UNL     1      53.055  -8.234  67.775  1.00  0.00     0.151 A 
HETATM    9  C13 UNL     1      53.635 -10.387  68.258  1.00  0.00     0.694 A 
HETATM   10  C5  UNL     1      53.890  -8.225  66.644  1.00  0.00     0.120 A 
HETATM   11  C15 UNL     1      54.579  -9.384  66.396  1.00  0.00     0.289 A 
HETATM   12  N6  UNL     1      54.470 -10.457  67.172  1.00  0.00    -0.149 N 
HETATM   13  O2  UNL     1      55.344  -9.449  65.401  1.00  0.00    -0.265 OA
HETATM   14  C14 UNL     1      55.180 -11.700  66.944  1.00  0.00     0.179 C 
HETATM   15  N5  UNL     1      53.359 -11.326  69.161  1.00  0.00    -0.193 N 
HETATM   16  C11 UNL     1      52.462 -10.838  70.074  1.00  0.00     0.055 A 
ATOM     17  H5  UNL     1      53.755 -12.266  69.172  1.00  0.00     0.184 HD
HETATM   18  C12 UNL     1      52.003 -11.627  71.221  1.00  0.00     0.071 C 
BRANCH  10  19
HETATM   19  N1  UNL     1      53.991  -7.098  65.844  1.00  0.00    -0.336 N 
ATOM     20  H1  UNL     1      54.248  -6.232  66.318  1.00  0.00     0.168 HD
BRANCH  19  21
HETATM   21  C4  UNL     1      53.802  -7.016  64.589  1.00  0.00     0.122 A 
HETATM   22  C3  UNL     1      52.572  -6.703  64.029  1.00  0.00     0.075 A 
HETATM   23  C2  UNL     1      52.695  -6.694  62.660  1.00  0.00     0.025 A 
HETATM   24  C1  UNL     1      51.579  -6.396  61.725  1.00  0.00     0.070 C 
HETATM   25  N8  UNL     1      53.972  -6.995  62.401  1.00  0.00    -0.304 N 
HETATM   26  N7  UNL     1      54.633  -7.187  63.554  1.00  0.00    -0.285 N 
ATOM     27  H8  UNL     1      54.382  -7.066  61.470  1.00  0.00     0.186 HD
ATOM     28  H7  UNL     1      55.620  -7.428  63.630  1.00  0.00     0.188 HD
ENDBRANCH  19  21
ENDBRANCH  10  19
ENDBRANCH   1   6
BRANCH   1  29
HETATM   29  O1  UNL     1      50.329  -8.100  69.608  1.00  0.00    -0.344 OA
ATOM     30  H1  UNL     1      49.475  -8.296  69.975  1.00  0.00     0.219 HD
ENDBRANCH   1  29
TORSDOF 4
ENDMDL
MODEL 4
REMARK VINA RESULT: -8.668069125      1.766      2.348
REMARK  4 active torsions:
REMARK  status: ('A' for Active; 'I' for Inactive)
REMARK    1  A    between atoms: C4_4  and  N1_5 
REMARK    2  A    between atoms: N1_5  and  C5_7 
REMARK    3  A    between atoms: C7_10  and  C8_11 
REMARK    4  A    between atoms: C8_11  and  O1_12 
ROOT
HETATM    1  C8  UNL     1      53.477 -12.181  68.115  1.00  0.00     0.181 C 
HETATM    2  N3  UNL     1      54.387 -12.474  67.143  1.00  0.00    -0.267 N 
HETATM    3  C9  UNL     1      55.439 -11.752  66.550  1.00  0.00     0.171 C 
HETATM    4  C10 UNL     1      54.272 -13.829  66.584  1.00  0.00     0.186 C 
HETATM    5  N4  UNL     1      54.165 -14.898  66.158  1.00  0.00    -0.172 NA
ENDROOT
BRANCH   1   6
HETATM    6  C7  UNL     1      53.202 -11.064  68.978  1.00  0.00     0.130 A 
HETATM    7  N2  UNL     1      52.715  -9.857  68.467  1.00  0.00    -0.149 N 
HETATM    8  C6  UNL     1      52.478  -9.394  67.225  1.00  0.00     0.151 A 
HETATM    9  C13 UNL     1      52.456  -9.010  69.475  1.00  0.00     0.694 A 
HETATM   10  C5  UNL     1      51.986  -8.104  66.964  1.00  0.00     0.120 A 
HETATM   11  C15 UNL     1      51.753  -7.316  68.061  1.00  0.00     0.289 A 
HETATM   12  N6  UNL     1      51.976  -7.737  69.301  1.00  0.00    -0.149 N 
HETATM   13  O2  UNL     1      51.312  -6.149  67.903  1.00  0.00    -0.265 OA
HETATM   14  C14 UNL     1      51.742  -6.936  70.486  1.00  0.00     0.179 C 
HETATM   15  N5  UNL     1      52.763  -9.640  70.607  1.00  0.00    -0.193 N 
HETATM   16  C11 UNL     1      53.220 -10.899  70.324  1.00  0.00     0.055 A 
ATOM     17  H5  UNL     1      52.670  -9.245  71.543  1.00  0.00     0.184 HD
HETATM   18  C12 UNL     1      53.592 -11.853  71.375  1.00  0.00     0.071 C 
BRANCH  10  19
HETATM   19  N1  UNL     1      51.760  -7.680  65.664  1.00  0.00    -0.336 N 
ATOM     20  H1  UNL     1      50.783  -7.596  65.382  1.00  0.00     0.168 HD
BRANCH  19  21
HETATM   21  C4  UNL     1      52.626  -7.382  64.782  1.00  0.00     0.122 A 
HETATM   22  C3  UNL     1      52.323  -7.262  63.434  1.00  0.00     0.075 A 
HETATM   23  C2  UNL     1      53.467  -6.934  62.747  1.00  0.00     0.025 A 
HETATM   24  C1  UNL     1      53.524  -6.722  61.277  1.00  0.00     0.070 C 
HETATM   25  N8  UNL     1      54.439  -6.856  63.662  1.00  0.00    -0.304 N 
HETATM   26  N7  UNL     1      53.936  -7.125  64.878  1.00  0.00    -0.285 N 
ATOM     27  H8  UNL     1      55.414  -6.628  63.466  1.00  0.00     0.186 HD
ATOM     28  H7  UNL     1      54.473  -7.131  65.745  1.00  0.00     0.188 HD
ENDBRANCH  19  21
ENDBRANCH  10  19
ENDBRANCH   1   6
BRANCH   1  29
HETATM   29  O1  UNL     1      52.638 -13.232  68.269  1.00  0.00    -0.344 OA
ATOM     30  H1  UNL     1      53.054 -14.083  68.195  1.00  0.00     0.219 HD
ENDBRANCH   1  29
TORSDOF 4
ENDMDL
MODEL 5
REMARK VINA RESULT: -8.566221257      1.661      1.726
REMARK  4 active torsions:
REMARK  status: ('A' for Active; 'I' for Inactive)
REMARK    1  A    between atoms: C4_4  and  N1_5 
REMARK    2  A    between atoms: N1_5  and  C5_7 
REMARK    3  A    between atoms: C7_10  and  C8_11 
REMARK    4  A    between atoms: C8_11  and  O1_12 
ROOT
HETATM    1  C8  UNL     1      53.006 -12.218  68.709  1.00  0.00     0.181 C 
HETATM    2  N3  UNL     1      54.167 -12.835  68.352  1.00  0.00    -0.267 N 
HETATM    3  C9  UNL     1      55.466 -12.372  68.071  1.00  0.00     0.171 C 
HETATM    4  C10 UNL     1      54.073 -14.298  68.234  1.00  0.00     0.186 C 
HETATM    5  N4  UNL     1      53.978 -15.447  68.148  1.00  0.00    -0.172 NA
ENDROOT
BRANCH   1   6
HETATM    6  C7  UNL     1      52.590 -10.871  68.993  1.00  0.00     0.130 A 
HETATM    7  N2  UNL     1      52.568  -9.894  67.992  1.00  0.00    -0.149 N 
HETATM    8  C6  UNL     1      52.947  -9.868  66.701  1.00  0.00     0.151 A 
HETATM    9  C13 UNL     1      52.062  -8.753  68.485  1.00  0.00     0.694 A 
HETATM   10  C5  UNL     1      52.830  -8.730  65.886  1.00  0.00     0.120 A 
HETATM   11  C15 UNL     1      52.300  -7.614  66.482  1.00  0.00     0.289 A 
HETATM   12  N6  UNL     1      51.917  -7.601  67.754  1.00  0.00    -0.149 N 
HETATM   13  O2  UNL     1      52.166  -6.558  65.813  1.00  0.00    -0.265 OA
HETATM   14  C14 UNL     1      51.352  -6.444  68.420  1.00  0.00     0.179 C 
HETATM   15  N5  UNL     1      51.762  -8.975  69.763  1.00  0.00    -0.193 N 
HETATM   16  C11 UNL     1      52.078 -10.265  70.093  1.00  0.00     0.055 A 
ATOM     17  H5  UNL     1      51.359  -8.287  70.400  1.00  0.00     0.184 HD
HETATM   18  C12 UNL     1      51.816 -10.820  71.425  1.00  0.00     0.071 C 
BRANCH  10  19
HETATM   19  N1  UNL     1      53.236  -8.760  64.561  1.00  0.00    -0.336 N 
ATOM     20  H1  UNL     1      53.461  -9.679  64.180  1.00  0.00     0.168 HD
BRANCH  19  21
HETATM   21  C4  UNL     1      53.361  -7.776  63.764  1.00  0.00     0.122 A 
HETATM   22  C3  UNL     1      52.481  -7.531  62.721  1.00  0.00     0.075 A 
HETATM   23  C2  UNL     1      52.886  -6.403  62.050  1.00  0.00     0.025 A 
HETATM   24  C1  UNL     1      52.182  -5.835  60.871  1.00  0.00     0.070 C 
HETATM   25  N8  UNL     1      53.988  -5.975  62.677  1.00  0.00    -0.304 N 
HETATM   26  N7  UNL     1      54.271  -6.797  63.701  1.00  0.00    -0.285 N 
ATOM     27  H8  UNL     1      54.530  -5.151  62.417  1.00  0.00     0.186 HD
ATOM     28  H7  UNL     1      55.061  -6.690  64.336  1.00  0.00     0.188 HD
ENDBRANCH  19  21
ENDBRANCH  10  19
ENDBRANCH   1   6
BRANCH   1  29
HETATM   29  O1  UNL     1      52.022 -13.142  68.803  1.00  0.00    -0.344 OA
ATOM     30  H1  UNL     1      51.147 -12.781  68.885  1.00  0.00     0.219 HD
ENDBRANCH   1  29
TORSDOF 4
ENDMDL
