MODEL 1
REMARK VINA RESULT: -8.286041983      0.000      0.000
REMARK  2 active torsions:
REMARK  status: ('A' for Active; 'I' for Inactive)
REMARK       I    between atoms: N2_8  and  C5_9 
REMARK       I    between atoms: C5_9  and  N3_11 
REMARK    1  A    between atoms: N3_11  and  C6_13 
REMARK    2  A    between atoms: C8_22  and  N7_23 
ROOT
HETATM    1  C1  UNL     1      55.256 -14.699  67.678  1.00  0.00     0.048 C 
HETATM    2  C2  UNL     1      54.878 -13.535  68.564  1.00  0.00     0.107 C 
HETATM    3  C3  UNL     1      54.838 -13.905  70.021  1.00  0.00     0.048 C 
HETATM    4  N1  UNL     1      55.833 -12.441  68.370  1.00  0.00    -0.349 N 
ATOM      5  H1  UNL     1      56.763 -12.373  68.783  1.00  0.00     0.163 HD
HETATM    6  C4  UNL     1      55.227 -11.487  67.495  1.00  0.00     0.186 C 
HETATM    7  S1  UNL     1      55.989 -10.232  66.739  1.00  0.00    -0.040 SA
HETATM    8  N2  UNL     1      53.845 -11.768  67.356  1.00  0.00    -0.206 N 
HETATM    9  C5  UNL     1      52.906 -11.046  66.572  1.00  0.00     0.337 C 
HETATM   10  O1  UNL     1      51.697 -11.385  66.519  1.00  0.00    -0.246 OA
HETATM   11  N3  UNL     1      53.310  -9.915  65.822  1.00  0.00    -0.290 N 
ATOM     12  H3  UNL     1      53.939 -10.035  65.028  1.00  0.00     0.172 HD
HETATM   13  C9  UNL     1      53.586 -12.931  68.169  1.00  0.00     0.262 C 
HETATM   14  O4  UNL     1      52.427 -13.321  68.461  1.00  0.00    -0.270 OA
ENDROOT
BRANCH  11  15
HETATM   15  C6  UNL     1      52.893  -8.739  66.130  1.00  0.00     0.164 A 
HETATM   16  N4  UNL     1      52.302  -8.437  67.290  1.00  0.00    -0.315 N 
HETATM   17  C7  UNL     1      51.870  -7.201  67.599  1.00  0.00     0.192 A 
ATOM     18  H4  UNL     1      52.173  -9.181  67.976  1.00  0.00     0.170 HD
HETATM   19  S2  UNL     1      51.145  -6.851  69.030  1.00  0.00    -0.039 SA
HETATM   20  N5  UNL     1      52.056  -6.233  66.667  1.00  0.00    -0.274 N 
HETATM   21  N6  UNL     1      52.634  -6.490  65.511  1.00  0.00    -0.275 N 
ATOM     22  H5  UNL     1      51.741  -5.284  66.866  1.00  0.00     0.189 HD
HETATM   23  C8  UNL     1      53.074  -7.723  65.185  1.00  0.00     0.233 A 
ATOM     24  H6  UNL     1      52.753  -5.730  64.840  1.00  0.00     0.189 HD
BRANCH  23  25
HETATM   25  N7  UNL     1      53.696  -7.999  63.943  1.00  0.00    -0.092 N 
HETATM   26  O2  UNL     1      54.862  -7.622  63.758  1.00  0.00    -0.530 OA
HETATM   27  O3  UNL     1      53.029  -8.670  62.957  1.00  0.00    -0.530 OA
ENDBRANCH  23  25
ENDBRANCH  11  15
TORSDOF 2
ENDMDL
MODEL 2
REMARK VINA RESULT: -7.154457104      4.699      6.069
REMARK  2 active torsions:
REMARK  status: ('A' for Active; 'I' for Inactive)
REMARK       I    between atoms: N2_8  and  C5_9 
REMARK       I    between atoms: C5_9  and  N3_11 
REMARK    1  A    between atoms: N3_11  and  C6_13 
REMARK    2  A    between atoms: C8_22  and  N7_23 
ROOT
HETATM    1  C1  UNL     1      52.462 -10.951  66.464  1.00  0.00     0.048 C 
HETATM    2  C2  UNL     1      53.493 -10.404  67.424  1.00  0.00     0.107 C 
HETATM    3  C3  UNL     1      54.878 -10.916  67.142  1.00  0.00     0.048 C 
HETATM    4  N1  UNL     1      53.496  -8.940  67.356  1.00  0.00    -0.349 N 
ATOM      5  H1  UNL     1      53.951  -8.371  66.642  1.00  0.00     0.163 HD
HETATM    6  C4  UNL     1      52.746  -8.453  68.472  1.00  0.00     0.186 C 
HETATM    7  S1  UNL     1      52.211  -6.905  68.688  1.00  0.00    -0.040 SA
HETATM    8  N2  UNL     1      52.515  -9.503  69.395  1.00  0.00    -0.206 N 
HETATM    9  C5  UNL     1      51.809  -9.413  70.623  1.00  0.00     0.337 C 
HETATM   10  O1  UNL     1      51.661 -10.414  71.369  1.00  0.00    -0.246 OA
HETATM   11  N3  UNL     1      51.247  -8.184  71.045  1.00  0.00    -0.290 N 
ATOM     12  H3  UNL     1      50.469  -7.781  70.524  1.00  0.00     0.172 HD
HETATM   13  C9  UNL     1      53.141 -10.677  68.835  1.00  0.00     0.262 C 
HETATM   14  O4  UNL     1      53.328 -11.733  69.489  1.00  0.00    -0.270 OA
ENDROOT
BRANCH  11  15
HETATM   15  C6  UNL     1      51.707  -7.572  72.077  1.00  0.00     0.164 A 
HETATM   16  N4  UNL     1      52.689  -8.044  72.850  1.00  0.00    -0.315 N 
HETATM   17  C7  UNL     1      53.159  -7.392  73.928  1.00  0.00     0.192 A 
ATOM     18  H4  UNL     1      53.103  -8.945  72.610  1.00  0.00     0.170 HD
HETATM   19  S2  UNL     1      54.367  -7.991  74.866  1.00  0.00    -0.039 SA
HETATM   20  N5  UNL     1      52.589  -6.197  74.222  1.00  0.00    -0.274 N 
HETATM   21  N6  UNL     1      51.618  -5.695  73.485  1.00  0.00    -0.275 N 
ATOM     22  H5  UNL     1      52.920  -5.673  75.032  1.00  0.00     0.189 HD
HETATM   23  C8  UNL     1      51.135  -6.336  72.400  1.00  0.00     0.233 A 
ATOM     24  H6  UNL     1      51.219  -4.792  73.744  1.00  0.00     0.189 HD
BRANCH  23  25
HETATM   25  N7  UNL     1      50.092  -5.797  71.607  1.00  0.00    -0.092 N 
HETATM   26  O2  UNL     1      50.374  -4.982  70.716  1.00  0.00    -0.530 OA
HETATM   27  O3  UNL     1      48.791  -6.162  71.814  1.00  0.00    -0.530 OA
ENDBRANCH  23  25
ENDBRANCH  11  15
TORSDOF 2
ENDMDL
MODEL 3
REMARK VINA RESULT: -7.058193330      2.538      3.577
REMARK  2 active torsions:
REMARK  status: ('A' for Active; 'I' for Inactive)
REMARK       I    between atoms: N2_8  and  C5_9 
REMARK       I    between atoms: C5_9  and  N3_11 
REMARK    1  A    between atoms: N3_11  and  C6_13 
REMARK    2  A    between atoms: C8_22  and  N7_23 
ROOT
HETATM    1  C1  UNL     1      54.758 -12.772  69.391  1.00  0.00     0.048 C 
HETATM    2  C2  UNL     1      53.933 -12.785  68.124  1.00  0.00     0.107 C 
HETATM    3  C3  UNL     1      53.465 -14.165  67.751  1.00  0.00     0.048 C 
HETATM    4  N1  UNL     1      52.770 -11.909  68.287  1.00  0.00    -0.349 N 
ATOM      5  H1  UNL     1      51.906 -12.140  68.778  1.00  0.00     0.163 HD
HETATM    6  C4  UNL     1      53.066 -10.671  67.636  1.00  0.00     0.186 C 
HETATM    7  S1  UNL     1      52.213  -9.264  67.779  1.00  0.00    -0.040 SA
HETATM    8  N2  UNL     1      54.222 -10.814  66.828  1.00  0.00    -0.206 N 
HETATM    9  C5  UNL     1      54.827  -9.809  66.028  1.00  0.00     0.337 C 
HETATM   10  O1  UNL     1      55.857 -10.045  65.347  1.00  0.00    -0.246 OA
HETATM   11  N3  UNL     1      54.283  -8.503  65.974  1.00  0.00    -0.290 N 
ATOM     12  H3  UNL     1      54.309  -7.912  66.805  1.00  0.00     0.172 HD
HETATM   13  C9  UNL     1      54.656 -12.181  66.982  1.00  0.00     0.262 C 
HETATM   14  O4  UNL     1      55.514 -12.718  66.238  1.00  0.00    -0.270 OA
ENDROOT
BRANCH  11  15
HETATM   15  C6  UNL     1      53.757  -8.055  64.891  1.00  0.00     0.164 A 
HETATM   16  N4  UNL     1      53.923  -8.619  63.691  1.00  0.00    -0.315 N 
HETATM   17  C7  UNL     1      53.367  -8.137  62.565  1.00  0.00     0.192 A 
ATOM     18  H4  UNL     1      54.502  -9.456  63.625  1.00  0.00     0.170 HD
HETATM   19  S2  UNL     1      53.585  -8.845  61.099  1.00  0.00    -0.039 SA
HETATM   20  N5  UNL     1      52.603  -7.022  62.684  1.00  0.00    -0.274 N 
HETATM   21  N6  UNL     1      52.413  -6.436  63.848  1.00  0.00    -0.275 N 
ATOM     22  H5  UNL     1      52.164  -6.629  61.851  1.00  0.00     0.189 HD
HETATM   23  C8  UNL     1      52.964  -6.906  64.988  1.00  0.00     0.233 A 
ATOM     24  H6  UNL     1      51.831  -5.599  63.890  1.00  0.00     0.189 HD
BRANCH  23  25
HETATM   25  N7  UNL     1      52.760  -6.276  66.240  1.00  0.00    -0.092 N 
HETATM   26  O2  UNL     1      53.724  -5.745  66.810  1.00  0.00    -0.530 OA
HETATM   27  O3  UNL     1      51.523  -6.249  66.820  1.00  0.00    -0.530 OA
ENDBRANCH  23  25
ENDBRANCH  11  15
TORSDOF 2
ENDMDL
MODEL 4
REMARK VINA RESULT: -6.938112445      3.783      6.283
REMARK  2 active torsions:
REMARK  status: ('A' for Active; 'I' for Inactive)
REMARK       I    between atoms: N2_8  and  C5_9 
REMARK       I    between atoms: C5_9  and  N3_11 
REMARK    1  A    between atoms: N3_11  and  C6_13 
REMARK    2  A    between atoms: C8_22  and  N7_23 
ROOT
HETATM    1  C1  UNL     1      49.803  -7.231  73.447  1.00  0.00     0.048 C 
HETATM    2  C2  UNL     1      51.115  -6.826  72.816  1.00  0.00     0.107 C 
HETATM    3  C3  UNL     1      51.631  -5.515  73.341  1.00  0.00     0.048 C 
HETATM    4  N1  UNL     1      52.116  -7.869  73.054  1.00  0.00    -0.349 N 
ATOM      5  H1  UNL     1      52.645  -8.011  73.914  1.00  0.00     0.163 HD
HETATM    6  C4  UNL     1      52.215  -8.654  71.862  1.00  0.00     0.186 C 
HETATM    7  S1  UNL     1      52.977 -10.112  71.714  1.00  0.00    -0.040 SA
HETATM    8  N2  UNL     1      51.554  -7.998  70.794  1.00  0.00    -0.206 N 
HETATM    9  C5  UNL     1      51.435  -8.460  69.458  1.00  0.00     0.337 C 
HETATM   10  O1  UNL     1      50.821  -7.795  68.585  1.00  0.00    -0.246 OA
HETATM   11  N3  UNL     1      52.008  -9.695  69.067  1.00  0.00    -0.290 N 
ATOM     12  H3  UNL     1      51.633 -10.566  69.442  1.00  0.00     0.172 HD
HETATM   13  C9  UNL     1      51.029  -6.769  71.339  1.00  0.00     0.262 C 
HETATM   14  O4  UNL     1      50.582  -5.837  70.625  1.00  0.00    -0.270 OA
ENDROOT
BRANCH  11  15
HETATM   15  C6  UNL     1      52.995  -9.730  68.245  1.00  0.00     0.164 A 
HETATM   16  N4  UNL     1      53.478  -8.656  67.613  1.00  0.00    -0.315 N 
HETATM   17  C7  UNL     1      54.512  -8.708  66.753  1.00  0.00     0.192 A 
ATOM     18  H4  UNL     1      53.042  -7.752  67.791  1.00  0.00     0.170 HD
HETATM   19  S2  UNL     1      55.091  -7.376  65.986  1.00  0.00    -0.039 SA
HETATM   20  N5  UNL     1      55.071  -9.924  66.536  1.00  0.00    -0.274 N 
HETATM   21  N6  UNL     1      54.625 -11.008  67.139  1.00  0.00    -0.275 N 
ATOM     22  H5  UNL     1      55.857 -10.003  65.891  1.00  0.00     0.189 HD
HETATM   23  C8  UNL     1      53.590 -10.974  68.004  1.00  0.00     0.233 A 
ATOM     24  H6  UNL     1      55.076 -11.902  66.945  1.00  0.00     0.189 HD
BRANCH  23  25
HETATM   25  N7  UNL     1      53.109 -12.138  68.653  1.00  0.00    -0.092 N 
HETATM   26  O2  UNL     1      53.890 -12.804  69.349  1.00  0.00    -0.530 OA
HETATM   27  O3  UNL     1      51.807 -12.529  68.520  1.00  0.00    -0.530 OA
ENDBRANCH  23  25
ENDBRANCH  11  15
TORSDOF 2
ENDMDL
MODEL 5
REMARK VINA RESULT: -6.932415331      2.343      2.796
REMARK  2 active torsions:
REMARK  status: ('A' for Active; 'I' for Inactive)
REMARK       I    between atoms: N2_8  and  C5_9 
REMARK       I    between atoms: C5_9  and  N3_11 
REMARK    1  A    between atoms: N3_11  and  C6_13 
REMARK    2  A    between atoms: C8_22  and  N7_23 
ROOT
HETATM    1  C1  UNL     1      55.456 -13.700  67.592  1.00  0.00     0.048 C 
HETATM    2  C2  UNL     1      55.621 -12.638  68.655  1.00  0.00     0.107 C 
HETATM    3  C3  UNL     1      56.648 -13.008  69.689  1.00  0.00     0.048 C 
HETATM    4  N1  UNL     1      56.002 -11.371  68.026  1.00  0.00    -0.349 N 
ATOM      5  H1  UNL     1      56.937 -11.112  67.711  1.00  0.00     0.163 HD
HETATM    6  C4  UNL     1      54.826 -10.563  67.933  1.00  0.00     0.186 C 
HETATM    7  S1  UNL     1      54.660  -9.178  67.049  1.00  0.00    -0.040 SA
HETATM    8  N2  UNL     1      53.790 -11.123  68.722  1.00  0.00    -0.206 N 
HETATM    9  C5  UNL     1      52.476 -10.611  68.885  1.00  0.00     0.337 C 
HETATM   10  O1  UNL     1      51.631 -11.193  69.611  1.00  0.00    -0.246 OA
HETATM   11  N3  UNL     1      52.078  -9.422  68.228  1.00  0.00    -0.290 N 
ATOM     12  H3  UNL     1      51.997  -9.410  67.212  1.00  0.00     0.172 HD
HETATM   13  C9  UNL     1      54.340 -12.314  69.322  1.00  0.00     0.262 C 
HETATM   14  O4  UNL     1      53.776 -12.936  70.258  1.00  0.00    -0.270 OA
ENDROOT
BRANCH  11  15
HETATM   15  C6  UNL     1      51.816  -8.357  68.899  1.00  0.00     0.164 A 
HETATM   16  N4  UNL     1      51.687  -8.325  70.229  1.00  0.00    -0.315 N 
HETATM   17  C7  UNL     1      51.412  -7.203  70.918  1.00  0.00     0.192 A 
ATOM     18  H4  UNL     1      51.803  -9.196  70.748  1.00  0.00     0.170 HD
HETATM   19  S2  UNL     1      51.257  -7.186  72.553  1.00  0.00    -0.039 SA
HETATM   20  N5  UNL     1      51.263  -6.062  70.200  1.00  0.00    -0.274 N 
HETATM   21  N6  UNL     1      51.383  -6.050  68.888  1.00  0.00    -0.275 N 
ATOM     22  H5  UNL     1      51.055  -5.191  70.689  1.00  0.00     0.189 HD
HETATM   23  C8  UNL     1      51.659  -7.166  68.181  1.00  0.00     0.233 A 
ATOM     24  H6  UNL     1      51.263  -5.167  68.390  1.00  0.00     0.189 HD
BRANCH  23  25
HETATM   25  N7  UNL     1      51.788  -7.154  66.771  1.00  0.00    -0.092 N 
HETATM   26  O2  UNL     1      51.187  -8.011  66.105  1.00  0.00    -0.530 OA
HETATM   27  O3  UNL     1      52.560  -6.218  66.144  1.00  0.00    -0.530 OA
ENDBRANCH  23  25
ENDBRANCH  11  15
TORSDOF 2
ENDMDL
