MODEL 1
REMARK VINA RESULT: -9.355320268      0.000      0.000
REMARK  6 active torsions:
REMARK  status: ('A' for Active; 'I' for Inactive)
REMARK    1  A    between atoms: O1_2  and  C2_3 
REMARK    2  A    between atoms: C2_3  and  C3_5 
REMARK       I    between atoms: C3_5  and  N1_7 
REMARK    3  A    between atoms: N1_7  and  C4_9 
REMARK    4  A    between atoms: C6_14  and  C7_15 
REMARK    5  A    between atoms: C8_16  and  C9_17 
REMARK    6  A    between atoms: C12_20  and  O4_21 
ROOT
HETATM    1  C4  UNL     1      53.607  -7.873  63.412  1.00  0.00     0.154 A 
HETATM    2  N2  UNL     1      53.667  -9.009  64.107  1.00  0.00    -0.323 N 
ATOM      3  H2  UNL     1      54.042  -9.859  63.685  1.00  0.00     0.169 HD
HETATM    4  C5  UNL     1      53.236  -9.012  65.342  1.00  0.00     0.144 A 
HETATM    5  N3  UNL     1      53.249 -10.179  66.197  1.00  0.00    -0.081 NA
HETATM    6  C6  UNL     1      52.745  -7.833  65.844  1.00  0.00     0.103 A 
HETATM    7  S1  UNL     1      52.925  -6.774  64.519  1.00  0.00    -0.041 SA
ENDROOT
BRANCH   6   8
HETATM    8  C7  UNL     1      52.209  -7.575  67.178  1.00  0.00    -0.050 C 
HETATM    9  C8  UNL     1      51.771  -7.342  68.277  1.00  0.00    -0.055 C 
BRANCH   9  10
HETATM   10  C9  UNL     1      51.267  -7.078  69.597  1.00  0.00     0.086 A 
HETATM   11  C10 UNL     1      50.941  -5.785  70.003  1.00  0.00     0.030 A 
HETATM   12  C11 UNL     1      50.460  -5.531  71.266  1.00  0.00     0.058 A 
HETATM   13  C12 UNL     1      50.303  -6.590  72.134  1.00  0.00     0.144 A 
HETATM   14  N4  UNL     1      50.619  -7.826  71.731  1.00  0.00    -0.303 N 
HETATM   15  C14 UNL     1      51.094  -8.088  70.492  1.00  0.00     0.266 A 
ATOM     16  H4  UNL     1      50.498  -8.601  72.384  1.00  0.00     0.171 HD
HETATM   17  O5  UNL     1      51.387  -9.258  70.128  1.00  0.00    -0.267 OA
BRANCH  13  18
HETATM   18  O4  UNL     1      49.819  -6.349  73.408  1.00  0.00    -0.341 OA
HETATM   19  C13 UNL     1      48.786  -7.146  73.941  1.00  0.00     0.211 C 
ENDBRANCH  13  18
ENDBRANCH   9  10
ENDBRANCH   6   8
BRANCH   1  20
HETATM   20  N1  UNL     1      53.993  -7.699  62.174  1.00  0.00    -0.298 N 
HETATM   21  C3  UNL     1      53.394  -6.690  61.380  1.00  0.00     0.322 C 
HETATM   22  O3  UNL     1      53.998  -5.593  61.281  1.00  0.00    -0.261 OA
ATOM     23  H1  UNL     1      54.725  -8.291  61.781  1.00  0.00     0.171 HD
BRANCH  21  24
HETATM   24  C2  UNL     1      52.128  -6.943  60.715  1.00  0.00     0.351 C 
HETATM   25  O2  UNL     1      51.043  -6.555  61.207  1.00  0.00    -0.254 OA
BRANCH  24  26
HETATM   26  O1  UNL     1      52.043  -7.625  59.500  1.00  0.00    -0.319 OA
HETATM   27  C1  UNL     1      52.963  -8.671  59.197  1.00  0.00     0.213 C 
ENDBRANCH  24  26
ENDBRANCH  21  24
ENDBRANCH   1  20
TORSDOF 6
ENDMDL
MODEL 2
REMARK VINA RESULT: -9.055007657      1.416      1.656
REMARK  6 active torsions:
REMARK  status: ('A' for Active; 'I' for Inactive)
REMARK    1  A    between atoms: O1_2  and  C2_3 
REMARK    2  A    between atoms: C2_3  and  C3_5 
REMARK       I    between atoms: C3_5  and  N1_7 
REMARK    3  A    between atoms: N1_7  and  C4_9 
REMARK    4  A    between atoms: C6_14  and  C7_15 
REMARK    5  A    between atoms: C8_16  and  C9_17 
REMARK    6  A    between atoms: C12_20  and  O4_21 
ROOT
HETATM    1  C4  UNL     1      53.653  -6.409  63.058  1.00  0.00     0.154 A 
HETATM    2  N2  UNL     1      54.556  -7.016  63.829  1.00  0.00    -0.323 N 
ATOM      3  H2  UNL     1      55.457  -7.305  63.447  1.00  0.00     0.169 HD
HETATM    4  C5  UNL     1      54.263  -7.233  65.086  1.00  0.00     0.144 A 
HETATM    5  N3  UNL     1      55.158  -7.882  66.020  1.00  0.00    -0.081 NA
HETATM    6  C6  UNL     1      53.034  -6.818  65.530  1.00  0.00     0.103 A 
HETATM    7  S1  UNL     1      52.353  -6.135  64.124  1.00  0.00    -0.041 SA
ENDROOT
BRANCH   6   8
HETATM    8  C7  UNL     1      52.472  -6.942  66.873  1.00  0.00    -0.050 C 
HETATM    9  C8  UNL     1      52.009  -7.023  67.983  1.00  0.00    -0.055 C 
BRANCH   9  10
HETATM   10  C9  UNL     1      51.478  -7.133  69.315  1.00  0.00     0.086 A 
HETATM   11  C10 UNL     1      51.037  -6.012  70.014  1.00  0.00     0.030 A 
HETATM   12  C11 UNL     1      50.530  -6.115  71.288  1.00  0.00     0.058 A 
HETATM   13  C12 UNL     1      50.464  -7.363  71.868  1.00  0.00     0.144 A 
HETATM   14  N4  UNL     1      50.891  -8.432  71.186  1.00  0.00    -0.303 N 
HETATM   15  C14 UNL     1      51.392  -8.342  69.933  1.00  0.00     0.266 A 
ATOM     16  H4  UNL     1      50.836  -9.350  71.628  1.00  0.00     0.171 HD
HETATM   17  O5  UNL     1      51.790  -9.359  69.304  1.00  0.00    -0.267 OA
BRANCH  13  18
HETATM   18  O4  UNL     1      49.955  -7.482  73.150  1.00  0.00    -0.341 OA
HETATM   19  C13 UNL     1      49.086  -6.500  73.666  1.00  0.00     0.211 C 
ENDBRANCH  13  18
ENDBRANCH   9  10
ENDBRANCH   6   8
BRANCH   1  20
HETATM   20  N1  UNL     1      53.785  -6.119  61.790  1.00  0.00    -0.298 N 
HETATM   21  C3  UNL     1      53.227  -6.973  60.805  1.00  0.00     0.322 C 
HETATM   22  O3  UNL     1      52.107  -6.658  60.330  1.00  0.00    -0.261 OA
ATOM     23  H1  UNL     1      54.290  -5.278  61.510  1.00  0.00     0.171 HD
BRANCH  21  24
HETATM   24  C2  UNL     1      53.946  -8.160  60.380  1.00  0.00     0.351 C 
HETATM   25  O2  UNL     1      54.649  -8.820  61.180  1.00  0.00    -0.254 OA
BRANCH  24  26
HETATM   26  O1  UNL     1      53.898  -8.635  59.069  1.00  0.00    -0.319 OA
HETATM   27  C1  UNL     1      52.810  -9.450  58.638  1.00  0.00     0.213 C 
ENDBRANCH  24  26
ENDBRANCH  21  24
ENDBRANCH   1  20
TORSDOF 6
ENDMDL
MODEL 3
REMARK VINA RESULT: -8.906363219      0.719      1.269
REMARK  6 active torsions:
REMARK  status: ('A' for Active; 'I' for Inactive)
REMARK    1  A    between atoms: O1_2  and  C2_3 
REMARK    2  A    between atoms: C2_3  and  C3_5 
REMARK       I    between atoms: C3_5  and  N1_7 
REMARK    3  A    between atoms: N1_7  and  C4_9 
REMARK    4  A    between atoms: C6_14  and  C7_15 
REMARK    5  A    between atoms: C8_16  and  C9_17 
REMARK    6  A    between atoms: C12_20  and  O4_21 
ROOT
HETATM    1  C4  UNL     1      53.359  -8.525  63.291  1.00  0.00     0.154 A 
HETATM    2  N2  UNL     1      53.862  -9.355  64.205  1.00  0.00    -0.323 N 
ATOM      3  H2  UNL     1      54.492 -10.110  63.931  1.00  0.00     0.169 HD
HETATM    4  C5  UNL     1      53.531  -9.183  65.458  1.00  0.00     0.144 A 
HETATM    5  N3  UNL     1      54.010 -10.018  66.539  1.00  0.00    -0.081 NA
HETATM    6  C6  UNL     1      52.679  -8.149  65.752  1.00  0.00     0.103 A 
HETATM    7  S1  UNL     1      52.391  -7.470  64.214  1.00  0.00    -0.041 SA
ENDROOT
BRANCH   6   8
HETATM    8  C7  UNL     1      52.162  -7.751  67.059  1.00  0.00    -0.050 C 
HETATM    9  C8  UNL     1      51.748  -7.438  68.147  1.00  0.00    -0.055 C 
BRANCH   9  10
HETATM   10  C9  UNL     1      51.229  -7.071  69.437  1.00  0.00     0.086 A 
HETATM   11  C10 UNL     1      50.985  -5.740  69.767  1.00  0.00     0.030 A 
HETATM   12  C11 UNL     1      50.490  -5.387  71.001  1.00  0.00     0.058 A 
HETATM   13  C12 UNL     1      50.236  -6.386  71.916  1.00  0.00     0.144 A 
HETATM   14  N4  UNL     1      50.474  -7.660  71.585  1.00  0.00    -0.303 N 
HETATM   15  C14 UNL     1      50.961  -8.019  70.376  1.00  0.00     0.266 A 
ATOM     16  H4  UNL     1      50.282  -8.389  72.272  1.00  0.00     0.171 HD
HETATM   17  O5  UNL     1      51.181  -9.224  70.081  1.00  0.00    -0.267 OA
BRANCH  13  18
HETATM   18  O4  UNL     1      49.737  -6.045  73.161  1.00  0.00    -0.341 OA
HETATM   19  C13 UNL     1      48.918  -6.945  73.872  1.00  0.00     0.211 C 
ENDBRANCH  13  18
ENDBRANCH   9  10
ENDBRANCH   6   8
BRANCH   1  20
HETATM   20  N1  UNL     1      53.586  -8.557  62.003  1.00  0.00    -0.298 N 
HETATM   21  C3  UNL     1      53.362  -7.401  61.214  1.00  0.00     0.322 C 
HETATM   22  O3  UNL     1      54.354  -6.678  60.947  1.00  0.00    -0.261 OA
ATOM     23  H1  UNL     1      53.925  -9.415  61.567  1.00  0.00     0.171 HD
BRANCH  21  24
HETATM   24  C2  UNL     1      52.025  -7.089  60.745  1.00  0.00     0.351 C 
HETATM   25  O2  UNL     1      51.545  -7.638  59.725  1.00  0.00    -0.254 OA
BRANCH  24  26
HETATM   26  O1  UNL     1      51.198  -6.170  61.393  1.00  0.00    -0.319 OA
HETATM   27  C1  UNL     1      51.688  -4.873  61.727  1.00  0.00     0.213 C 
ENDBRANCH  24  26
ENDBRANCH  21  24
ENDBRANCH   1  20
TORSDOF 6
ENDMDL
MODEL 4
REMARK VINA RESULT: -8.784748200      1.399      1.813
REMARK  6 active torsions:
REMARK  status: ('A' for Active; 'I' for Inactive)
REMARK    1  A    between atoms: O1_2  and  C2_3 
REMARK    2  A    between atoms: C2_3  and  C3_5 
REMARK       I    between atoms: C3_5  and  N1_7 
REMARK    3  A    between atoms: N1_7  and  C4_9 
REMARK    4  A    between atoms: C6_14  and  C7_15 
REMARK    5  A    between atoms: C8_16  and  C9_17 
REMARK    6  A    between atoms: C12_20  and  O4_21 
ROOT
HETATM    1  C4  UNL     1      53.339  -8.517  63.581  1.00  0.00     0.154 A 
HETATM    2  N2  UNL     1      53.140  -7.207  63.733  1.00  0.00    -0.323 N 
ATOM      3  H2  UNL     1      53.299  -6.563  62.957  1.00  0.00     0.169 HD
HETATM    4  C5  UNL     1      52.738  -6.765  64.896  1.00  0.00     0.144 A 
HETATM    5  N3  UNL     1      52.488  -5.369  65.184  1.00  0.00    -0.081 NA
HETATM    6  C6  UNL     1      52.545  -7.688  65.892  1.00  0.00     0.103 A 
HETATM    7  S1  UNL     1      52.952  -9.150  65.113  1.00  0.00    -0.041 SA
ENDROOT
BRANCH   6   8
HETATM    8  C7  UNL     1      52.104  -7.453  67.264  1.00  0.00    -0.050 C 
HETATM    9  C8  UNL     1      51.725  -7.275  68.395  1.00  0.00    -0.055 C 
BRANCH   9  10
HETATM   10  C9  UNL     1      51.266  -7.038  69.737  1.00  0.00     0.086 A 
HETATM   11  C10 UNL     1      51.003  -5.749  70.196  1.00  0.00     0.030 A 
HETATM   12  C11 UNL     1      50.565  -5.521  71.479  1.00  0.00     0.058 A 
HETATM   13  C12 UNL     1      50.389  -6.603  72.314  1.00  0.00     0.144 A 
HETATM   14  N4  UNL     1      50.645  -7.836  71.861  1.00  0.00    -0.303 N 
HETATM   15  C14 UNL     1      51.077  -8.072  70.602  1.00  0.00     0.266 A 
ATOM     16  H4  UNL     1      50.510  -8.627  72.490  1.00  0.00     0.171 HD
HETATM   17  O5  UNL     1      51.314  -9.239  70.190  1.00  0.00    -0.267 OA
BRANCH  13  18
HETATM   18  O4  UNL     1      49.948  -6.389  73.609  1.00  0.00    -0.341 OA
HETATM   19  C13 UNL     1      48.693  -6.877  74.025  1.00  0.00     0.211 C 
ENDBRANCH  13  18
ENDBRANCH   9  10
ENDBRANCH   6   8
BRANCH   1  20
HETATM   20  N1  UNL     1      53.739  -9.120  62.491  1.00  0.00    -0.298 N 
HETATM   21  C3  UNL     1      53.928  -8.377  61.298  1.00  0.00     0.322 C 
HETATM   22  O3  UNL     1      55.097  -8.008  61.022  1.00  0.00    -0.261 OA
ATOM     23  H1  UNL     1      53.914 -10.124  62.500  1.00  0.00     0.171 HD
BRANCH  21  24
HETATM   24  C2  UNL     1      52.794  -8.069  60.446  1.00  0.00     0.351 C 
HETATM   25  O2  UNL     1      52.523  -8.767  59.441  1.00  0.00    -0.254 OA
BRANCH  24  26
HETATM   26  O1  UNL     1      51.944  -6.989  60.690  1.00  0.00    -0.319 OA
HETATM   27  C1  UNL     1      52.470  -5.666  60.779  1.00  0.00     0.213 C 
ENDBRANCH  24  26
ENDBRANCH  21  24
ENDBRANCH   1  20
TORSDOF 6
ENDMDL
MODEL 5
REMARK VINA RESULT: -8.438554148      1.712      2.244
REMARK  6 active torsions:
REMARK  status: ('A' for Active; 'I' for Inactive)
REMARK    1  A    between atoms: O1_2  and  C2_3 
REMARK    2  A    between atoms: C2_3  and  C3_5 
REMARK       I    between atoms: C3_5  and  N1_7 
REMARK    3  A    between atoms: N1_7  and  C4_9 
REMARK    4  A    between atoms: C6_14  and  C7_15 
REMARK    5  A    between atoms: C8_16  and  C9_17 
REMARK    6  A    between atoms: C12_20  and  O4_21 
ROOT
HETATM    1  C4  UNL     1      53.645  -6.490  63.139  1.00  0.00     0.154 A 
HETATM    2  N2  UNL     1      54.661  -7.068  63.781  1.00  0.00    -0.323 N 
ATOM      3  H2  UNL     1      55.557  -7.212  63.314  1.00  0.00     0.169 HD
HETATM    4  C5  UNL     1      54.487  -7.445  65.021  1.00  0.00     0.144 A 
HETATM    5  N3  UNL     1      55.511  -8.081  65.821  1.00  0.00    -0.081 NA
HETATM    6  C6  UNL     1      53.256  -7.220  65.584  1.00  0.00     0.103 A 
HETATM    7  S1  UNL     1      52.405  -6.477  64.307  1.00  0.00    -0.041 SA
ENDROOT
BRANCH   6   8
HETATM    8  C7  UNL     1      52.811  -7.545  66.937  1.00  0.00    -0.050 C 
HETATM    9  C8  UNL     1      52.424  -7.808  68.048  1.00  0.00    -0.055 C 
BRANCH   9  10
HETATM   10  C9  UNL     1      51.978  -8.103  69.382  1.00  0.00     0.086 A 
HETATM   11  C10 UNL     1      52.340  -9.287  70.022  1.00  0.00     0.030 A 
HETATM   12  C11 UNL     1      51.913  -9.571  71.298  1.00  0.00     0.058 A 
HETATM   13  C12 UNL     1      51.111  -8.653  71.941  1.00  0.00     0.144 A 
HETATM   14  N4  UNL     1      50.771  -7.520  71.315  1.00  0.00    -0.303 N 
HETATM   15  C14 UNL     1      51.185  -7.230  70.061  1.00  0.00     0.266 A 
ATOM     16  H4  UNL     1      50.178  -6.849  71.803  1.00  0.00     0.171 HD
HETATM   17  O5  UNL     1      50.855  -6.159  69.486  1.00  0.00    -0.267 OA
BRANCH  13  18
HETATM   18  O4  UNL     1      50.674  -8.925  73.226  1.00  0.00    -0.341 OA
HETATM   19  C13 UNL     1      49.819  -8.027  73.895  1.00  0.00     0.211 C 
ENDBRANCH  13  18
ENDBRANCH   9  10
ENDBRANCH   6   8
BRANCH   1  20
HETATM   20  N1  UNL     1      53.651  -6.057  61.905  1.00  0.00    -0.298 N 
HETATM   21  C3  UNL     1      53.173  -6.888  60.860  1.00  0.00     0.322 C 
HETATM   22  O3  UNL     1      51.991  -6.712  60.473  1.00  0.00    -0.261 OA
ATOM     23  H1  UNL     1      54.000  -5.122  61.695  1.00  0.00     0.171 HD
BRANCH  21  24
HETATM   24  C2  UNL     1      54.041  -7.894  60.277  1.00  0.00     0.351 C 
HETATM   25  O2  UNL     1      55.057  -8.310  60.880  1.00  0.00    -0.254 OA
BRANCH  24  26
HETATM   26  O1  UNL     1      53.800  -8.455  59.021  1.00  0.00    -0.319 OA
HETATM   27  C1  UNL     1      52.822  -9.482  58.869  1.00  0.00     0.213 C 
ENDBRANCH  24  26
ENDBRANCH  21  24
ENDBRANCH   1  20
TORSDOF 6
ENDMDL
