MODEL 1
REMARK VINA RESULT: -9.922107858      0.000      0.000
REMARK  2 active torsions:
REMARK  status: ('A' for Active; 'I' for Inactive)
REMARK       I    between atoms: C2_2  and  N1_4 
REMARK    1  A    between atoms: N1_4  and  C3_6 
REMARK    2  A    between atoms: C5_10  and  N3_11 
ROOT
HETATM    1  C3  UNL     1      53.596 -12.223  66.605  1.00  0.00     0.152 A 
HETATM    2  N2  UNL     1      53.472 -10.966  66.204  1.00  0.00    -0.333 N 
ATOM      3  H2  UNL     1      53.775 -10.683  65.273  1.00  0.00     0.168 HD
HETATM    4  C4  UNL     1      52.944 -10.085  67.042  1.00  0.00     0.084 A 
HETATM    5  C5  UNL     1      52.711  -8.703  66.849  1.00  0.00     0.112 A 
HETATM    6  C9  UNL     1      52.151  -7.931  67.830  1.00  0.00     0.036 A 
HETATM    7  C10 UNL     1      51.931  -6.472  67.558  1.00  0.00     0.070 C 
HETATM    8  N6  UNL     1      51.785  -8.418  69.034  1.00  0.00    -0.366 N 
ATOM      9  H6  UNL     1      51.370  -7.817  69.745  1.00  0.00     0.165 HD
HETATM   10  C11 UNL     1      51.989  -9.723  69.259  1.00  0.00     0.109 A 
HETATM   11  C12 UNL     1      52.563 -10.547  68.272  1.00  0.00     0.053 A 
HETATM   12  S1  UNL     1      52.970 -12.205  68.183  1.00  0.00    -0.050 SA
ENDROOT
BRANCH   5  13
HETATM   13  N3  UNL     1      53.054  -8.057  65.613  1.00  0.00    -0.198 N 
HETATM   14  N4  UNL     1      52.154  -7.919  64.645  1.00  0.00    -0.251 N 
HETATM   15  C6  UNL     1      52.476  -7.322  63.506  1.00  0.00     0.328 A 
ATOM     16  H4  UNL     1      51.207  -8.275  64.780  1.00  0.00     0.191 HD
HETATM   17  O2  UNL     1      51.617  -7.189  62.582  1.00  0.00    -0.261 OA
HETATM   18  C7  UNL     1      53.744  -6.826  63.278  1.00  0.00     0.319 A 
HETATM   19  O3  UNL     1      54.014  -6.266  62.184  1.00  0.00    -0.262 OA
HETATM   20  N5  UNL     1      54.655  -6.966  64.257  1.00  0.00    -0.269 N 
HETATM   21  C8  UNL     1      54.289  -7.575  65.394  1.00  0.00     0.349 A 
ATOM     22  H5  UNL     1      55.606  -6.615  64.137  1.00  0.00     0.174 HD
HETATM   23  O4  UNL     1      55.138  -7.713  66.319  1.00  0.00    -0.245 OA
ENDBRANCH   5  13
BRANCH   1  24
HETATM   24  N1  UNL     1      54.100 -13.191  65.878  1.00  0.00    -0.307 N 
HETATM   25  C2  UNL     1      54.057 -14.510  66.460  1.00  0.00     0.219 C 
HETATM   26  C1  UNL     1      54.859 -14.797  67.676  1.00  0.00     0.117 C 
HETATM   27  O1  UNL     1      53.334 -15.380  65.909  1.00  0.00    -0.274 OA
ATOM     28  H1  UNL     1      54.498 -13.021  64.955  1.00  0.00     0.171 HD
ENDBRANCH   1  24
TORSDOF 2
ENDMDL
MODEL 2
REMARK VINA RESULT: -9.431871070      2.581      5.780
REMARK  2 active torsions:
REMARK  status: ('A' for Active; 'I' for Inactive)
REMARK       I    between atoms: C2_2  and  N1_4 
REMARK    1  A    between atoms: N1_4  and  C3_6 
REMARK    2  A    between atoms: C5_10  and  N3_11 
ROOT
HETATM    1  C3  UNL     1      53.407  -8.503  63.448  1.00  0.00     0.152 A 
HETATM    2  N2  UNL     1      53.412  -9.038  64.661  1.00  0.00    -0.333 N 
ATOM      3  H2  UNL     1      53.713 -10.001  64.805  1.00  0.00     0.168 HD
HETATM    4  C4  UNL     1      53.016  -8.291  65.682  1.00  0.00     0.084 A 
HETATM    5  C5  UNL     1      52.932  -8.632  67.053  1.00  0.00     0.112 A 
HETATM    6  C9  UNL     1      52.496  -7.730  67.985  1.00  0.00     0.036 A 
HETATM    7  C10 UNL     1      52.433  -8.157  69.422  1.00  0.00     0.070 C 
HETATM    8  N6  UNL     1      52.121  -6.471  67.676  1.00  0.00    -0.366 N 
ATOM      9  H6  UNL     1      51.801  -5.821  68.394  1.00  0.00     0.165 HD
HETATM   10  C11 UNL     1      52.185  -6.107  66.388  1.00  0.00     0.109 A 
HETATM   11  C12 UNL     1      52.628  -7.010  65.401  1.00  0.00     0.053 A 
HETATM   12  S1  UNL     1      52.842  -6.923  63.708  1.00  0.00    -0.050 SA
ENDROOT
BRANCH   5  13
HETATM   13  N3  UNL     1      53.301  -9.939  67.518  1.00  0.00    -0.198 N 
HETATM   14  N4  UNL     1      52.375 -10.810  67.905  1.00  0.00    -0.251 N 
HETATM   15  C6  UNL     1      52.722 -12.016  68.333  1.00  0.00     0.328 A 
ATOM     16  H4  UNL     1      51.390 -10.549  67.872  1.00  0.00     0.191 HD
HETATM   17  O2  UNL     1      51.839 -12.848  68.702  1.00  0.00    -0.261 OA
HETATM   18  C7  UNL     1      54.043 -12.413  68.395  1.00  0.00     0.319 A 
HETATM   19  O3  UNL     1      54.335 -13.566  68.807  1.00  0.00    -0.262 OA
HETATM   20  N5  UNL     1      54.980 -11.532  68.003  1.00  0.00    -0.269 N 
HETATM   21  C8  UNL     1      54.587 -10.323  67.577  1.00  0.00     0.349 A 
ATOM     22  H5  UNL     1      55.970 -11.778  68.030  1.00  0.00     0.174 HD
HETATM   23  O4  UNL     1      55.460  -9.488  67.208  1.00  0.00    -0.245 OA
ENDBRANCH   5  13
BRANCH   1  24
HETATM   24  N1  UNL     1      53.773  -9.130  62.356  1.00  0.00    -0.307 N 
HETATM   25  C2  UNL     1      53.900  -8.318  61.171  1.00  0.00     0.219 C 
HETATM   26  C1  UNL     1      52.691  -7.684  60.588  1.00  0.00     0.117 C 
HETATM   27  O1  UNL     1      55.045  -8.173  60.668  1.00  0.00    -0.274 OA
ATOM     28  H1  UNL     1      53.958 -10.132  62.345  1.00  0.00     0.171 HD
ENDBRANCH   1  24
TORSDOF 2
ENDMDL
MODEL 3
REMARK VINA RESULT: -9.213699326      2.776      6.026
REMARK  2 active torsions:
REMARK  status: ('A' for Active; 'I' for Inactive)
REMARK       I    between atoms: C2_2  and  N1_4 
REMARK    1  A    between atoms: N1_4  and  C3_6 
REMARK    2  A    between atoms: C5_10  and  N3_11 
ROOT
HETATM    1  C3  UNL     1      53.441  -8.328  62.963  1.00  0.00     0.152 A 
HETATM    2  N2  UNL     1      53.584  -8.933  64.134  1.00  0.00    -0.333 N 
ATOM      3  H2  UNL     1      54.016  -9.854  64.197  1.00  0.00     0.168 HD
HETATM    4  C4  UNL     1      53.152  -8.311  65.222  1.00  0.00     0.084 A 
HETATM    5  C5  UNL     1      53.190  -8.745  66.569  1.00  0.00     0.112 A 
HETATM    6  C9  UNL     1      52.693  -7.970  67.581  1.00  0.00     0.036 A 
HETATM    7  C10 UNL     1      52.767  -8.491  68.986  1.00  0.00     0.070 C 
HETATM    8  N6  UNL     1      52.140  -6.756  67.378  1.00  0.00    -0.366 N 
ATOM      9  H6  UNL     1      51.779  -6.201  68.154  1.00  0.00     0.165 HD
HETATM   10  C11 UNL     1      52.084  -6.307  66.117  1.00  0.00     0.109 A 
HETATM   11  C12 UNL     1      52.585  -7.078  65.050  1.00  0.00     0.053 A 
HETATM   12  S1  UNL     1      52.691  -6.857  63.358  1.00  0.00    -0.050 SA
ENDROOT
BRANCH   5  13
HETATM   13  N3  UNL     1      53.752 -10.018  66.923  1.00  0.00    -0.198 N 
HETATM   14  N4  UNL     1      54.942 -10.096  67.510  1.00  0.00    -0.251 N 
HETATM   15  C6  UNL     1      55.457 -11.274  67.835  1.00  0.00     0.328 A 
ATOM     16  H4  UNL     1      55.463  -9.243  67.712  1.00  0.00     0.191 HD
HETATM   17  O2  UNL     1      56.592 -11.350  68.396  1.00  0.00    -0.261 OA
HETATM   18  C7  UNL     1      54.787 -12.455  67.581  1.00  0.00     0.319 A 
HETATM   19  O3  UNL     1      55.307 -13.554  67.903  1.00  0.00    -0.262 OA
HETATM   20  N5  UNL     1      53.584 -12.376  66.987  1.00  0.00    -0.269 N 
HETATM   21  C8  UNL     1      53.099 -11.166  66.674  1.00  0.00     0.349 A 
ATOM     22  H5  UNL     1      53.050 -13.220  66.778  1.00  0.00     0.174 HD
HETATM   23  O4  UNL     1      51.970 -11.081  66.115  1.00  0.00    -0.245 OA
ENDBRANCH   5  13
BRANCH   1  24
HETATM   24  N1  UNL     1      53.824  -8.831  61.814  1.00  0.00    -0.307 N 
HETATM   25  C2  UNL     1      53.670  -7.974  60.664  1.00  0.00     0.219 C 
HETATM   26  C1  UNL     1      52.308  -7.589  60.219  1.00  0.00     0.117 C 
HETATM   27  O1  UNL     1      54.709  -7.578  60.073  1.00  0.00    -0.274 OA
ATOM     28  H1  UNL     1      54.208  -9.772  61.737  1.00  0.00     0.171 HD
ENDBRANCH   1  24
TORSDOF 2
ENDMDL
MODEL 4
REMARK VINA RESULT: -9.144450949      2.667      5.965
REMARK  2 active torsions:
REMARK  status: ('A' for Active; 'I' for Inactive)
REMARK       I    between atoms: C2_2  and  N1_4 
REMARK    1  A    between atoms: N1_4  and  C3_6 
REMARK    2  A    between atoms: C5_10  and  N3_11 
ROOT
HETATM    1  C3  UNL     1      53.396  -8.335  62.454  1.00  0.00     0.152 A 
HETATM    2  N2  UNL     1      53.544  -8.956  63.615  1.00  0.00    -0.333 N 
ATOM      3  H2  UNL     1      53.884  -9.917  63.653  1.00  0.00     0.168 HD
HETATM    4  C4  UNL     1      53.241  -8.300  64.726  1.00  0.00     0.084 A 
HETATM    5  C5  UNL     1      53.313  -8.742  66.068  1.00  0.00     0.112 A 
HETATM    6  C9  UNL     1      52.957  -7.926  67.107  1.00  0.00     0.036 A 
HETATM    7  C10 UNL     1      53.059  -8.459  68.505  1.00  0.00     0.070 C 
HETATM    8  N6  UNL     1      52.519  -6.661  66.935  1.00  0.00    -0.366 N 
ATOM      9  H6  UNL     1      52.262  -6.077  67.731  1.00  0.00     0.165 HD
HETATM   10  C11 UNL     1      52.435  -6.203  65.680  1.00  0.00     0.109 A 
HETATM   11  C12 UNL     1      52.793  -7.015  64.586  1.00  0.00     0.053 A 
HETATM   12  S1  UNL     1      52.822  -6.797  62.891  1.00  0.00    -0.050 SA
ENDROOT
BRANCH   5  13
HETATM   13  N3  UNL     1      53.764 -10.067  66.390  1.00  0.00    -0.198 N 
HETATM   14  N4  UNL     1      52.974 -10.914  67.042  1.00  0.00    -0.251 N 
HETATM   15  C6  UNL     1      53.395 -12.136  67.338  1.00  0.00     0.328 A 
ATOM     16  H4  UNL     1      52.037 -10.621  67.318  1.00  0.00     0.191 HD
HETATM   17  O2  UNL     1      52.642 -12.945  67.960  1.00  0.00    -0.261 OA
HETATM   18  C7  UNL     1      54.656 -12.576  66.985  1.00  0.00     0.319 A 
HETATM   19  O3  UNL     1      55.022 -13.742  67.282  1.00  0.00    -0.262 OA
HETATM   20  N5  UNL     1      55.455 -11.719  66.325  1.00  0.00    -0.269 N 
HETATM   21  C8  UNL     1      54.991 -10.492  66.046  1.00  0.00     0.349 A 
ATOM     22  H5  UNL     1      56.395 -11.996  66.043  1.00  0.00     0.174 HD
HETATM   23  O4  UNL     1      55.734  -9.680  65.428  1.00  0.00    -0.245 OA
ENDBRANCH   5  13
BRANCH   1  24
HETATM   24  N1  UNL     1      53.659  -8.867  61.284  1.00  0.00    -0.307 N 
HETATM   25  C2  UNL     1      53.460  -8.014  60.139  1.00  0.00     0.219 C 
HETATM   26  C1  UNL     1      52.088  -7.559  59.798  1.00  0.00     0.117 C 
HETATM   27  O1  UNL     1      54.468  -7.680  59.463  1.00  0.00    -0.274 OA
ATOM     28  H1  UNL     1      53.985  -9.829  61.190  1.00  0.00     0.171 HD
ENDBRANCH   1  24
TORSDOF 2
ENDMDL
MODEL 5
REMARK VINA RESULT: -9.128189933      2.909      5.484
REMARK  2 active torsions:
REMARK  status: ('A' for Active; 'I' for Inactive)
REMARK       I    between atoms: C2_2  and  N1_4 
REMARK    1  A    between atoms: N1_4  and  C3_6 
REMARK    2  A    between atoms: C5_10  and  N3_11 
ROOT
HETATM    1  C3  UNL     1      52.158  -7.159  70.519  1.00  0.00     0.152 A 
HETATM    2  N2  UNL     1      52.486  -7.476  69.275  1.00  0.00    -0.333 N 
ATOM      3  H2  UNL     1      52.599  -6.753  68.565  1.00  0.00     0.168 HD
HETATM    4  C4  UNL     1      52.663  -8.754  68.974  1.00  0.00     0.084 A 
HETATM    5  C5  UNL     1      53.010  -9.336  67.732  1.00  0.00     0.112 A 
HETATM    6  C9  UNL     1      53.154 -10.690  67.595  1.00  0.00     0.036 A 
HETATM    7  C10 UNL     1      53.525 -11.240  66.250  1.00  0.00     0.070 C 
HETATM    8  N6  UNL     1      52.978 -11.558  68.613  1.00  0.00    -0.366 N 
ATOM      9  H6  UNL     1      53.093 -12.563  68.480  1.00  0.00     0.165 HD
HETATM   10  C11 UNL     1      52.648 -11.049  69.807  1.00  0.00     0.109 A 
HETATM   11  C12 UNL     1      52.491  -9.660  69.985  1.00  0.00     0.053 A 
HETATM   12  S1  UNL     1      52.089  -8.660  71.311  1.00  0.00    -0.050 SA
ENDROOT
BRANCH   5  13
HETATM   13  N3  UNL     1      53.226  -8.526  66.567  1.00  0.00    -0.198 N 
HETATM   14  N4  UNL     1      54.455  -8.296  66.116  1.00  0.00    -0.251 N 
HETATM   15  C6  UNL     1      54.649  -7.546  65.040  1.00  0.00     0.328 A 
ATOM     16  H4  UNL     1      55.256  -8.698  66.603  1.00  0.00     0.191 HD
HETATM   17  O2  UNL     1      55.821  -7.326  64.609  1.00  0.00    -0.261 OA
HETATM   18  C7  UNL     1      53.595  -6.979  64.349  1.00  0.00     0.319 A 
HETATM   19  O3  UNL     1      53.817  -6.273  63.332  1.00  0.00    -0.262 OA
HETATM   20  N5  UNL     1      52.352  -7.212  64.805  1.00  0.00    -0.269 N 
HETATM   21  C8  UNL     1      52.200  -7.975  65.897  1.00  0.00     0.349 A 
ATOM     22  H5  UNL     1      51.541  -6.816  64.330  1.00  0.00     0.174 HD
HETATM   23  O4  UNL     1      51.036  -8.199  66.333  1.00  0.00    -0.245 OA
ENDBRANCH   5  13
BRANCH   1  24
HETATM   24  N1  UNL     1      51.954  -5.937  70.948  1.00  0.00    -0.307 N 
HETATM   25  C2  UNL     1      51.041  -5.797  72.056  1.00  0.00     0.219 C 
HETATM   26  C1  UNL     1      49.608  -6.136  71.867  1.00  0.00     0.117 C 
HETATM   27  O1  UNL     1      51.497  -5.389  73.156  1.00  0.00    -0.274 OA
ATOM     28  H1  UNL     1      52.414  -5.132  70.524  1.00  0.00     0.171 HD
ENDBRANCH   1  24
TORSDOF 2
ENDMDL
