MODEL 1
REMARK VINA RESULT: -5.235502758      0.000      0.000
REMARK  1 active torsions:
REMARK  status: ('A' for Active; 'I' for Inactive)
REMARK    1  A    between atoms: N1_9  and  N2_10 
ROOT
HETATM    1  C1  UNL     1      14.820   1.788  25.381  1.00  0.00     0.040 C 
HETATM    2  C2  UNL     1      14.291   0.424  25.126  1.00  0.00     0.046 C 
HETATM    3  C3  UNL     1      14.926  -0.578  26.066  1.00  0.00     0.032 C 
HETATM    4  C4  UNL     1      14.544  -1.980  25.696  1.00  0.00     0.004 C 
HETATM    5  C5  UNL     1      13.148  -2.155  25.233  1.00  0.00     0.027 C 
HETATM    6  C6  UNL     1      12.551  -0.949  24.566  1.00  0.00     0.104 C 
HETATM    7  C7  UNL     1      13.314  -0.762  23.250  1.00  0.00     0.029 C 
HETATM    8  C8  UNL     1      14.511   0.039  23.678  1.00  0.00     0.034 C 
HETATM    9  N1  UNL     1      12.876   0.285  25.247  1.00  0.00    -0.300 N 
ENDROOT
BRANCH   9  10
HETATM   10  N2  UNL     1      11.992   1.124  25.869  1.00  0.00    -0.251 N 
HETATM   11  N3  UNL     1      12.044   1.499  27.061  1.00  0.00    -0.331 N 
ATOM     12  H32 UNL     1      12.825   1.134  27.607  1.00  0.00     0.178 HD
ATOM     13  H31 UNL     1      11.386   2.124  27.525  1.00  0.00     0.178 HD
ATOM     14  H2  UNL     1      11.217   1.479  25.307  1.00  0.00     0.207 HD
ENDBRANCH   9  10
TORSDOF 1
ENDMDL
MODEL 2
REMARK VINA RESULT: -4.886384666      0.821      2.866
REMARK  1 active torsions:
REMARK  status: ('A' for Active; 'I' for Inactive)
REMARK    1  A    between atoms: N1_9  and  N2_10 
ROOT
HETATM    1  C1  UNL     1      12.570  -1.524  24.742  1.00  0.00     0.040 C 
HETATM    2  C2  UNL     1      13.696  -0.586  24.981  1.00  0.00     0.046 C 
HETATM    3  C3  UNL     1      14.217  -0.035  23.671  1.00  0.00     0.032 C 
HETATM    4  C4  UNL     1      15.469   0.762  23.883  1.00  0.00     0.004 C 
HETATM    5  C5  UNL     1      15.495   1.584  25.115  1.00  0.00     0.027 C 
HETATM    6  C6  UNL     1      14.678   1.040  26.252  1.00  0.00     0.104 C 
HETATM    7  C7  UNL     1      15.371  -0.251  26.701  1.00  0.00     0.029 C 
HETATM    8  C8  UNL     1      14.793  -1.275  25.766  1.00  0.00     0.034 C 
HETATM    9  N1  UNL     1      13.397   0.526  25.824  1.00  0.00    -0.300 N 
ENDROOT
BRANCH   9  10
HETATM   10  N2  UNL     1      12.168   1.022  26.168  1.00  0.00    -0.251 N 
HETATM   11  N3  UNL     1      11.925   1.792  27.123  1.00  0.00    -0.331 N 
ATOM     12  H32 UNL     1      12.729   2.067  27.688  1.00  0.00     0.178 HD
ATOM     13  H31 UNL     1      11.010   2.161  27.380  1.00  0.00     0.178 HD
ATOM     14  H2  UNL     1      11.376   0.736  25.592  1.00  0.00     0.207 HD
ENDBRANCH   9  10
TORSDOF 1
ENDMDL
MODEL 3
REMARK VINA RESULT: -4.735936591      1.034      3.134
REMARK  1 active torsions:
REMARK  status: ('A' for Active; 'I' for Inactive)
REMARK    1  A    between atoms: N1_9  and  N2_10 
ROOT
HETATM    1  C1  UNL     1      13.221  -1.491  25.200  1.00  0.00     0.040 C 
HETATM    2  C2  UNL     1      13.971  -0.242  25.489  1.00  0.00     0.046 C 
HETATM    3  C3  UNL     1      14.601   0.304  24.226  1.00  0.00     0.032 C 
HETATM    4  C4  UNL     1      15.514   1.454  24.535  1.00  0.00     0.004 C 
HETATM    5  C5  UNL     1      15.045   2.365  25.604  1.00  0.00     0.027 C 
HETATM    6  C6  UNL     1      14.173   1.720  26.643  1.00  0.00     0.104 C 
HETATM    7  C7  UNL     1      15.070   0.744  27.412  1.00  0.00     0.029 C 
HETATM    8  C8  UNL     1      15.011  -0.493  26.562  1.00  0.00     0.034 C 
HETATM    9  N1  UNL     1      13.205   0.810  26.074  1.00  0.00    -0.300 N 
ENDROOT
BRANCH   9  10
HETATM   10  N2  UNL     1      11.844   0.951  26.103  1.00  0.00    -0.251 N 
HETATM   11  N3  UNL     1      11.105   1.182  25.121  1.00  0.00    -0.331 N 
ATOM     12  H32 UNL     1      11.577   1.271  24.221  1.00  0.00     0.178 HD
ATOM     13  H31 UNL     1      10.091   1.288  25.143  1.00  0.00     0.178 HD
ATOM     14  H2  UNL     1      11.389   0.859  27.012  1.00  0.00     0.207 HD
ENDBRANCH   9  10
TORSDOF 1
ENDMDL
MODEL 4
REMARK VINA RESULT: -4.654709015      1.924      2.545
REMARK  1 active torsions:
REMARK  status: ('A' for Active; 'I' for Inactive)
REMARK    1  A    between atoms: N1_9  and  N2_10 
ROOT
HETATM    1  C1  UNL     1      12.541   1.124  26.257  1.00  0.00     0.040 C 
HETATM    2  C2  UNL     1      13.812   0.445  25.897  1.00  0.00     0.046 C 
HETATM    3  C3  UNL     1      14.673   0.242  27.125  1.00  0.00     0.032 C 
HETATM    4  C4  UNL     1      16.033  -0.269  26.749  1.00  0.00     0.004 C 
HETATM    5  C5  UNL     1      16.056  -1.246  25.636  1.00  0.00     0.027 C 
HETATM    6  C6  UNL     1      14.944  -1.090  24.638  1.00  0.00     0.104 C 
HETATM    7  C7  UNL     1      15.195   0.238  23.917  1.00  0.00     0.029 C 
HETATM    8  C8  UNL     1      14.544   1.236  24.832  1.00  0.00     0.034 C 
HETATM    9  N1  UNL     1      13.667  -0.825  25.261  1.00  0.00    -0.300 N 
ENDROOT
BRANCH   9  10
HETATM   10  N2  UNL     1      12.567  -1.638  25.233  1.00  0.00    -0.251 N 
HETATM   11  N3  UNL     1      12.572  -2.888  25.264  1.00  0.00    -0.331 N 
ATOM     12  H32 UNL     1      13.492  -3.327  25.316  1.00  0.00     0.178 HD
ATOM     13  H31 UNL     1      11.753  -3.494  25.244  1.00  0.00     0.178 HD
ATOM     14  H2  UNL     1      11.655  -1.181  25.182  1.00  0.00     0.207 HD
ENDBRANCH   9  10
TORSDOF 1
ENDMDL
MODEL 5
REMARK VINA RESULT: -4.604045014      2.017      3.112
REMARK  1 active torsions:
REMARK  status: ('A' for Active; 'I' for Inactive)
REMARK    1  A    between atoms: N1_9  and  N2_10 
ROOT
HETATM    1  C1  UNL     1      13.312   3.164  28.514  1.00  0.00     0.040 C 
HETATM    2  C2  UNL     1      14.088   2.233  27.654  1.00  0.00     0.046 C 
HETATM    3  C3  UNL     1      14.742   1.156  28.491  1.00  0.00     0.032 C 
HETATM    4  C4  UNL     1      15.677   0.325  27.663  1.00  0.00     0.004 C 
HETATM    5  C5  UNL     1      15.218   0.040  26.284  1.00  0.00     0.027 C 
HETATM    6  C6  UNL     1      14.322   1.088  25.690  1.00  0.00     0.104 C 
HETATM    7  C7  UNL     1      15.189   2.337  25.496  1.00  0.00     0.029 C 
HETATM    8  C8  UNL     1      15.111   3.001  26.842  1.00  0.00     0.034 C 
HETATM    9  N1  UNL     1      13.339   1.582  26.628  1.00  0.00    -0.300 N 
ENDROOT
BRANCH   9  10
HETATM   10  N2  UNL     1      11.981   1.439  26.531  1.00  0.00    -0.251 N 
HETATM   11  N3  UNL     1      11.350   1.061  25.520  1.00  0.00    -0.331 N 
ATOM     12  H32 UNL     1      11.916   0.842  24.700  1.00  0.00     0.178 HD
ATOM     13  H31 UNL     1      10.339   0.955  25.447  1.00  0.00     0.178 HD
ATOM     14  H2  UNL     1      11.432   1.663  27.361  1.00  0.00     0.207 HD
ENDBRANCH   9  10
TORSDOF 1
ENDMDL
