MODEL 1
REMARK VINA RESULT: -4.435833306      0.000      0.000
REMARK  1 active torsions:
REMARK  status: ('A' for Active; 'I' for Inactive)
REMARK    1  A    between atoms: C8_11  and  O1_13 
ROOT
HETATM    1  C1  UNL     1      14.986  -0.825  23.332  1.00  0.00     0.020 C 
HETATM    2  C2  UNL     1      14.242  -0.742  24.666  1.00  0.00     0.010 C 
HETATM    3  C3  UNL     1      14.806  -1.868  25.529  1.00  0.00     0.020 C 
HETATM    4  C4  UNL     1      14.563   0.559  25.298  1.00  0.00     0.020 C 
HETATM    5  C5  UNL     1      13.392   1.409  25.646  1.00  0.00     0.019 A 
HETATM    6  C6  UNL     1      12.876   1.230  27.099  1.00  0.00     0.040 A 
HETATM    7  C7  UNL     1      12.134   0.747  25.915  1.00  0.00     0.194 A 
HETATM    8  N1  UNL     1      12.034  -0.641  25.596  1.00  0.00    -0.038 N 
ATOM      9  H11 UNL     1      11.065  -0.950  25.531  1.00  0.00     0.281 HD
ATOM     10  H12 UNL     1      12.328  -1.234  26.372  1.00  0.00     0.281 HD
HETATM   11  C8  UNL     1      12.787  -0.926  24.371  1.00  0.00     0.228 C 
HETATM   12  C9  UNL     1      12.467  -2.344  23.995  1.00  0.00     0.079 C 
ENDROOT
BRANCH  11  13
HETATM   13  O1  UNL     1      12.433  -0.088  23.334  1.00  0.00    -0.365 OA
ATOM     14  H1  UNL     1      12.978   0.691  23.368  1.00  0.00     0.212 HD
ENDBRANCH  11  13
TORSDOF 1
ENDMDL
MODEL 2
REMARK VINA RESULT: -4.411552879      1.671      2.231
REMARK  1 active torsions:
REMARK  status: ('A' for Active; 'I' for Inactive)
REMARK    1  A    between atoms: C8_11  and  O1_13 
ROOT
HETATM    1  C1  UNL     1      16.521  -0.295  25.237  1.00  0.00     0.020 C 
HETATM    2  C2  UNL     1      15.121  -0.844  24.963  1.00  0.00     0.010 C 
HETATM    3  C3  UNL     1      15.186  -2.335  25.286  1.00  0.00     0.020 C 
HETATM    4  C4  UNL     1      14.173  -0.190  25.895  1.00  0.00     0.020 C 
HETATM    5  C5  UNL     1      13.022   0.506  25.255  1.00  0.00     0.019 A 
HETATM    6  C6  UNL     1      11.741  -0.361  25.120  1.00  0.00     0.040 A 
HETATM    7  C7  UNL     1      12.577   0.026  23.964  1.00  0.00     0.194 A 
HETATM    8  N1  UNL     1      13.411  -0.911  23.283  1.00  0.00    -0.038 N 
ATOM      9  H11 UNL     1      13.192  -0.965  22.288  1.00  0.00     0.281 HD
ATOM     10  H12 UNL     1      13.192  -1.874  23.536  1.00  0.00     0.281 HD
HETATM   11  C8  UNL     1      14.822  -0.588  23.520  1.00  0.00     0.228 C 
HETATM   12  C9  UNL     1      15.621  -1.481  22.615  1.00  0.00     0.079 C 
ENDROOT
BRANCH  11  13
HETATM   13  O1  UNL     1      15.111   0.730  23.232  1.00  0.00    -0.365 OA
ATOM     14  H1  UNL     1      15.243   0.818  22.295  1.00  0.00     0.212 HD
ENDBRANCH  11  13
TORSDOF 1
ENDMDL
MODEL 3
REMARK VINA RESULT: -4.208165053      1.862      2.807
REMARK  1 active torsions:
REMARK  status: ('A' for Active; 'I' for Inactive)
REMARK    1  A    between atoms: C8_11  and  O1_13 
ROOT
HETATM    1  C1  UNL     1      15.897  -1.652  23.177  1.00  0.00     0.020 C 
HETATM    2  C2  UNL     1      14.989  -0.644  23.881  1.00  0.00     0.010 C 
HETATM    3  C3  UNL     1      15.562   0.734  23.556  1.00  0.00     0.020 C 
HETATM    4  C4  UNL     1      13.631  -0.751  23.298  1.00  0.00     0.020 C 
HETATM    5  C5  UNL     1      12.536  -1.023  24.269  1.00  0.00     0.019 A 
HETATM    6  C6  UNL     1      11.821   0.247  24.804  1.00  0.00     0.040 A 
HETATM    7  C7  UNL     1      12.720  -0.582  25.634  1.00  0.00     0.194 A 
HETATM    8  N1  UNL     1      14.022  -0.139  26.017  1.00  0.00    -0.038 N 
ATOM      9  H11 UNL     1      14.143  -0.135  27.030  1.00  0.00     0.281 HD
ATOM     10  H12 UNL     1      14.153   0.858  25.848  1.00  0.00     0.281 HD
HETATM   11  C8  UNL     1      15.042  -0.950  25.344  1.00  0.00     0.228 C 
HETATM   12  C9  UNL     1      16.361  -0.563  25.950  1.00  0.00     0.079 C 
ENDROOT
BRANCH  11  13
HETATM   13  O1  UNL     1      14.836  -2.303  25.524  1.00  0.00    -0.365 OA
ATOM     14  H1  UNL     1      14.431  -2.658  24.741  1.00  0.00     0.212 HD
ENDBRANCH  11  13
TORSDOF 1
ENDMDL
MODEL 4
REMARK VINA RESULT: -4.166139695      2.166      3.479
REMARK  1 active torsions:
REMARK  status: ('A' for Active; 'I' for Inactive)
REMARK    1  A    between atoms: C8_11  and  O1_13 
ROOT
HETATM    1  C1  UNL     1      16.249   0.246  26.499  1.00  0.00     0.020 C 
HETATM    2  C2  UNL     1      15.002   0.805  25.814  1.00  0.00     0.010 C 
HETATM    3  C3  UNL     1      15.508   1.774  24.748  1.00  0.00     0.020 C 
HETATM    4  C4  UNL     1      14.293  -0.314  25.151  1.00  0.00     0.020 C 
HETATM    5  C5  UNL     1      12.869  -0.495  25.547  1.00  0.00     0.019 A 
HETATM    6  C6  UNL     1      11.849   0.230  24.627  1.00  0.00     0.040 A 
HETATM    7  C7  UNL     1      12.144   0.669  26.008  1.00  0.00     0.194 A 
HETATM    8  N1  UNL     1      12.895   1.851  26.284  1.00  0.00    -0.038 N 
ATOM      9  H11 UNL     1      12.379   2.505  26.871  1.00  0.00     0.281 HD
ATOM     10  H12 UNL     1      12.998   2.441  25.459  1.00  0.00     0.281 HD
HETATM   11  C8  UNL     1      14.192   1.492  26.868  1.00  0.00     0.228 C 
HETATM   12  C9  UNL     1      14.828   2.777  27.314  1.00  0.00     0.079 C 
ENDROOT
BRANCH  11  13
HETATM   13  O1  UNL     1      14.061   0.647  27.951  1.00  0.00    -0.365 OA
ATOM     14  H1  UNL     1      13.754  -0.198  27.645  1.00  0.00     0.212 HD
ENDBRANCH  11  13
TORSDOF 1
ENDMDL
MODEL 5
REMARK VINA RESULT: -4.131132047      1.929      3.064
REMARK  1 active torsions:
REMARK  status: ('A' for Active; 'I' for Inactive)
REMARK    1  A    between atoms: C8_11  and  O1_13 
ROOT
HETATM    1  C1  UNL     1      15.827  -1.022  25.612  1.00  0.00     0.020 C 
HETATM    2  C2  UNL     1      14.735  -0.064  25.138  1.00  0.00     0.010 C 
HETATM    3  C3  UNL     1      15.316   0.668  23.930  1.00  0.00     0.020 C 
HETATM    4  C4  UNL     1      13.568  -0.866  24.701  1.00  0.00     0.020 C 
HETATM    5  C5  UNL     1      12.279  -0.539  25.369  1.00  0.00     0.019 A 
HETATM    6  C6  UNL     1      11.405   0.496  24.611  1.00  0.00     0.040 A 
HETATM    7  C7  UNL     1      12.103   0.805  25.876  1.00  0.00     0.194 A 
HETATM    8  N1  UNL     1      13.252   1.650  25.922  1.00  0.00    -0.038 N 
ATOM      9  H11 UNL     1      13.119   2.443  26.550  1.00  0.00     0.281 HD
ATOM     10  H12 UNL     1      13.382   2.168  25.053  1.00  0.00     0.281 HD
HETATM   11  C8  UNL     1      14.438   0.862  26.274  1.00  0.00     0.228 C 
HETATM   12  C9  UNL     1      15.550   1.845  26.502  1.00  0.00     0.079 C 
ENDROOT
BRANCH  11  13
HETATM   13  O1  UNL     1      14.247   0.116  27.419  1.00  0.00    -0.365 OA
ATOM     14  H1  UNL     1      15.053  -0.345  27.623  1.00  0.00     0.212 HD
ENDBRANCH  11  13
TORSDOF 1
ENDMDL
