MODEL 1
REMARK VINA RESULT: -5.285598718      0.000      0.000
REMARK  0 active torsions:
REMARK  status: ('A' for Active; 'I' for Inactive)
ROOT
HETATM    1  N1  UNL     1      12.001   1.612  26.815  1.00  0.00    -0.389 N 
ATOM      2  H11 UNL     1      12.510   1.875  27.658  1.00  0.00     0.157 HD
ATOM      3  H12 UNL     1      11.151   2.119  26.570  1.00  0.00     0.157 HD
HETATM    4  C1  UNL     1      12.417   0.665  26.075  1.00  0.00     0.070 C 
HETATM    5  C2  UNL     1      11.690   0.289  24.869  1.00  0.00     0.076 C 
HETATM    6  C3  UNL     1      12.534  -0.266  23.770  1.00  0.00     0.014 C 
HETATM    7  C4  UNL     1      13.752  -0.985  24.140  1.00  0.00     0.009 C 
HETATM    8  C5  UNL     1      14.892  -0.500  23.227  1.00  0.00     0.007 C 
HETATM    9  C6  UNL     1      15.406   0.821  23.745  1.00  0.00     0.001 C 
HETATM   10  C7  UNL     1      16.125   0.550  25.043  1.00  0.00     0.002 C 
HETATM   11  C8  UNL     1      15.715  -0.752  25.673  1.00  0.00     0.025 C 
HETATM   12  C9  UNL     1      14.199  -0.986  25.542  1.00  0.00     0.086 C 
HETATM   13  N2  UNL     1      13.589  -0.034  26.412  1.00  0.00    -0.375 N 
ATOM     14  H2  UNL     1      14.022   0.147  27.318  1.00  0.00     0.161 HD
ENDROOT
TORSDOF 0
ENDMDL
MODEL 2
REMARK VINA RESULT: -4.874888401      1.329      2.587
REMARK  0 active torsions:
REMARK  status: ('A' for Active; 'I' for Inactive)
ROOT
HETATM    1  N1  UNL     1      12.181   1.645  27.337  1.00  0.00    -0.389 N 
ATOM      2  H11 UNL     1      11.259   1.237  27.491  1.00  0.00     0.157 HD
ATOM      3  H12 UNL     1      12.565   2.279  28.038  1.00  0.00     0.157 HD
HETATM    4  C1  UNL     1      12.847   1.370  26.289  1.00  0.00     0.070 C 
HETATM    5  C2  UNL     1      14.165   1.954  26.070  1.00  0.00     0.076 C 
HETATM    6  C3  UNL     1      15.106   1.110  25.277  1.00  0.00     0.014 C 
HETATM    7  C4  UNL     1      14.537   0.201  24.283  1.00  0.00     0.009 C 
HETATM    8  C5  UNL     1      15.233  -1.163  24.424  1.00  0.00     0.007 C 
HETATM    9  C6  UNL     1      14.621  -1.908  25.585  1.00  0.00     0.001 C 
HETATM   10  C7  UNL     1      13.221  -2.299  25.185  1.00  0.00     0.002 C 
HETATM   11  C8  UNL     1      12.684  -1.464  24.057  1.00  0.00     0.025 C 
HETATM   12  C9  UNL     1      13.078   0.015  24.217  1.00  0.00     0.086 C 
HETATM   13  N2  UNL     1      12.318   0.496  25.325  1.00  0.00    -0.375 N 
ATOM     14  H2  UNL     1      11.349   0.192  25.420  1.00  0.00     0.161 HD
ENDROOT
TORSDOF 0
ENDMDL
MODEL 3
REMARK VINA RESULT: -4.783690749      1.376      2.861
REMARK  0 active torsions:
REMARK  status: ('A' for Active; 'I' for Inactive)
ROOT
HETATM    1  N1  UNL     1      12.158   1.746  27.333  1.00  0.00    -0.389 N 
ATOM      2  H11 UNL     1      11.306   1.984  26.826  1.00  0.00     0.157 HD
ATOM      3  H12 UNL     1      12.192   1.894  28.342  1.00  0.00     0.157 HD
HETATM    4  C1  UNL     1      13.167   1.271  26.722  1.00  0.00     0.070 C 
HETATM    5  C2  UNL     1      14.385   0.932  27.447  1.00  0.00     0.076 C 
HETATM    6  C3  UNL     1      15.177  -0.189  26.862  1.00  0.00     0.014 C 
HETATM    7  C4  UNL     1      15.110  -0.391  25.415  1.00  0.00     0.009 C 
HETATM    8  C5  UNL     1      14.924  -1.894  25.147  1.00  0.00     0.007 C 
HETATM    9  C6  UNL     1      13.473  -2.253  25.354  1.00  0.00     0.001 C 
HETATM   10  C7  UNL     1      12.687  -1.625  24.231  1.00  0.00     0.002 C 
HETATM   11  C8  UNL     1      13.417  -0.486  23.576  1.00  0.00     0.025 C 
HETATM   12  C9  UNL     1      14.147   0.384  24.616  1.00  0.00     0.086 C 
HETATM   13  N2  UNL     1      13.119   1.067  25.332  1.00  0.00    -0.375 N 
ATOM     14  H2  UNL     1      12.316   1.422  24.813  1.00  0.00     0.161 HD
ENDROOT
TORSDOF 0
ENDMDL
MODEL 4
REMARK VINA RESULT: -4.746107134      1.784      2.820
REMARK  0 active torsions:
REMARK  status: ('A' for Active; 'I' for Inactive)
ROOT
HETATM    1  N1  UNL     1      12.537  -2.526  25.116  1.00  0.00    -0.389 N 
ATOM      2  H11 UNL     1      13.248  -3.238  24.952  1.00  0.00     0.157 HD
ATOM      3  H12 UNL     1      11.580  -2.818  25.315  1.00  0.00     0.157 HD
HETATM    4  C1  UNL     1      12.833  -1.290  25.074  1.00  0.00     0.070 C 
HETATM    5  C2  UNL     1      11.815  -0.272  25.308  1.00  0.00     0.076 C 
HETATM    6  C3  UNL     1      12.317   0.995  25.916  1.00  0.00     0.014 C 
HETATM    7  C4  UNL     1      13.694   1.394  25.624  1.00  0.00     0.009 C 
HETATM    8  C5  UNL     1      14.354   1.839  26.941  1.00  0.00     0.007 C 
HETATM    9  C6  UNL     1      14.778   0.615  27.715  1.00  0.00     0.001 C 
HETATM   10  C7  UNL     1      15.930  -0.014  26.972  1.00  0.00     0.002 C 
HETATM   11  C8  UNL     1      15.989   0.405  25.530  1.00  0.00     0.025 C 
HETATM   12  C9  UNL     1      14.583   0.468  24.906  1.00  0.00     0.086 C 
HETATM   13  N2  UNL     1      14.151  -0.887  24.800  1.00  0.00    -0.375 N 
ATOM     14  H2  UNL     1      14.828  -1.594  24.513  1.00  0.00     0.161 HD
ENDROOT
TORSDOF 0
ENDMDL
MODEL 5
REMARK VINA RESULT: -4.601217616      5.557      7.169
REMARK  0 active torsions:
REMARK  status: ('A' for Active; 'I' for Inactive)
ROOT
HETATM    1  N1  UNL     1      16.730  -2.197  17.538  1.00  0.00    -0.389 N 
ATOM      2  H11 UNL     1      16.079  -2.961  17.717  1.00  0.00     0.157 HD
ATOM      3  H12 UNL     1      16.706  -1.727  16.633  1.00  0.00     0.157 HD
HETATM    4  C1  UNL     1      17.561  -1.829  18.428  1.00  0.00     0.070 C 
HETATM    5  C2  UNL     1      18.491  -0.736  18.171  1.00  0.00     0.076 C 
HETATM    6  C3  UNL     1      18.887   0.052  19.375  1.00  0.00     0.014 C 
HETATM    7  C4  UNL     1      18.909  -0.636  20.666  1.00  0.00     0.009 C 
HETATM    8  C5  UNL     1      18.226   0.271  21.705  1.00  0.00     0.007 C 
HETATM    9  C6  UNL     1      16.730   0.142  21.561  1.00  0.00     0.001 C 
HETATM   10  C7  UNL     1      16.347  -1.238  22.034  1.00  0.00     0.002 C 
HETATM   11  C8  UNL     1      17.503  -2.199  22.020  1.00  0.00     0.025 C 
HETATM   12  C9  UNL     1      18.379  -2.005  20.770  1.00  0.00     0.086 C 
HETATM   13  N2  UNL     1      17.594  -2.476  19.675  1.00  0.00    -0.375 N 
ATOM     14  H2  UNL     1      17.033  -3.317  19.804  1.00  0.00     0.161 HD
ENDROOT
TORSDOF 0
ENDMDL
