MODEL 1
REMARK VINA RESULT: -4.849569396      0.000      0.000
REMARK  0 active torsions:
REMARK  status: ('A' for Active; 'I' for Inactive)
ROOT
HETATM    1  C1  UNL     1      12.875   1.726  28.409  1.00  0.00     0.176 C 
HETATM    2  N1  UNL     1      13.159   1.841  26.960  1.00  0.00    -0.316 N 
HETATM    3  C2  UNL     1      14.481   1.978  26.763  1.00  0.00     0.082 C 
HETATM    4  C3  UNL     1      15.184   2.554  25.613  1.00  0.00     0.046 C 
HETATM    5  C4  UNL     1      15.825   1.523  24.635  1.00  0.00     0.005 C 
HETATM    6  C5  UNL     1      14.667   0.688  24.343  1.00  0.00     0.000 C 
HETATM    7  C6  UNL     1      14.472  -0.402  23.423  1.00  0.00     0.000 C 
HETATM    8  C7  UNL     1      13.093  -0.969  23.838  1.00  0.00     0.002 C 
HETATM    9  C8  UNL     1      12.084   0.005  24.323  1.00  0.00     0.021 C 
HETATM   10  C9  UNL     1      11.914   0.177  25.800  1.00  0.00     0.139 C 
HETATM   11  N2  UNL     1      12.081   1.547  26.301  1.00  0.00    -0.335 N 
ATOM     12  H2  UNL     1      11.365   2.253  26.134  1.00  0.00     0.180 HD
ENDROOT
TORSDOF 0
ENDMDL
MODEL 2
REMARK VINA RESULT: -4.630364771      2.373      4.463
REMARK  0 active torsions:
REMARK  status: ('A' for Active; 'I' for Inactive)
ROOT
HETATM    1  C1  UNL     1      15.221  -3.167  25.525  1.00  0.00     0.176 C 
HETATM    2  N1  UNL     1      14.705  -1.801  25.278  1.00  0.00    -0.316 N 
HETATM    3  C2  UNL     1      13.376  -1.844  25.077  1.00  0.00     0.082 C 
HETATM    4  C3  UNL     1      12.520  -0.879  24.381  1.00  0.00     0.046 C 
HETATM    5  C4  UNL     1      11.672   0.049  25.303  1.00  0.00     0.005 C 
HETATM    6  C5  UNL     1      12.722   0.598  26.153  1.00  0.00     0.000 C 
HETATM    7  C6  UNL     1      12.704   1.618  27.169  1.00  0.00     0.000 C 
HETATM    8  C7  UNL     1      14.102   1.490  27.819  1.00  0.00     0.002 C 
HETATM    9  C8  UNL     1      15.226   1.113  26.927  1.00  0.00     0.021 C 
HETATM   10  C9  UNL     1      15.651  -0.322  26.886  1.00  0.00     0.139 C 
HETATM   11  N2  UNL     1      15.640  -0.947  25.556  1.00  0.00    -0.335 N 
ATOM     12  H2  UNL     1      16.353  -0.713  24.866  1.00  0.00     0.180 HD
ENDROOT
TORSDOF 0
ENDMDL
MODEL 3
REMARK VINA RESULT: -4.585660881      1.911      4.433
REMARK  0 active torsions:
REMARK  status: ('A' for Active; 'I' for Inactive)
ROOT
HETATM    1  C1  UNL     1      15.802  -1.099  23.099  1.00  0.00     0.176 C 
HETATM    2  N1  UNL     1      14.774  -0.132  23.548  1.00  0.00    -0.316 N 
HETATM    3  C2  UNL     1      13.622  -0.777  23.802  1.00  0.00     0.082 C 
HETATM    4  C3  UNL     1      12.257  -0.242  23.829  1.00  0.00     0.046 C 
HETATM    5  C4  UNL     1      11.659  -0.009  25.250  1.00  0.00     0.005 C 
HETATM    6  C5  UNL     1      12.700   0.825  25.836  1.00  0.00     0.000 C 
HETATM    7  C6  UNL     1      12.784   1.522  27.093  1.00  0.00     0.000 C 
HETATM    8  C7  UNL     1      14.262   1.976  27.145  1.00  0.00     0.002 C 
HETATM    9  C8  UNL     1      14.897   2.345  25.856  1.00  0.00     0.021 C 
HETATM   10  C9  UNL     1      15.744   1.324  25.163  1.00  0.00     0.139 C 
HETATM   11  N2  UNL     1      15.349   1.006  23.784  1.00  0.00    -0.335 N 
ATOM     12  H2  UNL     1      15.523   1.667  23.028  1.00  0.00     0.180 HD
ENDROOT
TORSDOF 0
ENDMDL
MODEL 4
REMARK VINA RESULT: -4.572129751      1.060      1.516
REMARK  0 active torsions:
REMARK  status: ('A' for Active; 'I' for Inactive)
ROOT
HETATM    1  C1  UNL     1      15.083   2.242  27.869  1.00  0.00     0.176 C 
HETATM    2  N1  UNL     1      14.615   2.058  26.476  1.00  0.00    -0.316 N 
HETATM    3  C2  UNL     1      15.621   1.596  25.713  1.00  0.00     0.082 C 
HETATM    4  C3  UNL     1      15.786   1.683  24.260  1.00  0.00     0.046 C 
HETATM    5  C4  UNL     1      15.482   0.371  23.473  1.00  0.00     0.005 C 
HETATM    6  C5  UNL     1      14.141   0.079  23.964  1.00  0.00     0.000 C 
HETATM    7  C6  UNL     1      13.176  -0.923  23.594  1.00  0.00     0.000 C 
HETATM    8  C7  UNL     1      12.101  -0.799  24.699  1.00  0.00     0.002 C 
HETATM    9  C8  UNL     1      11.841   0.560  25.235  1.00  0.00     0.021 C 
HETATM   10  C9  UNL     1      12.505   0.957  26.517  1.00  0.00     0.139 C 
HETATM   11  N2  UNL     1      13.324   2.175  26.453  1.00  0.00    -0.335 N 
ATOM     12  H2  UNL     1      12.885   3.093  26.393  1.00  0.00     0.180 HD
ENDROOT
TORSDOF 0
ENDMDL
MODEL 5
REMARK VINA RESULT: -4.571469967      2.261      3.608
REMARK  0 active torsions:
REMARK  status: ('A' for Active; 'I' for Inactive)
ROOT
HETATM    1  C1  UNL     1      16.255   0.425  22.170  1.00  0.00     0.176 C 
HETATM    2  N1  UNL     1      15.683   0.222  23.520  1.00  0.00    -0.316 N 
HETATM    3  C2  UNL     1      15.772   1.361  24.229  1.00  0.00     0.082 C 
HETATM    4  C3  UNL     1      15.767   1.540  25.684  1.00  0.00     0.046 C 
HETATM    5  C4  UNL     1      14.427   2.058  26.289  1.00  0.00     0.005 C 
HETATM    6  C5  UNL     1      13.499   1.072  25.748  1.00  0.00     0.000 C 
HETATM    7  C6  UNL     1      12.096   0.844  25.972  1.00  0.00     0.000 C 
HETATM    8  C7  UNL     1      11.729  -0.188  24.879  1.00  0.00     0.002 C 
HETATM    9  C8  UNL     1      12.768  -1.185  24.521  1.00  0.00     0.021 C 
HETATM   10  C9  UNL     1      13.611  -0.931  23.310  1.00  0.00     0.139 C 
HETATM   11  N2  UNL     1      15.061  -0.916  23.542  1.00  0.00    -0.335 N 
ATOM     12  H2  UNL     1      15.569  -1.783  23.716  1.00  0.00     0.180 HD
ENDROOT
TORSDOF 0
ENDMDL
