MODEL 1
REMARK VINA RESULT: -8.240739016      0.000      0.000
REMARK  4 active torsions:
REMARK  status: ('A' for Active; 'I' for Inactive)
REMARK    1  A    between atoms: N1_1  and  C1_4 
REMARK    2  A    between atoms: C2_7  and  N3_8 
REMARK    3  A    between atoms: N3_8  and  C3_10 
REMARK    4  A    between atoms: C6_13  and  C7_14 
ROOT
HETATM    1  C1  UNL     1      37.919  28.949  58.610  1.00  0.00     0.679 A 
HETATM    2  N2  UNL     1      39.196  29.244  58.347  1.00  0.00    -0.174 N 
ATOM      3  H2  UNL     1      39.414  29.595  57.414  1.00  0.00     0.186 HD
HETATM    4  C2  UNL     1      40.191  29.119  59.194  1.00  0.00     0.152 A 
HETATM    5  C14 UNL     1      39.851  28.636  60.463  1.00  0.00     0.131 A 
HETATM    6  N5  UNL     1      40.572  28.378  61.578  1.00  0.00    -0.340 N 
ATOM      7  H5  UNL     1      41.578  28.506  61.686  1.00  0.00     0.167 HD
HETATM    8  C15 UNL     1      39.728  27.925  62.516  1.00  0.00     0.236 A 
HETATM    9  O1  UNL     1      38.507  27.906  61.988  1.00  0.00    -0.286 OA
HETATM   10  C16 UNL     1      38.547  28.329  60.747  1.00  0.00     0.194 A 
HETATM   11  N6  UNL     1      37.581  28.482  59.829  1.00  0.00    -0.168 N 
ATOM     12  H6  UNL     1      36.612  28.251  60.049  1.00  0.00     0.186 HD
ENDROOT
BRANCH   4  13
HETATM   13  N3  UNL     1      41.540  29.421  58.975  1.00  0.00    -0.340 N 
ATOM     14  H3  UNL     1      42.195  28.653  59.120  1.00  0.00     0.167 HD
BRANCH  13  15
HETATM   15  C3  UNL     1      42.115  30.651  58.579  1.00  0.00     0.033 A 
HETATM   16  C4  UNL     1      41.433  31.786  58.221  1.00  0.00     0.030 A 
HETATM   17  C5  UNL     1      42.028  32.984  57.854  1.00  0.00     0.014 A 
HETATM   18  C6  UNL     1      43.388  33.066  57.840  1.00  0.00    -0.026 A 
HETATM   19  C12 UNL     1      44.130  31.968  58.187  1.00  0.00     0.014 A 
HETATM   20  C13 UNL     1      43.515  30.797  58.547  1.00  0.00     0.030 A 
BRANCH  18  21
HETATM   21  C7  UNL     1      44.077  34.299  57.461  1.00  0.00    -0.023 A 
HETATM   22  C8  UNL     1      45.113  34.771  58.242  1.00  0.00     0.029 A 
HETATM   23  C9  UNL     1      45.753  35.930  57.875  1.00  0.00     0.088 A 
HETATM   24  N4  UNL     1      45.415  36.639  56.777  1.00  0.00    -0.375 N 
HETATM   25  C10 UNL     1      44.401  36.171  56.020  1.00  0.00     0.088 A 
ATOM     26  H4  UNL     1      45.907  37.497  56.530  1.00  0.00     0.164 HD
HETATM   27  C11 UNL     1      43.721  35.013  56.339  1.00  0.00     0.029 A 
ENDBRANCH  18  21
ENDBRANCH  13  15
ENDBRANCH   4  13
BRANCH   1  28
HETATM   28  N1  UNL     1      36.982  29.099  57.717  1.00  0.00    -0.234 N 
ATOM     29  H12 UNL     1      36.605  30.033  57.556  1.00  0.00     0.174 HD
ATOM     30  H11 UNL     1      36.621  28.311  57.178  1.00  0.00     0.174 HD
ENDBRANCH   1  28
TORSDOF 4
ENDMDL
MODEL 2
REMARK VINA RESULT: -7.886285432      3.185      8.295
REMARK  4 active torsions:
REMARK  status: ('A' for Active; 'I' for Inactive)
REMARK    1  A    between atoms: N1_1  and  C1_4 
REMARK    2  A    between atoms: C2_7  and  N3_8 
REMARK    3  A    between atoms: N3_8  and  C3_10 
REMARK    4  A    between atoms: C6_13  and  C7_14 
ROOT
HETATM    1  C1  UNL     1      44.932  35.214  56.775  1.00  0.00     0.679 A 
HETATM    2  N2  UNL     1      44.894  34.087  57.492  1.00  0.00    -0.174 N 
ATOM      3  H2  UNL     1      45.102  34.157  58.488  1.00  0.00     0.186 HD
HETATM    4  C2  UNL     1      44.609  32.897  57.016  1.00  0.00     0.152 A 
HETATM    5  C14 UNL     1      44.328  32.842  55.646  1.00  0.00     0.131 A 
HETATM    6  N5  UNL     1      43.998  31.832  54.809  1.00  0.00    -0.340 N 
ATOM      7  H5  UNL     1      43.891  30.851  55.065  1.00  0.00     0.167 HD
HETATM    8  C15 UNL     1      43.838  32.351  53.583  1.00  0.00     0.236 A 
HETATM    9  O1  UNL     1      44.063  33.660  53.664  1.00  0.00    -0.286 OA
HETATM   10  C16 UNL     1      44.363  33.989  54.898  1.00  0.00     0.194 A 
HETATM   11  N6  UNL     1      44.663  35.173  55.454  1.00  0.00    -0.168 N 
ATOM     12  H6  UNL     1      44.687  36.022  54.890  1.00  0.00     0.186 HD
ENDROOT
BRANCH   4  13
HETATM   13  N3  UNL     1      44.546  31.689  57.721  1.00  0.00    -0.340 N 
ATOM     14  H3  UNL     1      45.432  31.197  57.834  1.00  0.00     0.167 HD
BRANCH  13  15
HETATM   15  C3  UNL     1      43.417  31.062  58.297  1.00  0.00     0.033 A 
HETATM   16  C4  UNL     1      42.137  31.555  58.313  1.00  0.00     0.030 A 
HETATM   17  C5  UNL     1      41.047  30.906  58.871  1.00  0.00     0.014 A 
HETATM   18  C6  UNL     1      41.232  29.688  59.453  1.00  0.00    -0.026 A 
HETATM   19  C12 UNL     1      42.487  29.138  59.471  1.00  0.00     0.014 A 
HETATM   20  C13 UNL     1      43.547  29.802  58.910  1.00  0.00     0.030 A 
BRANCH  18  21
HETATM   21  C7  UNL     1      40.124  28.952  60.061  1.00  0.00    -0.023 A 
HETATM   22  C8  UNL     1      38.997  28.674  59.315  1.00  0.00     0.029 A 
HETATM   23  C9  UNL     1      37.963  27.981  59.897  1.00  0.00     0.088 A 
HETATM   24  N4  UNL     1      37.994  27.556  61.177  1.00  0.00    -0.375 N 
HETATM   25  C10 UNL     1      39.099  27.832  61.899  1.00  0.00     0.088 A 
ATOM     26  H4  UNL     1      37.211  27.045  61.584  1.00  0.00     0.164 HD
HETATM   27  C11 UNL     1      40.169  28.524  61.369  1.00  0.00     0.029 A 
ENDBRANCH  18  21
ENDBRANCH  13  15
ENDBRANCH   4  13
BRANCH   1  28
HETATM   28  N1  UNL     1      45.223  36.363  57.317  1.00  0.00    -0.234 N 
ATOM     29  H12 UNL     1      46.171  36.516  57.660  1.00  0.00     0.174 HD
ATOM     30  H11 UNL     1      44.531  37.107  57.404  1.00  0.00     0.174 HD
ENDBRANCH   1  28
TORSDOF 4
ENDMDL
MODEL 3
REMARK VINA RESULT: -7.883012758      3.162      8.318
REMARK  4 active torsions:
REMARK  status: ('A' for Active; 'I' for Inactive)
REMARK    1  A    between atoms: N1_1  and  C1_4 
REMARK    2  A    between atoms: C2_7  and  N3_8 
REMARK    3  A    between atoms: N3_8  and  C3_10 
REMARK    4  A    between atoms: C6_13  and  C7_14 
ROOT
HETATM    1  C1  UNL     1      44.611  35.080  57.328  1.00  0.00     0.679 A 
HETATM    2  N2  UNL     1      44.620  33.849  57.850  1.00  0.00    -0.174 N 
ATOM      3  H2  UNL     1      44.748  33.768  58.858  1.00  0.00     0.186 HD
HETATM    4  C2  UNL     1      44.475  32.737  57.167  1.00  0.00     0.152 A 
HETATM    5  C14 UNL     1      44.300  32.890  55.787  1.00  0.00     0.131 A 
HETATM    6  N5  UNL     1      44.122  32.012  54.774  1.00  0.00    -0.340 N 
ATOM      7  H5  UNL     1      44.083  30.996  54.860  1.00  0.00     0.167 HD
HETATM    8  C15 UNL     1      44.006  32.714  53.638  1.00  0.00     0.236 A 
HETATM    9  O1  UNL     1      44.109  34.004  53.945  1.00  0.00    -0.286 OA
HETATM   10  C16 UNL     1      44.288  34.145  55.238  1.00  0.00     0.194 A 
HETATM   11  N6  UNL     1      44.442  35.238  55.999  1.00  0.00    -0.168 N 
ATOM     12  H6  UNL     1      44.432  36.169  55.582  1.00  0.00     0.186 HD
ENDROOT
BRANCH   4  13
HETATM   13  N3  UNL     1      44.468  31.428  57.662  1.00  0.00    -0.340 N 
ATOM     14  H3  UNL     1      45.342  30.912  57.560  1.00  0.00     0.167 HD
BRANCH  13  15
HETATM   15  C3  UNL     1      43.409  30.726  58.284  1.00  0.00     0.033 A 
HETATM   16  C4  UNL     1      43.491  29.487  58.866  1.00  0.00     0.030 A 
HETATM   17  C5  UNL     1      42.436  28.832  59.484  1.00  0.00     0.014 A 
HETATM   18  C6  UNL     1      41.219  29.443  59.530  1.00  0.00    -0.026 A 
HETATM   19  C12 UNL     1      41.069  30.683  58.966  1.00  0.00     0.014 A 
HETATM   20  C13 UNL     1      42.130  31.306  58.363  1.00  0.00     0.030 A 
BRANCH  18  21
HETATM   21  C7  UNL     1      40.066  28.806  60.165  1.00  0.00    -0.023 A 
HETATM   22  C8  UNL     1      38.942  28.523  59.414  1.00  0.00     0.029 A 
HETATM   23  C9  UNL     1      37.865  27.923  60.021  1.00  0.00     0.088 A 
HETATM   24  N4  UNL     1      37.850  27.594  61.330  1.00  0.00    -0.375 N 
HETATM   25  C10 UNL     1      38.952  27.874  62.056  1.00  0.00     0.088 A 
ATOM     26  H4  UNL     1      37.036  27.151  61.755  1.00  0.00     0.164 HD
HETATM   27  C11 UNL     1      40.064  28.475  61.501  1.00  0.00     0.029 A 
ENDBRANCH  18  21
ENDBRANCH  13  15
ENDBRANCH   4  13
BRANCH   1  28
HETATM   28  N1  UNL     1      44.760  36.141  58.070  1.00  0.00    -0.234 N 
ATOM     29  H12 UNL     1      44.714  37.058  57.625  1.00  0.00     0.174 HD
ATOM     30  H11 UNL     1      44.918  36.076  59.075  1.00  0.00     0.174 HD
ENDBRANCH   1  28
TORSDOF 4
ENDMDL
MODEL 4
REMARK VINA RESULT: -7.877460664      1.363      2.139
REMARK  4 active torsions:
REMARK  status: ('A' for Active; 'I' for Inactive)
REMARK    1  A    between atoms: N1_1  and  C1_4 
REMARK    2  A    between atoms: C2_7  and  N3_8 
REMARK    3  A    between atoms: N3_8  and  C3_10 
REMARK    4  A    between atoms: C6_13  and  C7_14 
ROOT
HETATM    1  C1  UNL     1      38.480  27.865  59.498  1.00  0.00     0.679 A 
HETATM    2  N2  UNL     1      38.833  28.564  58.415  1.00  0.00    -0.174 N 
ATOM      3  H2  UNL     1      38.267  28.446  57.575  1.00  0.00     0.186 HD
HETATM    4  C2  UNL     1      39.850  29.393  58.348  1.00  0.00     0.152 A 
HETATM    5  C14 UNL     1      40.601  29.529  59.521  1.00  0.00     0.131 A 
HETATM    6  N5  UNL     1      41.689  30.264  59.843  1.00  0.00    -0.340 N 
ATOM      7  H5  UNL     1      42.188  30.901  59.222  1.00  0.00     0.167 HD
HETATM    8  C15 UNL     1      41.994  30.008  61.123  1.00  0.00     0.236 A 
HETATM    9  O1  UNL     1      41.108  29.130  61.583  1.00  0.00    -0.286 OA
HETATM   10  C16 UNL     1      40.251  28.819  60.639  1.00  0.00     0.194 A 
HETATM   11  N6  UNL     1      39.197  27.989  60.634  1.00  0.00    -0.168 N 
ATOM     12  H6  UNL     1      38.943  27.464  61.471  1.00  0.00     0.186 HD
ENDROOT
BRANCH   4  13
HETATM   13  N3  UNL     1      40.258  30.154  57.247  1.00  0.00    -0.340 N 
ATOM     14  H3  UNL     1      39.794  29.939  56.364  1.00  0.00     0.167 HD
BRANCH  13  15
HETATM   15  C3  UNL     1      41.228  31.182  57.196  1.00  0.00     0.033 A 
HETATM   16  C4  UNL     1      42.508  31.065  56.718  1.00  0.00     0.030 A 
HETATM   17  C5  UNL     1      43.431  32.098  56.666  1.00  0.00     0.014 A 
HETATM   18  C6  UNL     1      43.065  33.331  57.117  1.00  0.00    -0.026 A 
HETATM   19  C12 UNL     1      41.800  33.517  57.608  1.00  0.00     0.014 A 
HETATM   20  C13 UNL     1      40.908  32.477  57.647  1.00  0.00     0.030 A 
BRANCH  18  21
HETATM   21  C7  UNL     1      43.992  34.462  57.091  1.00  0.00    -0.023 A 
HETATM   22  C8  UNL     1      44.090  35.239  55.955  1.00  0.00     0.029 A 
HETATM   23  C9  UNL     1      44.963  36.300  55.943  1.00  0.00     0.088 A 
HETATM   24  N4  UNL     1      45.740  36.623  56.999  1.00  0.00    -0.375 N 
HETATM   25  C10 UNL     1      45.637  35.857  58.105  1.00  0.00     0.088 A 
ATOM     26  H4  UNL     1      46.380  37.415  56.962  1.00  0.00     0.164 HD
HETATM   27  C11 UNL     1      44.778  34.780  58.176  1.00  0.00     0.029 A 
ENDBRANCH  18  21
ENDBRANCH  13  15
ENDBRANCH   4  13
BRANCH   1  28
HETATM   28  N1  UNL     1      37.455  27.060  59.491  1.00  0.00    -0.234 N 
ATOM     29  H12 UNL     1      36.679  27.261  58.861  1.00  0.00     0.174 HD
ATOM     30  H11 UNL     1      37.412  26.240  60.097  1.00  0.00     0.174 HD
ENDBRANCH   1  28
TORSDOF 4
ENDMDL
MODEL 5
REMARK VINA RESULT: -7.863897800      3.182      4.364
REMARK  4 active torsions:
REMARK  status: ('A' for Active; 'I' for Inactive)
REMARK    1  A    between atoms: N1_1  and  C1_4 
REMARK    2  A    between atoms: C2_7  and  N3_8 
REMARK    3  A    between atoms: N3_8  and  C3_10 
REMARK    4  A    between atoms: C6_13  and  C7_14 
ROOT
HETATM    1  C1  UNL     1      38.102  28.953  58.755  1.00  0.00     0.679 A 
HETATM    2  N2  UNL     1      39.309  29.524  58.718  1.00  0.00    -0.174 N 
ATOM      3  H2  UNL     1      39.538  30.088  57.900  1.00  0.00     0.186 HD
HETATM    4  C2  UNL     1      40.226  29.418  59.654  1.00  0.00     0.152 A 
HETATM    5  C14 UNL     1      39.874  28.637  60.761  1.00  0.00     0.131 A 
HETATM    6  N5  UNL     1      40.524  28.298  61.897  1.00  0.00    -0.340 N 
ATOM      7  H5  UNL     1      41.468  28.584  62.157  1.00  0.00     0.167 HD
HETATM    8  C15 UNL     1      39.707  27.520  62.621  1.00  0.00     0.236 A 
HETATM    9  O1  UNL     1      38.571  27.383  61.943  1.00  0.00    -0.286 OA
HETATM   10  C16 UNL     1      38.640  28.046  60.812  1.00  0.00     0.194 A 
HETATM   11  N6  UNL     1      37.754  28.199  59.817  1.00  0.00    -0.168 N 
ATOM     12  H6  UNL     1      36.836  27.755  59.863  1.00  0.00     0.186 HD
ENDROOT
BRANCH   4  13
HETATM   13  N3  UNL     1      41.498  30.000  59.671  1.00  0.00    -0.340 N 
ATOM     14  H3  UNL     1      41.645  30.723  60.374  1.00  0.00     0.167 HD
BRANCH  13  15
HETATM   15  C3  UNL     1      42.608  29.717  58.840  1.00  0.00     0.033 A 
HETATM   16  C4  UNL     1      42.998  30.434  57.738  1.00  0.00     0.030 A 
HETATM   17  C5  UNL     1      44.103  30.140  56.953  1.00  0.00     0.014 A 
HETATM   18  C6  UNL     1      44.875  29.066  57.280  1.00  0.00    -0.026 A 
HETATM   19  C12 UNL     1      44.541  28.307  58.370  1.00  0.00     0.014 A 
HETATM   20  C13 UNL     1      43.443  28.621  59.128  1.00  0.00     0.030 A 
BRANCH  18  21
HETATM   21  C7  UNL     1      46.052  28.701  56.493  1.00  0.00    -0.023 A 
HETATM   22  C8  UNL     1      46.022  28.829  55.119  1.00  0.00     0.029 A 
HETATM   23  C9  UNL     1      47.135  28.484  54.390  1.00  0.00     0.088 A 
HETATM   24  N4  UNL     1      48.268  28.020  54.957  1.00  0.00    -0.375 N 
HETATM   25  C10 UNL     1      48.289  27.899  56.300  1.00  0.00     0.088 A 
ATOM     26  H4  UNL     1      49.079  27.771  54.391  1.00  0.00     0.164 HD
HETATM   27  C11 UNL     1      47.203  28.229  57.084  1.00  0.00     0.029 A 
ENDBRANCH  18  21
ENDBRANCH  13  15
ENDBRANCH   4  13
BRANCH   1  28
HETATM   28  N1  UNL     1      37.242  29.104  57.787  1.00  0.00    -0.234 N 
ATOM     29  H12 UNL     1      37.591  29.207  56.834  1.00  0.00     0.174 HD
ATOM     30  H11 UNL     1      36.236  29.120  57.959  1.00  0.00     0.174 HD
ENDBRANCH   1  28
TORSDOF 4
ENDMDL
