MODEL 1
REMARK VINA RESULT: -7.026415660      0.000      0.000
REMARK  3 active torsions:
REMARK  status: ('A' for Active; 'I' for Inactive)
REMARK    1  A    between atoms: C2_2  and  C3_3 
REMARK    2  A    between atoms: C7_7  and  C8_8 
REMARK    3  A    between atoms: C8_8  and  C9_9 
ROOT
HETATM    1  C9  UNL     1      41.658  30.842  58.357  1.00  0.00     0.045 A 
HETATM    2  C10 UNL     1      41.483  30.073  59.490  1.00  0.00     0.159 A 
HETATM    3  N1  UNL     1      40.272  29.494  59.454  1.00  0.00     0.013 N 
HETATM    4  C11 UNL     1      39.662  29.877  58.315  1.00  0.00     0.700 A 
HETATM    5  N2  UNL     1      40.505  30.687  57.664  1.00  0.00    -0.193 N 
ATOM      6  H2  UNL     1      40.306  31.129  56.766  1.00  0.00     0.184 HD
HETATM    7  N3  UNL     1      38.353  29.427  57.982  1.00  0.00    -0.208 N 
ATOM      8  H3  UNL     1      38.019  29.526  57.023  1.00  0.00     0.179 HD
HETATM    9  C12 UNL     1      37.485  28.834  58.978  1.00  0.00     0.280 C 
HETATM   10  N4  UNL     1      38.235  28.149  60.009  1.00  0.00    -0.209 N 
ATOM     11  H4  UNL     1      37.837  27.352  60.506  1.00  0.00     0.179 HD
HETATM   12  C13 UNL     1      39.542  28.616  60.310  1.00  0.00     0.694 C 
HETATM   13  N5  UNL     1      40.088  28.218  61.420  1.00  0.00    -0.234 N 
ATOM     14  H51 UNL     1      39.567  27.591  62.032  1.00  0.00     0.174 HD
ATOM     15  H52 UNL     1      41.026  28.554  61.635  1.00  0.00     0.174 HD
ENDROOT
BRANCH   1  16
HETATM   16  C8  UNL     1      42.860  31.646  58.015  1.00  0.00     0.079 C 
BRANCH  16  17
HETATM   17  C7  UNL     1      42.590  32.300  56.664  1.00  0.00     0.092 C 
HETATM   18  C5  UNL     1      43.371  33.533  56.638  1.00  0.00    -0.071 C 
HETATM   19  C4  UNL     1      44.156  34.035  55.735  1.00  0.00    -0.007 C 
HETATM   20  C6  UNL     1      43.221  34.364  57.917  1.00  0.00     0.044 C 
HETATM   21  C3  UNL     1      44.557  33.567  54.411  1.00  0.00     0.081 C 
HETATM   22  S2  UNL     1      43.802  32.095  53.775  1.00  0.00    -0.088 SA
HETATM   23  S1  UNL     1      42.904  31.087  55.411  1.00  0.00    -0.087 SA
BRANCH  21  24
HETATM   24  C2  UNL     1      46.058  33.433  54.258  1.00  0.00     0.015 C 
HETATM   25  C1  UNL     1      46.569  32.160  54.903  1.00  0.00     0.006 C 
ENDBRANCH  21  24
ENDBRANCH  16  17
ENDBRANCH   1  16
TORSDOF 3
ENDMDL
MODEL 2
REMARK VINA RESULT: -6.917176486      3.230      7.487
REMARK  3 active torsions:
REMARK  status: ('A' for Active; 'I' for Inactive)
REMARK    1  A    between atoms: C2_2  and  C3_3 
REMARK    2  A    between atoms: C7_7  and  C8_8 
REMARK    3  A    between atoms: C8_8  and  C9_9 
ROOT
HETATM    1  C9  UNL     1      41.589  31.642  57.887  1.00  0.00     0.045 A 
HETATM    2  C10 UNL     1      42.142  32.873  57.591  1.00  0.00     0.159 A 
HETATM    3  N1  UNL     1      42.823  32.789  56.436  1.00  0.00     0.013 N 
HETATM    4  C11 UNL     1      42.719  31.525  55.983  1.00  0.00     0.700 A 
HETATM    5  N2  UNL     1      41.975  30.845  56.863  1.00  0.00    -0.193 N 
ATOM      6  H2  UNL     1      41.731  29.859  56.774  1.00  0.00     0.184 HD
HETATM    7  N3  UNL     1      43.338  31.115  54.768  1.00  0.00    -0.208 N 
ATOM      8  H3  UNL     1      43.046  30.243  54.327  1.00  0.00     0.179 HD
HETATM    9  C12 UNL     1      44.376  31.911  54.146  1.00  0.00     0.280 C 
HETATM   10  N4  UNL     1      44.214  33.322  54.425  1.00  0.00    -0.209 N 
ATOM     11  H4  UNL     1      44.544  34.028  53.766  1.00  0.00     0.179 HD
HETATM   12  C13 UNL     1      43.583  33.697  55.641  1.00  0.00     0.694 C 
HETATM   13  N5  UNL     1      43.712  34.928  56.036  1.00  0.00    -0.234 N 
ATOM     14  H51 UNL     1      44.256  35.577  55.468  1.00  0.00     0.174 HD
ATOM     15  H52 UNL     1      43.260  35.197  56.909  1.00  0.00     0.174 HD
ENDROOT
BRANCH   1  16
HETATM   16  C8  UNL     1      40.763  31.312  59.078  1.00  0.00     0.079 C 
BRANCH  16  17
HETATM   17  C7  UNL     1      40.632  29.793  59.121  1.00  0.00     0.092 C 
HETATM   18  C5  UNL     1      40.994  29.387  60.476  1.00  0.00    -0.071 C 
HETATM   19  C4  UNL     1      40.419  28.581  61.315  1.00  0.00    -0.007 C 
HETATM   20  C6  UNL     1      42.286  30.045  60.974  1.00  0.00     0.044 C 
HETATM   21  C3  UNL     1      39.203  27.777  61.229  1.00  0.00     0.081 C 
HETATM   22  S2  UNL     1      38.326  27.741  59.690  1.00  0.00    -0.088 SA
HETATM   23  S1  UNL     1      39.015  29.377  58.529  1.00  0.00    -0.087 SA
BRANCH  21  24
HETATM   24  C2  UNL     1      38.210  28.083  62.332  1.00  0.00     0.015 C 
HETATM   25  C1  UNL     1      38.715  27.610  63.680  1.00  0.00     0.006 C 
ENDBRANCH  21  24
ENDBRANCH  16  17
ENDBRANCH   1  16
TORSDOF 3
ENDMDL
MODEL 3
REMARK VINA RESULT: -6.840999788      1.870      2.329
REMARK  3 active torsions:
REMARK  status: ('A' for Active; 'I' for Inactive)
REMARK    1  A    between atoms: C2_2  and  C3_3 
REMARK    2  A    between atoms: C7_7  and  C8_8 
REMARK    3  A    between atoms: C8_8  and  C9_9 
ROOT
HETATM    1  C9  UNL     1      41.272  30.540  57.409  1.00  0.00     0.045 A 
HETATM    2  C10 UNL     1      41.488  30.129  58.710  1.00  0.00     0.159 A 
HETATM    3  N1  UNL     1      40.389  29.509  59.170  1.00  0.00     0.013 N 
HETATM    4  C11 UNL     1      39.468  29.512  58.186  1.00  0.00     0.700 A 
HETATM    5  N2  UNL     1      40.010  30.135  57.134  1.00  0.00    -0.193 N 
ATOM      6  H2  UNL     1      39.536  30.284  56.242  1.00  0.00     0.184 HD
HETATM    7  N3  UNL     1      38.183  28.924  58.366  1.00  0.00    -0.208 N 
ATOM      8  H3  UNL     1      37.608  28.721  57.548  1.00  0.00     0.179 HD
HETATM    9  C12 UNL     1      37.678  28.608  59.685  1.00  0.00     0.280 C 
HETATM   10  N4  UNL     1      38.744  28.291  60.611  1.00  0.00    -0.209 N 
ATOM     11  H4  UNL     1      38.588  27.657  61.395  1.00  0.00     0.179 HD
HETATM   12  C13 UNL     1      40.015  28.887  60.398  1.00  0.00     0.694 C 
HETATM   13  N5  UNL     1      40.870  28.857  61.377  1.00  0.00    -0.234 N 
ATOM     14  H51 UNL     1      40.604  28.413  62.255  1.00  0.00     0.174 HD
ATOM     15  H52 UNL     1      41.783  29.285  61.224  1.00  0.00     0.174 HD
ENDROOT
BRANCH   1  16
HETATM   16  C8  UNL     1      42.238  31.265  56.543  1.00  0.00     0.079 C 
BRANCH  16  17
HETATM   17  C7  UNL     1      43.199  32.003  57.469  1.00  0.00     0.092 C 
HETATM   18  C5  UNL     1      44.514  31.935  56.838  1.00  0.00    -0.071 C 
HETATM   19  C4  UNL     1      45.413  32.846  56.621  1.00  0.00    -0.007 C 
HETATM   20  C6  UNL     1      44.873  30.527  56.350  1.00  0.00     0.044 C 
HETATM   21  C3  UNL     1      45.456  34.274  56.923  1.00  0.00     0.081 C 
HETATM   22  S2  UNL     1      44.124  34.978  57.855  1.00  0.00    -0.088 SA
HETATM   23  S1  UNL     1      42.510  33.603  57.791  1.00  0.00    -0.087 SA
BRANCH  21  24
HETATM   24  C2  UNL     1      45.680  35.134  55.696  1.00  0.00     0.015 C 
HETATM   25  C1  UNL     1      44.742  36.324  55.675  1.00  0.00     0.006 C 
ENDBRANCH  21  24
ENDBRANCH  16  17
ENDBRANCH   1  16
TORSDOF 3
ENDMDL
MODEL 4
REMARK VINA RESULT: -6.810823990      1.347      2.217
REMARK  3 active torsions:
REMARK  status: ('A' for Active; 'I' for Inactive)
REMARK    1  A    between atoms: C2_2  and  C3_3 
REMARK    2  A    between atoms: C7_7  and  C8_8 
REMARK    3  A    between atoms: C8_8  and  C9_9 
ROOT
HETATM    1  C9  UNL     1      41.573  30.387  59.256  1.00  0.00     0.045 A 
HETATM    2  C10 UNL     1      40.378  30.035  58.660  1.00  0.00     0.159 A 
HETATM    3  N1  UNL     1      39.708  29.196  59.467  1.00  0.00     0.013 N 
HETATM    4  C11 UNL     1      40.451  29.003  60.574  1.00  0.00     0.700 A 
HETATM    5  N2  UNL     1      41.569  29.724  60.435  1.00  0.00    -0.193 N 
ATOM      6  H2  UNL     1      42.319  29.768  61.127  1.00  0.00     0.184 HD
HETATM    7  N3  UNL     1      40.008  28.156  61.630  1.00  0.00    -0.208 N 
ATOM      8  H3  UNL     1      40.458  28.219  62.544  1.00  0.00     0.179 HD
HETATM    9  C12 UNL     1      38.933  27.206  61.433  1.00  0.00     0.280 C 
HETATM   10  N4  UNL     1      37.986  27.661  60.438  1.00  0.00    -0.209 N 
ATOM     11  H4  UNL     1      37.006  27.379  60.478  1.00  0.00     0.179 HD
HETATM   12  C13 UNL     1      38.457  28.513  59.404  1.00  0.00     0.694 C 
HETATM   13  N5  UNL     1      37.704  28.668  58.356  1.00  0.00    -0.234 N 
ATOM     14  H51 UNL     1      36.811  28.179  58.311  1.00  0.00     0.174 HD
ATOM     15  H52 UNL     1      38.043  29.279  57.614  1.00  0.00     0.174 HD
ENDROOT
BRANCH   1  16
HETATM   16  C8  UNL     1      42.605  31.296  58.690  1.00  0.00     0.079 C 
BRANCH  16  17
HETATM   17  C7  UNL     1      42.695  30.993  57.198  1.00  0.00     0.092 C 
HETATM   18  C5  UNL     1      42.645  32.281  56.512  1.00  0.00    -0.071 C 
HETATM   19  C4  UNL     1      43.374  32.777  55.560  1.00  0.00    -0.007 C 
HETATM   20  C6  UNL     1      41.525  33.192  57.027  1.00  0.00     0.044 C 
HETATM   21  C3  UNL     1      44.512  32.246  54.815  1.00  0.00     0.081 C 
HETATM   22  S2  UNL     1      45.007  30.571  55.117  1.00  0.00    -0.088 SA
HETATM   23  S1  UNL     1      44.118  29.968  56.946  1.00  0.00    -0.087 SA
BRANCH  21  24
HETATM   24  C2  UNL     1      45.743  33.125  54.903  1.00  0.00     0.015 C 
HETATM   25  C1  UNL     1      45.373  34.572  55.157  1.00  0.00     0.006 C 
ENDBRANCH  21  24
ENDBRANCH  16  17
ENDBRANCH   1  16
TORSDOF 3
ENDMDL
MODEL 5
REMARK VINA RESULT: -6.758466545      1.551      2.517
REMARK  3 active torsions:
REMARK  status: ('A' for Active; 'I' for Inactive)
REMARK    1  A    between atoms: C2_2  and  C3_3 
REMARK    2  A    between atoms: C7_7  and  C8_8 
REMARK    3  A    between atoms: C8_8  and  C9_9 
ROOT
HETATM    1  C9  UNL     1      41.626  29.663  58.584  1.00  0.00     0.045 A 
HETATM    2  C10 UNL     1      40.312  29.479  58.199  1.00  0.00     0.159 A 
HETATM    3  N1  UNL     1      39.614  28.972  59.229  1.00  0.00     0.013 N 
HETATM    4  C11 UNL     1      40.456  28.827  60.271  1.00  0.00     0.700 A 
HETATM    5  N2  UNL     1      41.662  29.246  59.870  1.00  0.00    -0.193 N 
ATOM      6  H2  UNL     1      42.497  29.250  60.457  1.00  0.00     0.184 HD
HETATM    7  N3  UNL     1      40.013  28.307  61.520  1.00  0.00    -0.208 N 
ATOM      8  H3  UNL     1      40.593  28.437  62.349  1.00  0.00     0.179 HD
HETATM    9  C12 UNL     1      38.756  27.598  61.638  1.00  0.00     0.280 C 
HETATM   10  N4  UNL     1      37.783  28.059  60.670  1.00  0.00    -0.209 N 
ATOM     11  H4  UNL     1      36.783  28.012  60.868  1.00  0.00     0.179 HD
HETATM   12  C13 UNL     1      38.258  28.581  59.438  1.00  0.00     0.694 C 
HETATM   13  N5  UNL     1      37.407  28.703  58.463  1.00  0.00    -0.234 N 
ATOM     14  H51 UNL     1      36.438  28.423  58.612  1.00  0.00     0.174 HD
ATOM     15  H52 UNL     1      37.749  29.077  57.578  1.00  0.00     0.174 HD
ENDROOT
BRANCH   1  16
HETATM   16  C8  UNL     1      42.723  30.203  57.738  1.00  0.00     0.079 C 
BRANCH  16  17
HETATM   17  C7  UNL     1      42.831  31.692  58.046  1.00  0.00     0.092 C 
HETATM   18  C5  UNL     1      44.248  31.964  58.272  1.00  0.00    -0.071 C 
HETATM   19  C4  UNL     1      45.028  32.898  57.819  1.00  0.00    -0.007 C 
HETATM   20  C6  UNL     1      44.910  30.952  59.213  1.00  0.00     0.044 C 
HETATM   21  C3  UNL     1      44.792  34.025  56.921  1.00  0.00     0.081 C 
HETATM   22  S2  UNL     1      43.136  34.328  56.368  1.00  0.00    -0.088 SA
HETATM   23  S1  UNL     1      42.011  32.569  56.744  1.00  0.00    -0.087 SA
BRANCH  21  24
HETATM   24  C2  UNL     1      45.700  34.017  55.708  1.00  0.00     0.015 C 
HETATM   25  C1  UNL     1      45.283  32.955  54.710  1.00  0.00     0.006 C 
ENDBRANCH  21  24
ENDBRANCH  16  17
ENDBRANCH   1  16
TORSDOF 3
ENDMDL
