MODEL 1
REMARK VINA RESULT: -8.721708796      0.000      0.000
REMARK  4 active torsions:
REMARK  status: ('A' for Active; 'I' for Inactive)
REMARK    1  A    between atoms: C8_9  and  N1_10 
REMARK    2  A    between atoms: N1_10  and  C9_12 
REMARK    3  A    between atoms: C13_16  and  N2_17 
REMARK    4  A    between atoms: N2_17  and  C14_19 
ROOT
HETATM    1  C9  UNL     1      39.670  29.459  58.458  1.00  0.00     0.034 A 
HETATM    2  C10 UNL     1      38.328  29.352  58.245  1.00  0.00     0.029 A 
HETATM    3  C11 UNL     1      37.486  28.890  59.234  1.00  0.00     0.004 A 
HETATM    4  C12 UNL     1      38.048  28.531  60.475  1.00  0.00     0.030 A 
HETATM    5  C13 UNL     1      39.372  28.620  60.735  1.00  0.00     0.051 A 
HETATM    6  C15 UNL     1      40.174  29.101  59.674  1.00  0.00     0.059 A 
ENDROOT
BRANCH   1   7
HETATM    7  N1  UNL     1      40.546  29.942  57.418  1.00  0.00    -0.354 N 
ATOM      8  H1  UNL     1      40.582  29.411  56.547  1.00  0.00     0.166 HD
BRANCH   7   9
HETATM    9  C8  UNL     1      41.313  31.028  57.510  1.00  0.00     0.066 A 
HETATM   10  C7  UNL     1      42.656  30.588  57.802  1.00  0.00     0.099 A 
HETATM   11  C6  UNL     1      43.527  29.604  58.029  1.00  0.00     0.017 A 
HETATM   12  O1  UNL     1      43.288  31.510  57.880  1.00  0.00    -0.309 OA
HETATM   13  C5  UNL     1      44.889  30.088  58.276  1.00  0.00     0.060 A 
HETATM   14  C4  UNL     1      45.163  31.527  58.254  1.00  0.00     0.014 A 
HETATM   15  C3  UNL     1      44.097  32.288  58.000  1.00  0.00     0.072 A 
HETATM   16  C2  UNL     1      43.454  33.560  57.803  1.00  0.00     0.037 A 
HETATM   17  C1  UNL     1      42.071  33.552  57.528  1.00  0.00     0.005 A 
HETATM   18  C16 UNL     1      41.097  32.406  57.393  1.00  0.00     0.032 A 
ENDBRANCH   7   9
ENDBRANCH   1   7
BRANCH   5  19
HETATM   19  N2  UNL     1      39.960  28.291  61.946  1.00  0.00    -0.189 N 
ATOM     20  H2  UNL     1      40.687  28.922  62.284  1.00  0.00     0.184 HD
BRANCH  19  21
HETATM   21  C14 UNL     1      39.665  27.188  62.755  1.00  0.00     0.714 A 
HETATM   22  N3  UNL     1      39.453  25.923  62.434  1.00  0.00    -0.115 N 
HETATM   23  N4  UNL     1      39.214  25.249  63.522  1.00  0.00    -0.213 N 
ATOM     24  H3  UNL     1      39.472  25.539  61.490  1.00  0.00     0.207 HD
HETATM   25  N5  UNL     1      39.267  26.056  64.559  1.00  0.00    -0.213 N 
ATOM     26  H4  UNL     1      39.016  24.249  63.564  1.00  0.00     0.210 HD
HETATM   27  N6  UNL     1      39.544  27.259  64.116  1.00  0.00    -0.115 N 
ATOM     28  H5  UNL     1      39.120  25.794  65.533  1.00  0.00     0.210 HD
ATOM     29  H6  UNL     1      39.649  28.099  64.685  1.00  0.00     0.207 HD
ENDBRANCH  19  21
ENDBRANCH   5  19
TORSDOF 4
ENDMDL
MODEL 2
REMARK VINA RESULT: -8.716647200      0.348      1.938
REMARK  4 active torsions:
REMARK  status: ('A' for Active; 'I' for Inactive)
REMARK    1  A    between atoms: C8_9  and  N1_10 
REMARK    2  A    between atoms: N1_10  and  C9_12 
REMARK    3  A    between atoms: C13_16  and  N2_17 
REMARK    4  A    between atoms: N2_17  and  C14_19 
ROOT
HETATM    1  C9  UNL     1      39.704  29.366  58.488  1.00  0.00     0.034 A 
HETATM    2  C10 UNL     1      38.362  29.315  58.251  1.00  0.00     0.029 A 
HETATM    3  C11 UNL     1      37.481  28.933  59.240  1.00  0.00     0.004 A 
HETATM    4  C12 UNL     1      38.000  28.597  60.505  1.00  0.00     0.030 A 
HETATM    5  C13 UNL     1      39.321  28.632  60.790  1.00  0.00     0.051 A 
HETATM    6  C15 UNL     1      40.167  29.032  59.728  1.00  0.00     0.059 A 
ENDROOT
BRANCH   1   7
HETATM    7  N1  UNL     1      40.623  29.764  57.450  1.00  0.00    -0.354 N 
ATOM      8  H1  UNL     1      40.280  29.757  56.489  1.00  0.00     0.166 HD
BRANCH   7   9
HETATM    9  C8  UNL     1      41.885  30.141  57.652  1.00  0.00     0.066 A 
HETATM   10  C7  UNL     1      41.919  31.584  57.615  1.00  0.00     0.099 A 
HETATM   11  C6  UNL     1      41.291  32.752  57.475  1.00  0.00     0.017 A 
HETATM   12  O1  UNL     1      42.984  31.887  57.782  1.00  0.00    -0.309 OA
HETATM   13  C5  UNL     1      42.189  33.904  57.589  1.00  0.00     0.060 A 
HETATM   14  C4  UNL     1      43.618  33.690  57.834  1.00  0.00     0.014 A 
HETATM   15  C3  UNL     1      43.974  32.409  57.932  1.00  0.00     0.072 A 
HETATM   16  C2  UNL     1      44.945  31.364  58.126  1.00  0.00     0.037 A 
HETATM   17  C1  UNL     1      44.482  30.033  58.088  1.00  0.00     0.005 A 
HETATM   18  C16 UNL     1      43.095  29.474  57.875  1.00  0.00     0.032 A 
ENDBRANCH   7   9
ENDBRANCH   1   7
BRANCH   5  19
HETATM   19  N2  UNL     1      39.869  28.323  62.024  1.00  0.00    -0.189 N 
ATOM     20  H2  UNL     1      40.549  28.985  62.398  1.00  0.00     0.184 HD
BRANCH  19  21
HETATM   21  C14 UNL     1      39.591  27.202  62.814  1.00  0.00     0.714 A 
HETATM   22  N3  UNL     1      39.427  25.935  62.473  1.00  0.00    -0.115 N 
HETATM   23  N4  UNL     1      39.185  25.240  63.547  1.00  0.00    -0.213 N 
ATOM     24  H3  UNL     1      39.480  25.563  61.525  1.00  0.00     0.207 HD
HETATM   25  N5  UNL     1      39.189  26.035  64.595  1.00  0.00    -0.213 N 
ATOM     26  H4  UNL     1      39.019  24.234  63.573  1.00  0.00     0.210 HD
HETATM   27  N6  UNL     1      39.437  27.252  64.172  1.00  0.00    -0.115 N 
ATOM     28  H5  UNL     1      39.028  25.756  65.562  1.00  0.00     0.210 HD
ATOM     29  H6  UNL     1      39.502  28.088  64.753  1.00  0.00     0.207 HD
ENDBRANCH  19  21
ENDBRANCH   5  19
TORSDOF 4
ENDMDL
MODEL 3
REMARK VINA RESULT: -8.681961540      4.002      8.044
REMARK  4 active torsions:
REMARK  status: ('A' for Active; 'I' for Inactive)
REMARK    1  A    between atoms: C8_9  and  N1_10 
REMARK    2  A    between atoms: N1_10  and  C9_12 
REMARK    3  A    between atoms: C13_16  and  N2_17 
REMARK    4  A    between atoms: N2_17  and  C14_19 
ROOT
HETATM    1  C9  UNL     1      41.696  31.836  56.873  1.00  0.00     0.034 A 
HETATM    2  C10 UNL     1      42.446  30.996  56.105  1.00  0.00     0.029 A 
HETATM    3  C11 UNL     1      43.505  31.471  55.361  1.00  0.00     0.004 A 
HETATM    4  C12 UNL     1      43.794  32.848  55.415  1.00  0.00     0.030 A 
HETATM    5  C13 UNL     1      43.081  33.721  56.161  1.00  0.00     0.051 A 
HETATM    6  C15 UNL     1      42.009  33.163  56.898  1.00  0.00     0.059 A 
ENDROOT
BRANCH   1   7
HETATM    7  N1  UNL     1      40.587  31.334  57.649  1.00  0.00    -0.354 N 
ATOM      8  H1  UNL     1      39.646  31.543  57.317  1.00  0.00     0.166 HD
BRANCH   7   9
HETATM    9  C8  UNL     1      40.701  30.618  58.767  1.00  0.00     0.066 A 
HETATM   10  C7  UNL     1      39.532  29.778  58.866  1.00  0.00     0.099 A 
HETATM   11  C6  UNL     1      38.366  29.357  58.375  1.00  0.00     0.017 A 
HETATM   12  O1  UNL     1      39.638  29.185  59.810  1.00  0.00    -0.309 OA
HETATM   13  C5  UNL     1      37.721  28.343  59.215  1.00  0.00     0.060 A 
HETATM   14  C4  UNL     1      38.373  27.902  60.450  1.00  0.00     0.014 A 
HETATM   15  C3  UNL     1      39.541  28.495  60.699  1.00  0.00     0.072 A 
HETATM   16  C2  UNL     1      40.721  28.710  61.496  1.00  0.00     0.037 A 
HETATM   17  C1  UNL     1      41.656  29.656  61.027  1.00  0.00     0.005 A 
HETATM   18  C16 UNL     1      41.652  30.522  59.791  1.00  0.00     0.032 A 
ENDBRANCH   7   9
ENDBRANCH   1   7
BRANCH   5  19
HETATM   19  N2  UNL     1      43.344  35.078  56.252  1.00  0.00    -0.189 N 
ATOM     20  H2  UNL     1      42.720  35.697  55.733  1.00  0.00     0.184 HD
BRANCH  19  21
HETATM   21  C14 UNL     1      44.370  35.692  56.978  1.00  0.00     0.714 A 
HETATM   22  N3  UNL     1      45.386  36.432  56.565  1.00  0.00    -0.115 N 
HETATM   23  N4  UNL     1      46.089  36.792  57.599  1.00  0.00    -0.213 N 
ATOM     24  H3  UNL     1      45.585  36.680  55.596  1.00  0.00     0.207 HD
HETATM   25  N5  UNL     1      45.549  36.298  58.692  1.00  0.00    -0.213 N 
ATOM     26  H4  UNL     1      46.931  37.368  57.568  1.00  0.00     0.210 HD
HETATM   27  N6  UNL     1      44.486  35.615  58.338  1.00  0.00    -0.115 N 
ATOM     28  H5  UNL     1      45.894  36.424  59.643  1.00  0.00     0.210 HD
ATOM     29  H6  UNL     1      43.858  35.114  58.967  1.00  0.00     0.207 HD
ENDBRANCH  19  21
ENDBRANCH   5  19
TORSDOF 4
ENDMDL
MODEL 4
REMARK VINA RESULT: -8.479283605      1.891      3.110
REMARK  4 active torsions:
REMARK  status: ('A' for Active; 'I' for Inactive)
REMARK    1  A    between atoms: C8_9  and  N1_10 
REMARK    2  A    between atoms: N1_10  and  C9_12 
REMARK    3  A    between atoms: C13_16  and  N2_17 
REMARK    4  A    between atoms: N2_17  and  C14_19 
ROOT
HETATM    1  C9  UNL     1      41.596  29.715  59.157  1.00  0.00     0.034 A 
HETATM    2  C10 UNL     1      40.746  29.559  58.103  1.00  0.00     0.029 A 
HETATM    3  C11 UNL     1      39.465  29.085  58.289  1.00  0.00     0.004 A 
HETATM    4  C12 UNL     1      39.054  28.768  59.598  1.00  0.00     0.030 A 
HETATM    5  C13 UNL     1      39.859  28.905  60.675  1.00  0.00     0.051 A 
HETATM    6  C15 UNL     1      41.160  29.396  60.409  1.00  0.00     0.059 A 
ENDROOT
BRANCH   1   7
HETATM    7  N1  UNL     1      42.937  30.210  58.956  1.00  0.00    -0.354 N 
ATOM      8  H1  UNL     1      43.137  31.165  59.252  1.00  0.00     0.166 HD
BRANCH   7   9
HETATM    9  C8  UNL     1      43.934  29.512  58.414  1.00  0.00     0.066 A 
HETATM   10  C7  UNL     1      44.098  29.971  57.055  1.00  0.00     0.099 A 
HETATM   11  C6  UNL     1      43.732  30.771  56.054  1.00  0.00     0.017 A 
HETATM   12  O1  UNL     1      44.935  29.374  56.611  1.00  0.00    -0.309 OA
HETATM   13  C5  UNL     1      44.523  30.567  54.837  1.00  0.00     0.060 A 
HETATM   14  C4  UNL     1      45.589  29.561  54.824  1.00  0.00     0.014 A 
HETATM   15  C3  UNL     1      45.737  28.900  55.973  1.00  0.00     0.072 A 
HETATM   16  C2  UNL     1      46.376  27.917  56.808  1.00  0.00     0.037 A 
HETATM   17  C1  UNL     1      45.897  27.776  58.126  1.00  0.00     0.005 A 
HETATM   18  C16 UNL     1      44.791  28.497  58.859  1.00  0.00     0.032 A 
ENDBRANCH   7   9
ENDBRANCH   1   7
BRANCH   5  19
HETATM   19  N2  UNL     1      39.487  28.618  61.978  1.00  0.00    -0.189 N 
ATOM     20  H2  UNL     1      39.194  29.409  62.552  1.00  0.00     0.184 HD
BRANCH  19  21
HETATM   21  C14 UNL     1      39.471  27.361  62.593  1.00  0.00     0.714 A 
HETATM   22  N3  UNL     1      39.559  26.150  62.069  1.00  0.00    -0.115 N 
HETATM   23  N4  UNL     1      39.500  25.273  63.028  1.00  0.00    -0.213 N 
ATOM     24  H3  UNL     1      39.657  25.939  61.076  1.00  0.00     0.207 HD
HETATM   25  N5  UNL     1      39.374  25.892  64.183  1.00  0.00    -0.213 N 
ATOM     26  H4  UNL     1      39.544  24.261  62.905  1.00  0.00     0.210 HD
HETATM   27  N6  UNL     1      39.353  27.181  63.944  1.00  0.00    -0.115 N 
ATOM     28  H5  UNL     1      39.305  25.448  65.098  1.00  0.00     0.210 HD
ATOM     29  H6  UNL     1      39.265  27.919  64.642  1.00  0.00     0.207 HD
ENDBRANCH  19  21
ENDBRANCH   5  19
TORSDOF 4
ENDMDL
MODEL 5
REMARK VINA RESULT: -8.398990837      1.396      1.581
REMARK  4 active torsions:
REMARK  status: ('A' for Active; 'I' for Inactive)
REMARK    1  A    between atoms: C8_9  and  N1_10 
REMARK    2  A    between atoms: N1_10  and  C9_12 
REMARK    3  A    between atoms: C13_16  and  N2_17 
REMARK    4  A    between atoms: N2_17  and  C14_19 
ROOT
HETATM    1  C9  UNL     1      40.211  29.472  58.412  1.00  0.00     0.034 A 
HETATM    2  C10 UNL     1      38.883  29.428  58.105  1.00  0.00     0.029 A 
HETATM    3  C11 UNL     1      37.955  29.003  59.031  1.00  0.00     0.004 A 
HETATM    4  C12 UNL     1      38.411  28.615  60.305  1.00  0.00     0.030 A 
HETATM    5  C13 UNL     1      39.716  28.641  60.658  1.00  0.00     0.051 A 
HETATM    6  C15 UNL     1      40.612  29.088  59.658  1.00  0.00     0.059 A 
ENDROOT
BRANCH   1   7
HETATM    7  N1  UNL     1      41.180  29.917  57.439  1.00  0.00    -0.354 N 
ATOM      8  H1  UNL     1      41.543  29.223  56.785  1.00  0.00     0.166 HD
BRANCH   7   9
HETATM    9  C8  UNL     1      41.635  31.164  57.331  1.00  0.00     0.066 A 
HETATM   10  C7  UNL     1      42.549  31.198  56.215  1.00  0.00     0.099 A 
HETATM   11  C6  UNL     1      43.175  30.579  55.214  1.00  0.00     0.017 A 
HETATM   12  O1  UNL     1      42.926  32.250  56.137  1.00  0.00    -0.309 OA
HETATM   13  C5  UNL     1      44.058  31.466  54.452  1.00  0.00     0.060 A 
HETATM   14  C4  UNL     1      44.173  32.877  54.830  1.00  0.00     0.014 A 
HETATM   15  C3  UNL     1      43.428  33.228  55.879  1.00  0.00     0.072 A 
HETATM   16  C2  UNL     1      42.939  34.187  56.835  1.00  0.00     0.037 A 
HETATM   17  C1  UNL     1      42.020  33.729  57.801  1.00  0.00     0.005 A 
HETATM   18  C16 UNL     1      41.425  32.360  58.029  1.00  0.00     0.032 A 
ENDBRANCH   7   9
ENDBRANCH   1   7
BRANCH   5  19
HETATM   19  N2  UNL     1      40.202  28.282  61.904  1.00  0.00    -0.189 N 
ATOM     20  H2  UNL     1      40.932  28.878  62.297  1.00  0.00     0.184 HD
BRANCH  19  21
HETATM   21  C14 UNL     1      39.801  27.192  62.685  1.00  0.00     0.714 A 
HETATM   22  N3  UNL     1      39.547  25.941  62.341  1.00  0.00    -0.115 N 
HETATM   23  N4  UNL     1      39.206  25.274  63.405  1.00  0.00    -0.213 N 
ATOM     24  H3  UNL     1      39.608  25.561  61.396  1.00  0.00     0.207 HD
HETATM   25  N5  UNL     1      39.233  26.073  64.451  1.00  0.00    -0.213 N 
ATOM     26  H4  UNL     1      38.956  24.285  63.426  1.00  0.00     0.210 HD
HETATM   27  N6  UNL     1      39.597  27.262  64.035  1.00  0.00    -0.115 N 
ATOM     28  H5  UNL     1      39.010  25.813  65.411  1.00  0.00     0.210 HD
ATOM     29  H6  UNL     1      39.707  28.093  64.616  1.00  0.00     0.207 HD
ENDBRANCH  19  21
ENDBRANCH   5  19
TORSDOF 4
ENDMDL
