MODEL 1
REMARK VINA RESULT: -8.841702463      0.000      0.000
REMARK  3 active torsions:
REMARK  status: ('A' for Active; 'I' for Inactive)
REMARK    1  A    between atoms: C2_2  and  N1_3 
REMARK       I    between atoms: N1_3  and  C3_5 
REMARK    2  A    between atoms: C3_5  and  C4_7 
REMARK    3  A    between atoms: C11_14  and  C12_15 
REMARK       I    between atoms: C12_15  and  N2_17 
ROOT
HETATM    1  C4  UNL     1      33.139  73.457  84.032  1.00  0.00     0.046 C 
HETATM    2  C5  UNL     1      34.453  72.978  83.464  1.00  0.00     0.024 C 
HETATM    3  C6  UNL     1      35.476  73.018  84.580  1.00  0.00    -0.012 C 
HETATM    4  C7  UNL     1      35.340  74.350  85.272  1.00  0.00     0.010 C 
HETATM    5  C8  UNL     1      33.885  74.567  85.619  1.00  0.00    -0.007 C 
HETATM    6  C9  UNL     1      33.206  74.946  84.290  1.00  0.00     0.025 C 
HETATM    7  C10 UNL     1      33.073  73.290  85.528  1.00  0.00     0.020 C 
HETATM    8  C11 UNL     1      33.756  72.091  86.057  1.00  0.00     0.084 C 
HETATM    9  C17 UNL     1      35.135  71.871  85.518  1.00  0.00     0.019 C 
ENDROOT
BRANCH   1  10
HETATM   10  C3  UNL     1      31.946  73.093  83.279  1.00  0.00     0.227 C 
HETATM   11  N1  UNL     1      31.696  71.801  82.747  1.00  0.00    -0.352 N 
ATOM     12  H1  UNL     1      32.385  71.062  82.888  1.00  0.00     0.163 HD
HETATM   13  O1  UNL     1      31.069  74.004  83.088  1.00  0.00    -0.273 OA
BRANCH  11  14
HETATM   14  C2  UNL     1      30.493  71.508  82.011  1.00  0.00     0.029 C 
HETATM   15  C1  UNL     1      29.290  71.790  82.901  1.00  0.00     0.038 C 
HETATM   16  C18 UNL     1      30.431  72.309  80.746  1.00  0.00     0.031 C 
HETATM   17  C19 UNL     1      29.174  72.047  79.980  1.00  0.00     0.002 C 
HETATM   18  C20 UNL     1      28.693  70.600  80.134  1.00  0.00     0.000 C 
HETATM   19  C21 UNL     1      29.911  69.751  80.334  1.00  0.00     0.002 C 
HETATM   20  C22 UNL     1      30.482  70.012  81.711  1.00  0.00     0.031 C 
ENDBRANCH  11  14
ENDBRANCH   1  10
BRANCH   8  21
HETATM   21  C12 UNL     1      33.730  72.143  87.541  1.00  0.00     0.226 C 
HETATM   22  O2  UNL     1      34.787  71.990  88.243  1.00  0.00    -0.273 OA
HETATM   23  N2  UNL     1      32.538  72.367  88.281  1.00  0.00    -0.333 N 
HETATM   24  C13 UNL     1      32.381  73.378  89.067  1.00  0.00     0.004 C 
ATOM     25  H2  UNL     1      31.773  71.698  88.188  1.00  0.00     0.168 HD
HETATM   26  C14 UNL     1      33.295  74.490  89.396  1.00  0.00     0.068 C 
HETATM   27  C16 UNL     1      31.095  73.568  89.830  1.00  0.00     0.192 C 
HETATM   28  C15 UNL     1      33.443  74.490  90.916  1.00  0.00     0.146 C 
HETATM   29  S1  UNL     1      31.752  74.124  91.407  1.00  0.00     0.149 S 
HETATM   30  O3  UNL     1      31.049  75.330  91.903  1.00  0.00    -0.228 OA
HETATM   31  O4  UNL     1      31.729  73.020  92.407  1.00  0.00    -0.228 OA
ENDBRANCH   8  21
TORSDOF 3
ENDMDL
MODEL 2
REMARK VINA RESULT: -8.386351799      2.029      2.703
REMARK  3 active torsions:
REMARK  status: ('A' for Active; 'I' for Inactive)
REMARK    1  A    between atoms: C2_2  and  N1_3 
REMARK       I    between atoms: N1_3  and  C3_5 
REMARK    2  A    between atoms: C3_5  and  C4_7 
REMARK    3  A    between atoms: C11_14  and  C12_15 
REMARK       I    between atoms: C12_15  and  N2_17 
ROOT
HETATM    1  C4  UNL     1      31.775  73.339  82.687  1.00  0.00     0.046 C 
HETATM    2  C5  UNL     1      32.812  74.092  81.890  1.00  0.00     0.024 C 
HETATM    3  C6  UNL     1      33.778  74.719  82.873  1.00  0.00    -0.012 C 
HETATM    4  C7  UNL     1      32.961  75.381  83.953  1.00  0.00     0.010 C 
HETATM    5  C8  UNL     1      31.949  74.384  84.472  1.00  0.00    -0.007 C 
HETATM    6  C9  UNL     1      30.858  74.318  83.387  1.00  0.00     0.025 C 
HETATM    7  C10 UNL     1      32.275  72.963  84.058  1.00  0.00     0.020 C 
HETATM    8  C11 UNL     1      33.710  72.618  84.129  1.00  0.00     0.084 C 
HETATM    9  C17 UNL     1      34.618  73.583  83.435  1.00  0.00     0.019 C 
ENDROOT
BRANCH   1  10
HETATM   10  C3  UNL     1      31.025  72.322  81.962  1.00  0.00     0.227 C 
HETATM   11  N1  UNL     1      30.724  72.383  80.575  1.00  0.00    -0.352 N 
ATOM     12  H1  UNL     1      31.044  73.184  80.031  1.00  0.00     0.163 HD
HETATM   13  O1  UNL     1      30.612  71.309  82.625  1.00  0.00    -0.273 OA
BRANCH  11  14
HETATM   14  C2  UNL     1      29.977  71.341  79.919  1.00  0.00     0.029 C 
HETATM   15  C1  UNL     1      28.489  71.624  80.084  1.00  0.00     0.038 C 
HETATM   16  C18 UNL     1      30.353  71.242  78.473  1.00  0.00     0.031 C 
HETATM   17  C19 UNL     1      29.566  70.188  77.762  1.00  0.00     0.002 C 
HETATM   18  C20 UNL     1      29.235  69.000  78.672  1.00  0.00     0.000 C 
HETATM   19  C21 UNL     1      30.348  68.884  79.667  1.00  0.00     0.002 C 
HETATM   20  C22 UNL     1      30.263  70.033  80.650  1.00  0.00     0.031 C 
ENDBRANCH  11  14
ENDBRANCH   1  10
BRANCH   8  21
HETATM   21  C12 UNL     1      34.081  72.415  85.553  1.00  0.00     0.226 C 
HETATM   22  O2  UNL     1      34.846  71.460  85.924  1.00  0.00    -0.273 OA
HETATM   23  N2  UNL     1      33.618  73.261  86.597  1.00  0.00    -0.333 N 
HETATM   24  C13 UNL     1      34.412  73.948  87.346  1.00  0.00     0.004 C 
ATOM     25  H2  UNL     1      32.613  73.328  86.760  1.00  0.00     0.168 HD
HETATM   26  C14 UNL     1      35.885  74.051  87.344  1.00  0.00     0.068 C 
HETATM   27  C16 UNL     1      33.867  74.830  88.440  1.00  0.00     0.192 C 
HETATM   28  C15 UNL     1      36.344  73.685  88.755  1.00  0.00     0.146 C 
HETATM   29  S1  UNL     1      35.073  74.499  89.731  1.00  0.00     0.149 S 
HETATM   30  O3  UNL     1      35.571  75.748  90.354  1.00  0.00    -0.228 OA
HETATM   31  O4  UNL     1      34.516  73.560  90.745  1.00  0.00    -0.228 OA
ENDBRANCH   8  21
TORSDOF 3
ENDMDL
MODEL 3
REMARK VINA RESULT: -8.365503355      1.451      1.884
REMARK  3 active torsions:
REMARK  status: ('A' for Active; 'I' for Inactive)
REMARK    1  A    between atoms: C2_2  and  N1_3 
REMARK       I    between atoms: N1_3  and  C3_5 
REMARK    2  A    between atoms: C3_5  and  C4_7 
REMARK    3  A    between atoms: C11_14  and  C12_15 
REMARK       I    between atoms: C12_15  and  N2_17 
ROOT
HETATM    1  C4  UNL     1      31.518  73.102  83.239  1.00  0.00     0.046 C 
HETATM    2  C5  UNL     1      32.866  73.551  82.729  1.00  0.00     0.024 C 
HETATM    3  C6  UNL     1      33.656  74.063  83.915  1.00  0.00    -0.012 C 
HETATM    4  C7  UNL     1      32.751  74.977  84.702  1.00  0.00     0.010 C 
HETATM    5  C8  UNL     1      31.446  74.259  84.960  1.00  0.00    -0.007 C 
HETATM    6  C9  UNL     1      30.688  74.307  83.620  1.00  0.00     0.025 C 
HETATM    7  C10 UNL     1      31.548  72.767  84.707  1.00  0.00     0.020 C 
HETATM    8  C11 UNL     1      32.803  72.150  85.185  1.00  0.00     0.084 C 
HETATM    9  C17 UNL     1      34.050  72.842  84.730  1.00  0.00     0.019 C 
ENDROOT
BRANCH   1  10
HETATM   10  C3  UNL     1      30.779  72.190  82.375  1.00  0.00     0.227 C 
HETATM   11  N1  UNL     1      30.769  72.260  80.957  1.00  0.00    -0.352 N 
ATOM     12  H1  UNL     1      31.308  72.989  80.490  1.00  0.00     0.163 HD
HETATM   13  O1  UNL     1      30.094  71.269  82.939  1.00  0.00    -0.273 OA
BRANCH  11  14
HETATM   14  C2  UNL     1      30.015  71.325  80.161  1.00  0.00     0.029 C 
HETATM   15  C1  UNL     1      28.533  71.652  80.290  1.00  0.00     0.038 C 
HETATM   16  C18 UNL     1      30.457  71.362  78.731  1.00  0.00     0.031 C 
HETATM   17  C19 UNL     1      29.665  70.422  77.878  1.00  0.00     0.002 C 
HETATM   18  C20 UNL     1      29.246  69.161  78.641  1.00  0.00     0.000 C 
HETATM   19  C21 UNL     1      30.305  68.894  79.665  1.00  0.00     0.002 C 
HETATM   20  C22 UNL     1      30.216  69.936  80.760  1.00  0.00     0.031 C 
ENDBRANCH  11  14
ENDBRANCH   1  10
BRANCH   8  21
HETATM   21  C12 UNL     1      32.736  72.016  86.662  1.00  0.00     0.226 C 
HETATM   22  O2  UNL     1      33.758  71.693  87.360  1.00  0.00    -0.273 OA
HETATM   23  N2  UNL     1      31.543  72.237  87.401  1.00  0.00    -0.333 N 
HETATM   24  C13 UNL     1      31.439  73.150  88.307  1.00  0.00     0.004 C 
ATOM     25  H2  UNL     1      30.733  71.647  87.208  1.00  0.00     0.168 HD
HETATM   26  C14 UNL     1      32.423  74.136  88.795  1.00  0.00     0.068 C 
HETATM   27  C16 UNL     1      30.148  73.341  89.062  1.00  0.00     0.192 C 
HETATM   28  C15 UNL     1      32.525  73.933  90.305  1.00  0.00     0.146 C 
HETATM   29  S1  UNL     1      30.798  73.641  90.711  1.00  0.00     0.149 S 
HETATM   30  O3  UNL     1      30.172  74.826  91.343  1.00  0.00    -0.228 OA
HETATM   31  O4  UNL     1      30.662  72.424  91.560  1.00  0.00    -0.228 OA
ENDBRANCH   8  21
TORSDOF 3
ENDMDL
MODEL 4
REMARK VINA RESULT: -8.359116434      2.053      2.980
REMARK  3 active torsions:
REMARK  status: ('A' for Active; 'I' for Inactive)
REMARK    1  A    between atoms: C2_2  and  N1_3 
REMARK       I    between atoms: N1_3  and  C3_5 
REMARK    2  A    between atoms: C3_5  and  C4_7 
REMARK    3  A    between atoms: C11_14  and  C12_15 
REMARK       I    between atoms: C12_15  and  N2_17 
ROOT
HETATM    1  C4  UNL     1      31.952  74.142  82.186  1.00  0.00     0.046 C 
HETATM    2  C5  UNL     1      32.713  74.909  81.133  1.00  0.00     0.024 C 
HETATM    3  C6  UNL     1      33.776  75.725  81.839  1.00  0.00    -0.012 C 
HETATM    4  C7  UNL     1      33.117  76.410  83.009  1.00  0.00     0.010 C 
HETATM    5  C8  UNL     1      32.353  75.377  83.805  1.00  0.00    -0.007 C 
HETATM    6  C9  UNL     1      31.084  75.092  82.982  1.00  0.00     0.025 C 
HETATM    7  C10 UNL     1      32.754  73.960  83.448  1.00  0.00     0.020 C 
HETATM    8  C11 UNL     1      34.206  73.767  83.246  1.00  0.00     0.084 C 
HETATM    9  C17 UNL     1      34.838  74.741  82.302  1.00  0.00     0.019 C 
ENDROOT
BRANCH   1  10
HETATM   10  C3  UNL     1      31.197  72.987  81.717  1.00  0.00     0.227 C 
HETATM   11  N1  UNL     1      30.725  72.823  80.388  1.00  0.00    -0.352 N 
ATOM     12  H1  UNL     1      30.915  73.550  79.699  1.00  0.00     0.163 HD
HETATM   13  O1  UNL     1      30.947  72.063  82.566  1.00  0.00    -0.273 OA
BRANCH  11  14
HETATM   14  C2  UNL     1      29.984  71.654  79.991  1.00  0.00     0.029 C 
HETATM   15  C1  UNL     1      28.497  71.932  80.163  1.00  0.00     0.038 C 
HETATM   16  C18 UNL     1      30.304  71.273  78.578  1.00  0.00     0.031 C 
HETATM   17  C19 UNL     1      29.522  70.079  78.131  1.00  0.00     0.002 C 
HETATM   18  C20 UNL     1      29.264  69.093  79.275  1.00  0.00     0.000 C 
HETATM   19  C21 UNL     1      30.420  69.205  80.221  1.00  0.00     0.002 C 
HETATM   20  C22 UNL     1      30.340  70.527  80.955  1.00  0.00     0.031 C 
ENDBRANCH  11  14
ENDBRANCH   1  10
BRANCH   8  21
HETATM   21  C12 UNL     1      34.873  73.749  84.573  1.00  0.00     0.226 C 
HETATM   22  O2  UNL     1      35.944  74.409  84.801  1.00  0.00    -0.273 OA
HETATM   23  N2  UNL     1      34.373  73.005  85.675  1.00  0.00    -0.333 N 
HETATM   24  C13 UNL     1      34.013  73.554  86.785  1.00  0.00     0.004 C 
ATOM     25  H2  UNL     1      34.296  71.992  85.585  1.00  0.00     0.168 HD
HETATM   26  C14 UNL     1      34.011  74.972  87.200  1.00  0.00     0.068 C 
HETATM   27  C16 UNL     1      33.489  72.717  87.924  1.00  0.00     0.192 C 
HETATM   28  C15 UNL     1      34.833  75.046  88.485  1.00  0.00     0.146 C 
HETATM   29  S1  UNL     1      34.290  73.542  89.306  1.00  0.00     0.149 S 
HETATM   30  O3  UNL     1      33.338  73.827  90.405  1.00  0.00    -0.228 OA
HETATM   31  O4  UNL     1      35.463  72.756  89.780  1.00  0.00    -0.228 OA
ENDBRANCH   8  21
TORSDOF 3
ENDMDL
MODEL 5
REMARK VINA RESULT: -8.163478788      3.847      4.854
REMARK  3 active torsions:
REMARK  status: ('A' for Active; 'I' for Inactive)
REMARK    1  A    between atoms: C2_2  and  N1_3 
REMARK       I    between atoms: N1_3  and  C3_5 
REMARK    2  A    between atoms: C3_5  and  C4_7 
REMARK    3  A    between atoms: C11_14  and  C12_15 
REMARK       I    between atoms: C12_15  and  N2_17 
ROOT
HETATM    1  C4  UNL     1      31.060  72.820  83.522  1.00  0.00     0.046 C 
HETATM    2  C5  UNL     1      31.799  72.107  84.628  1.00  0.00     0.024 C 
HETATM    3  C6  UNL     1      31.940  73.076  85.783  1.00  0.00    -0.012 C 
HETATM    4  C7  UNL     1      32.416  74.389  85.218  1.00  0.00     0.010 C 
HETATM    5  C8  UNL     1      31.520  74.770  84.062  1.00  0.00    -0.007 C 
HETATM    6  C9  UNL     1      31.959  73.864  82.897  1.00  0.00     0.025 C 
HETATM    7  C10 UNL     1      30.234  73.969  84.040  1.00  0.00     0.020 C 
HETATM    8  C11 UNL     1      29.623  73.754  85.368  1.00  0.00     0.084 C 
HETATM    9  C17 UNL     1      30.558  73.211  86.403  1.00  0.00     0.019 C 
ENDROOT
BRANCH   1  10
HETATM   10  C3  UNL     1      30.440  71.969  82.515  1.00  0.00     0.227 C 
HETATM   11  N1  UNL     1      30.621  72.121  81.115  1.00  0.00    -0.352 N 
ATOM     12  H1  UNL     1      31.221  72.869  80.769  1.00  0.00     0.163 HD
HETATM   13  O1  UNL     1      29.681  71.025  82.927  1.00  0.00    -0.273 OA
BRANCH  11  14
HETATM   14  C2  UNL     1      29.977  71.243  80.172  1.00  0.00     0.029 C 
HETATM   15  C1  UNL     1      28.482  71.536  80.167  1.00  0.00     0.038 C 
HETATM   16  C18 UNL     1      30.565  71.403  78.804  1.00  0.00     0.031 C 
HETATM   17  C19 UNL     1      29.890  70.524  77.799  1.00  0.00     0.002 C 
HETATM   18  C20 UNL     1      29.422  69.199  78.411  1.00  0.00     0.000 C 
HETATM   19  C21 UNL     1      30.374  68.865  79.518  1.00  0.00     0.002 C 
HETATM   20  C22 UNL     1      30.146  69.813  80.676  1.00  0.00     0.031 C 
ENDBRANCH  11  14
ENDBRANCH   1  10
BRANCH   8  21
HETATM   21  C12 UNL     1      28.970  75.016  85.802  1.00  0.00     0.226 C 
HETATM   22  O2  UNL     1      28.916  76.045  85.045  1.00  0.00    -0.273 OA
HETATM   23  N2  UNL     1      28.362  75.169  87.077  1.00  0.00    -0.333 N 
HETATM   24  C13 UNL     1      27.109  75.437  87.228  1.00  0.00     0.004 C 
ATOM     25  H2  UNL     1      28.942  75.061  87.910  1.00  0.00     0.168 HD
HETATM   26  C14 UNL     1      26.044  75.644  86.227  1.00  0.00     0.068 C 
HETATM   27  C16 UNL     1      26.515  75.589  88.604  1.00  0.00     0.192 C 
HETATM   28  C15 UNL     1      25.438  77.015  86.519  1.00  0.00     0.146 C 
HETATM   29  S1  UNL     1      25.425  76.988  88.316  1.00  0.00     0.149 S 
HETATM   30  O3  UNL     1      24.065  76.748  88.854  1.00  0.00    -0.228 OA
HETATM   31  O4  UNL     1      26.020  78.241  88.859  1.00  0.00    -0.228 OA
ENDBRANCH   8  21
TORSDOF 3
ENDMDL
