MODEL 1
REMARK VINA RESULT: -8.030113115      0.000      0.000
REMARK  2 active torsions:
REMARK  status: ('A' for Active; 'I' for Inactive)
REMARK       I    between atoms: N1_2  and  C3_4 
REMARK       I    between atoms: C3_4  and  N2_6 
REMARK    1  A    between atoms: C6_9  and  N3_10 
REMARK    2  A    between atoms: C11_15  and  N4_16 
REMARK       I    between atoms: N4_16  and  C12_18 
REMARK       I    between atoms: C12_18  and  N5_20 
ROOT
HETATM    1  N3  UNL     1      29.351  74.653  84.091  1.00  0.00     0.095 N 
HETATM    2  C7  UNL     1      30.303  75.684  83.869  1.00  0.00     0.273 C 
HETATM    3  C8  UNL     1      30.303  76.748  84.940  1.00  0.00     0.030 C 
HETATM    4  C9  UNL     1      30.197  76.200  86.318  1.00  0.00     0.004 C 
HETATM    5  C10 UNL     1      29.182  75.167  86.574  1.00  0.00     0.027 C 
HETATM    6  C11 UNL     1      27.865  75.302  85.869  1.00  0.00     0.114 C 
HETATM    7  C20 UNL     1      28.025  75.102  84.357  1.00  0.00     0.298 C 
ENDROOT
BRANCH   6   8
HETATM    8  N4  UNL     1      27.119  76.469  86.199  1.00  0.00    -0.337 N 
HETATM    9  C12 UNL     1      25.788  76.734  85.830  1.00  0.00     0.318 C 
HETATM   10  O2  UNL     1      25.189  75.871  85.145  1.00  0.00    -0.247 OA
HETATM   11  N5  UNL     1      25.099  77.913  86.189  1.00  0.00    -0.334 N 
HETATM   12  C13 UNL     1      23.763  77.946  85.696  1.00  0.00     0.127 C 
HETATM   13  C19 UNL     1      25.907  78.820  86.979  1.00  0.00     0.127 C 
HETATM   14  C14 UNL     1      22.713  77.724  86.752  1.00  0.00     0.020 C 
HETATM   15  C15 UNL     1      23.297  77.449  88.109  1.00  0.00     0.002 C 
HETATM   16  C16 UNL     1      23.795  78.632  88.844  1.00  0.00     0.000 C 
HETATM   17  C17 UNL     1      23.912  79.897  88.082  1.00  0.00     0.002 C 
HETATM   18  C18 UNL     1      25.175  80.087  87.314  1.00  0.00     0.020 C 
ATOM     19  H4  UNL     1      27.594  77.180  86.755  1.00  0.00     0.164 HD
ENDBRANCH   6   8
BRANCH   1  20
HETATM   20  C6  UNL     1      29.506  73.600  83.159  1.00  0.00     0.226 C 
HETATM   21  C5  UNL     1      28.597  73.594  81.983  1.00  0.00     0.056 C 
HETATM   22  C4  UNL     1      29.234  72.749  80.885  1.00  0.00     0.129 C 
HETATM   23  N2  UNL     1      29.773  71.515  81.381  1.00  0.00    -0.334 N 
HETATM   24  C3  UNL     1      30.105  70.477  80.483  1.00  0.00     0.319 C 
HETATM   25  C22 UNL     1      30.031  71.267  82.802  1.00  0.00     0.129 C 
HETATM   26  N1  UNL     1      30.042  70.419  79.108  1.00  0.00    -0.343 N 
HETATM   27  O1  UNL     1      30.545  69.400  81.061  1.00  0.00    -0.247 OA
HETATM   28  C1  UNL     1      29.634  71.420  78.155  1.00  0.00     0.154 C 
HETATM   29  C2  UNL     1      30.443  69.134  78.412  1.00  0.00     0.154 C 
HETATM   30  C21 UNL     1      29.423  72.213  83.760  1.00  0.00     0.056 C 
ENDBRANCH   1  20
TORSDOF 2
ENDMDL
MODEL 2
REMARK VINA RESULT: -7.784309261      2.024      2.457
REMARK  2 active torsions:
REMARK  status: ('A' for Active; 'I' for Inactive)
REMARK       I    between atoms: N1_2  and  C3_4 
REMARK       I    between atoms: C3_4  and  N2_6 
REMARK    1  A    between atoms: C6_9  and  N3_10 
REMARK    2  A    between atoms: C11_15  and  N4_16 
REMARK       I    between atoms: N4_16  and  C12_18 
REMARK       I    between atoms: C12_18  and  N5_20 
ROOT
HETATM    1  N3  UNL     1      29.124  74.785  84.073  1.00  0.00     0.095 N 
HETATM    2  C7  UNL     1      29.071  76.033  83.396  1.00  0.00     0.273 C 
HETATM    3  C8  UNL     1      29.038  77.223  84.323  1.00  0.00     0.030 C 
HETATM    4  C9  UNL     1      29.977  77.106  85.469  1.00  0.00     0.004 C 
HETATM    5  C10 UNL     1      30.006  75.837  86.211  1.00  0.00     0.027 C 
HETATM    6  C11 UNL     1      28.701  75.126  86.417  1.00  0.00     0.114 C 
HETATM    7  C20 UNL     1      28.140  74.607  85.088  1.00  0.00     0.298 C 
ENDROOT
BRANCH   6   8
HETATM    8  N4  UNL     1      27.738  75.840  87.186  1.00  0.00    -0.337 N 
HETATM    9  C12 UNL     1      26.979  75.322  88.251  1.00  0.00     0.318 C 
HETATM   10  O2  UNL     1      27.154  74.120  88.563  1.00  0.00    -0.247 OA
HETATM   11  N5  UNL     1      26.037  76.082  88.978  1.00  0.00    -0.334 N 
HETATM   12  C13 UNL     1      25.397  75.333  90.007  1.00  0.00     0.127 C 
HETATM   13  C19 UNL     1      25.936  77.451  88.514  1.00  0.00     0.127 C 
HETATM   14  C14 UNL     1      25.859  75.681  91.398  1.00  0.00     0.020 C 
HETATM   15  C15 UNL     1      26.953  76.711  91.411  1.00  0.00     0.002 C 
HETATM   16  C16 UNL     1      26.520  78.108  91.198  1.00  0.00     0.000 C 
HETATM   17  C17 UNL     1      25.126  78.318  90.738  1.00  0.00     0.002 C 
HETATM   18  C18 UNL     1      24.900  78.232  89.268  1.00  0.00     0.020 C 
ATOM     19  H4  UNL     1      27.585  76.819  86.942  1.00  0.00     0.164 HD
ENDBRANCH   6   8
BRANCH   1  20
HETATM   20  C6  UNL     1      29.325  73.716  83.168  1.00  0.00     0.226 C 
HETATM   21  C5  UNL     1      28.420  73.642  81.991  1.00  0.00     0.056 C 
HETATM   22  C4  UNL     1      29.094  72.798  80.916  1.00  0.00     0.129 C 
HETATM   23  N2  UNL     1      29.683  71.600  81.444  1.00  0.00    -0.334 N 
HETATM   24  C3  UNL     1      30.060  70.554  80.573  1.00  0.00     0.319 C 
HETATM   25  C22 UNL     1      29.948  71.399  82.872  1.00  0.00     0.129 C 
HETATM   26  N1  UNL     1      30.002  70.459  79.200  1.00  0.00    -0.343 N 
HETATM   27  O1  UNL     1      30.542  69.512  81.179  1.00  0.00    -0.247 OA
HETATM   28  C1  UNL     1      29.555  71.418  78.221  1.00  0.00     0.154 C 
HETATM   29  C2  UNL     1      30.458  69.174  78.537  1.00  0.00     0.154 C 
HETATM   30  C21 UNL     1      29.298  72.342  83.804  1.00  0.00     0.056 C 
ENDBRANCH   1  20
TORSDOF 2
ENDMDL
MODEL 3
REMARK VINA RESULT: -7.770233456      5.954      9.955
REMARK  2 active torsions:
REMARK  status: ('A' for Active; 'I' for Inactive)
REMARK       I    between atoms: N1_2  and  C3_4 
REMARK       I    between atoms: C3_4  and  N2_6 
REMARK    1  A    between atoms: C6_9  and  N3_10 
REMARK    2  A    between atoms: C11_15  and  N4_16 
REMARK       I    between atoms: N4_16  and  C12_18 
REMARK       I    between atoms: C12_18  and  N5_20 
ROOT
HETATM    1  N3  UNL     1      33.460  73.405  84.741  1.00  0.00     0.095 N 
HETATM    2  C7  UNL     1      34.450  73.496  83.725  1.00  0.00     0.273 C 
HETATM    3  C8  UNL     1      33.884  73.484  82.326  1.00  0.00     0.030 C 
HETATM    4  C9  UNL     1      32.667  74.323  82.173  1.00  0.00     0.004 C 
HETATM    5  C10 UNL     1      31.612  74.202  83.190  1.00  0.00     0.027 C 
HETATM    6  C11 UNL     1      31.344  72.836  83.748  1.00  0.00     0.114 C 
HETATM    7  C20 UNL     1      32.531  72.337  84.582  1.00  0.00     0.298 C 
ENDROOT
BRANCH   6   8
HETATM    8  N4  UNL     1      30.887  71.874  82.802  1.00  0.00    -0.337 N 
HETATM    9  C12 UNL     1      29.886  72.075  81.834  1.00  0.00     0.318 C 
HETATM   10  O2  UNL     1      29.334  73.200  81.789  1.00  0.00    -0.247 OA
HETATM   11  N5  UNL     1      29.476  71.080  80.920  1.00  0.00    -0.334 N 
HETATM   12  C13 UNL     1      28.448  71.526  80.041  1.00  0.00     0.127 C 
HETATM   13  C19 UNL     1      30.196  69.832  81.082  1.00  0.00     0.127 C 
HETATM   14  C14 UNL     1      28.913  71.784  78.632  1.00  0.00     0.020 C 
HETATM   15  C15 UNL     1      30.391  71.576  78.456  1.00  0.00     0.002 C 
HETATM   16  C16 UNL     1      30.831  70.168  78.351  1.00  0.00     0.000 C 
HETATM   17  C17 UNL     1      29.835  69.125  78.689  1.00  0.00     0.002 C 
HETATM   18  C18 UNL     1      29.717  68.774  80.133  1.00  0.00     0.020 C 
ATOM     19  H4  UNL     1      31.327  70.954  82.828  1.00  0.00     0.164 HD
ENDBRANCH   6   8
BRANCH   1  20
HETATM   20  C6  UNL     1      34.022  73.592  86.026  1.00  0.00     0.226 C 
HETATM   21  C5  UNL     1      34.917  74.763  86.212  1.00  0.00     0.056 C 
HETATM   22  C4  UNL     1      34.986  75.087  87.700  1.00  0.00     0.129 C 
HETATM   23  N2  UNL     1      35.160  73.916  88.511  1.00  0.00    -0.334 N 
HETATM   24  C3  UNL     1      35.564  74.042  89.859  1.00  0.00     0.319 C 
HETATM   25  C22 UNL     1      34.914  72.556  88.021  1.00  0.00     0.129 C 
HETATM   26  N1  UNL     1      35.812  75.160  90.625  1.00  0.00    -0.343 N 
HETATM   27  O1  UNL     1      35.723  72.907  90.471  1.00  0.00    -0.247 OA
HETATM   28  C1  UNL     1      35.712  76.557  90.287  1.00  0.00     0.154 C 
HETATM   29  C2  UNL     1      36.270  74.975  92.058  1.00  0.00     0.154 C 
HETATM   30  C21 UNL     1      34.782  72.395  86.558  1.00  0.00     0.056 C 
ENDBRANCH   1  20
TORSDOF 2
ENDMDL
MODEL 4
REMARK VINA RESULT: -7.672268398      5.866     10.227
REMARK  2 active torsions:
REMARK  status: ('A' for Active; 'I' for Inactive)
REMARK       I    between atoms: N1_2  and  C3_4 
REMARK       I    between atoms: C3_4  and  N2_6 
REMARK    1  A    between atoms: C6_9  and  N3_10 
REMARK    2  A    between atoms: C11_15  and  N4_16 
REMARK       I    between atoms: N4_16  and  C12_18 
REMARK       I    between atoms: C12_18  and  N5_20 
ROOT
HETATM    1  N3  UNL     1      34.289  73.627  86.339  1.00  0.00     0.095 N 
HETATM    2  C7  UNL     1      35.042  72.421  86.313  1.00  0.00     0.273 C 
HETATM    3  C8  UNL     1      34.877  71.633  85.037  1.00  0.00     0.030 C 
HETATM    4  C9  UNL     1      34.895  72.477  83.814  1.00  0.00     0.004 C 
HETATM    5  C10 UNL     1      34.082  73.702  83.807  1.00  0.00     0.027 C 
HETATM    6  C11 UNL     1      32.749  73.650  84.491  1.00  0.00     0.114 C 
HETATM    7  C20 UNL     1      32.911  73.485  86.007  1.00  0.00     0.298 C 
ENDROOT
BRANCH   6   8
HETATM    8  N4  UNL     1      31.816  72.731  83.930  1.00  0.00    -0.337 N 
HETATM    9  C12 UNL     1      30.743  73.055  83.080  1.00  0.00     0.318 C 
HETATM   10  O2  UNL     1      30.579  74.262  82.781  1.00  0.00    -0.247 OA
HETATM   11  N5  UNL     1      29.850  72.097  82.553  1.00  0.00    -0.334 N 
HETATM   12  C13 UNL     1      28.849  72.672  81.720  1.00  0.00     0.127 C 
HETATM   13  C19 UNL     1      30.156  70.745  82.978  1.00  0.00     0.127 C 
HETATM   14  C14 UNL     1      29.051  72.416  80.249  1.00  0.00     0.020 C 
HETATM   15  C15 UNL     1      30.311  71.652  79.956  1.00  0.00     0.002 C 
HETATM   16  C16 UNL     1      30.250  70.196  80.209  1.00  0.00     0.000 C 
HETATM   17  C17 UNL     1      29.076  69.691  80.958  1.00  0.00     0.002 C 
HETATM   18  C18 UNL     1      29.172  69.746  82.445  1.00  0.00     0.020 C 
ATOM     19  H4  UNL     1      31.938  71.747  84.166  1.00  0.00     0.164 HD
ENDBRANCH   6   8
BRANCH   1  20
HETATM   20  C6  UNL     1      34.608  74.409  87.474  1.00  0.00     0.226 C 
HETATM   21  C5  UNL     1      35.803  75.288  87.381  1.00  0.00     0.056 C 
HETATM   22  C4  UNL     1      35.679  76.384  88.432  1.00  0.00     0.129 C 
HETATM   23  N2  UNL     1      35.258  75.880  89.708  1.00  0.00    -0.334 N 
HETATM   24  C3  UNL     1      35.398  76.678  90.865  1.00  0.00     0.319 C 
HETATM   25  C22 UNL     1      34.650  74.558  89.887  1.00  0.00     0.129 C 
HETATM   26  N1  UNL     1      35.865  77.964  91.023  1.00  0.00    -0.343 N 
HETATM   27  O1  UNL     1      35.017  76.091  91.960  1.00  0.00    -0.247 OA
HETATM   28  C1  UNL     1      36.339  78.906  90.040  1.00  0.00     0.154 C 
HETATM   29  C2  UNL     1      35.928  78.553  92.418  1.00  0.00     0.154 C 
HETATM   30  C21 UNL     1      34.769  73.617  88.755  1.00  0.00     0.056 C 
ENDBRANCH   1  20
TORSDOF 2
ENDMDL
MODEL 5
REMARK VINA RESULT: -7.631326764      1.025      1.416
REMARK  2 active torsions:
REMARK  status: ('A' for Active; 'I' for Inactive)
REMARK       I    between atoms: N1_2  and  C3_4 
REMARK       I    between atoms: C3_4  and  N2_6 
REMARK    1  A    between atoms: C6_9  and  N3_10 
REMARK    2  A    between atoms: C11_15  and  N4_16 
REMARK       I    between atoms: N4_16  and  C12_18 
REMARK       I    between atoms: C12_18  and  N5_20 
ROOT
HETATM    1  N3  UNL     1      29.179  74.682  84.000  1.00  0.00     0.095 N 
HETATM    2  C7  UNL     1      29.968  75.808  83.641  1.00  0.00     0.273 C 
HETATM    3  C8  UNL     1      29.931  76.921  84.661  1.00  0.00     0.030 C 
HETATM    4  C9  UNL     1      30.021  76.441  86.064  1.00  0.00     0.004 C 
HETATM    5  C10 UNL     1      29.173  75.307  86.462  1.00  0.00     0.027 C 
HETATM    6  C11 UNL     1      27.791  75.241  85.883  1.00  0.00     0.114 C 
HETATM    7  C20 UNL     1      27.837  74.979  84.373  1.00  0.00     0.298 C 
ENDROOT
BRANCH   6   8
HETATM    8  N4  UNL     1      26.936  76.325  86.233  1.00  0.00    -0.337 N 
HETATM    9  C12 UNL     1      25.999  76.336  87.283  1.00  0.00     0.318 C 
HETATM   10  O2  UNL     1      25.896  75.301  87.984  1.00  0.00    -0.247 OA
HETATM   11  N5  UNL     1      25.177  77.444  87.583  1.00  0.00    -0.334 N 
HETATM   12  C13 UNL     1      24.313  77.210  88.690  1.00  0.00     0.127 C 
HETATM   13  C19 UNL     1      25.402  78.569  86.696  1.00  0.00     0.127 C 
HETATM   14  C14 UNL     1      24.719  77.929  89.949  1.00  0.00     0.020 C 
HETATM   15  C15 UNL     1      25.998  78.703  89.795  1.00  0.00     0.002 C 
HETATM   16  C16 UNL     1      25.882  79.995  89.087  1.00  0.00     0.000 C 
HETATM   17  C17 UNL     1      24.606  80.266  88.384  1.00  0.00     0.002 C 
HETATM   18  C18 UNL     1      24.490  79.722  87.001  1.00  0.00     0.020 C 
ATOM     19  H4  UNL     1      27.009  77.172  85.671  1.00  0.00     0.164 HD
ENDBRANCH   6   8
BRANCH   1  20
HETATM   20  C6  UNL     1      29.381  73.606  83.103  1.00  0.00     0.226 C 
HETATM   21  C5  UNL     1      28.470  73.515  81.933  1.00  0.00     0.056 C 
HETATM   22  C4  UNL     1      29.142  72.665  80.861  1.00  0.00     0.129 C 
HETATM   23  N2  UNL     1      29.741  71.476  81.396  1.00  0.00    -0.334 N 
HETATM   24  C3  UNL     1      30.119  70.425  80.532  1.00  0.00     0.319 C 
HETATM   25  C22 UNL     1      30.016  71.290  82.824  1.00  0.00     0.129 C 
HETATM   26  N1  UNL     1      30.054  70.317  79.160  1.00  0.00    -0.343 N 
HETATM   27  O1  UNL     1      30.612  69.390  81.144  1.00  0.00    -0.247 OA
HETATM   28  C1  UNL     1      29.595  71.264  78.176  1.00  0.00     0.154 C 
HETATM   29  C2  UNL     1      30.514  69.029  78.507  1.00  0.00     0.154 C 
HETATM   30  C21 UNL     1      29.367  72.238  83.752  1.00  0.00     0.056 C 
ENDBRANCH   1  20
TORSDOF 2
ENDMDL
