MODEL 1
REMARK VINA RESULT: -8.119891695      0.000      0.000
REMARK  2 active torsions:
REMARK  status: ('A' for Active; 'I' for Inactive)
REMARK    1  A    between atoms: C2_2  and  C4_4 
REMARK       I    between atoms: C4_4  and  N1_6 
REMARK       I    between atoms: N2_10  and  C8_11 
REMARK       I    between atoms: C8_11  and  N3_13 
REMARK    2  A    between atoms: N3_13  and  C9_15 
ROOT
HETATM    1  C4  UNL     1      34.915  76.889  86.887  1.00  0.00     0.223 C 
HETATM    2  O1  UNL     1      35.787  77.486  86.160  1.00  0.00    -0.273 OA
HETATM    3  N1  UNL     1      34.066  75.919  86.297  1.00  0.00    -0.346 N 
HETATM    4  C5  UNL     1      33.085  75.227  87.043  1.00  0.00     0.133 C 
HETATM    5  C6  UNL     1      32.898  73.760  86.735  1.00  0.00     0.037 C 
HETATM    6  C7  UNL     1      31.758  73.471  85.835  1.00  0.00     0.135 C 
HETATM    7  N2  UNL     1      31.963  73.488  84.419  1.00  0.00    -0.329 N 
HETATM    8  C8  UNL     1      31.032  72.675  83.748  1.00  0.00     0.319 C 
HETATM    9  O2  UNL     1      30.156  72.074  84.471  1.00  0.00    -0.247 OA
HETATM   10  N3  UNL     1      30.908  72.409  82.375  1.00  0.00    -0.338 N 
ATOM     11  H3  UNL     1      31.567  72.845  81.731  1.00  0.00     0.164 HD
HETATM   12  C15 UNL     1      32.911  74.181  83.599  1.00  0.00     0.095 C 
HETATM   13  C16 UNL     1      32.996  75.604  84.124  1.00  0.00     0.052 C 
HETATM   14  C17 UNL     1      34.299  75.733  84.857  1.00  0.00     0.100 C 
HETATM   15  C18 UNL     1      35.064  74.466  84.682  1.00  0.00     0.085 C 
HETATM   16  C19 UNL     1      35.274  73.758  85.967  1.00  0.00     0.142 C 
HETATM   17  O3  UNL     1      36.344  73.834  86.505  1.00  0.00    -0.297 OA
HETATM   18  C20 UNL     1      34.155  72.984  86.531  1.00  0.00     0.024 C 
HETATM   19  C21 UNL     1      34.641  72.391  87.842  1.00  0.00     0.024 C 
HETATM   20  C22 UNL     1      33.983  71.808  85.591  1.00  0.00     0.018 C 
HETATM   21  C23 UNL     1      34.283  72.137  84.172  1.00  0.00     0.009 C 
HETATM   22  C24 UNL     1      34.261  73.562  83.783  1.00  0.00     0.022 C 
ENDROOT
BRANCH  10  23
HETATM   23  C9  UNL     1      29.872  71.534  81.834  1.00  0.00     0.086 C 
HETATM   24  C10 UNL     1      29.223  72.178  80.626  1.00  0.00     0.025 C 
HETATM   25  C11 UNL     1      29.811  71.644  79.349  1.00  0.00     0.002 C 
HETATM   26  C12 UNL     1      29.418  70.188  79.233  1.00  0.00     0.000 C 
HETATM   27  C13 UNL     1      29.385  69.504  80.581  1.00  0.00     0.002 C 
HETATM   28  C14 UNL     1      30.375  70.154  81.548  1.00  0.00     0.025 C 
ENDBRANCH  10  23
BRANCH   1  29
HETATM   29  C2  UNL     1      34.906  77.301  88.306  1.00  0.00     0.070 C 
HETATM   30  C1  UNL     1      35.770  76.453  89.205  1.00  0.00     0.019 C 
HETATM   31  C3  UNL     1      35.376  78.740  88.479  1.00  0.00     0.019 C 
ENDBRANCH   1  29
TORSDOF 2
ENDMDL
MODEL 2
REMARK VINA RESULT: -7.947756802      2.121      2.572
REMARK  2 active torsions:
REMARK  status: ('A' for Active; 'I' for Inactive)
REMARK    1  A    between atoms: C2_2  and  C4_4 
REMARK       I    between atoms: C4_4  and  N1_6 
REMARK       I    between atoms: N2_10  and  C8_11 
REMARK       I    between atoms: C8_11  and  N3_13 
REMARK    2  A    between atoms: N3_13  and  C9_15 
ROOT
HETATM    1  C4  UNL     1      31.276  75.984  87.601  1.00  0.00     0.223 C 
HETATM    2  O1  UNL     1      31.604  77.165  87.224  1.00  0.00    -0.273 OA
HETATM    3  N1  UNL     1      31.017  74.990  86.624  1.00  0.00    -0.346 N 
HETATM    4  C5  UNL     1      30.650  73.671  86.974  1.00  0.00     0.133 C 
HETATM    5  C6  UNL     1      31.243  72.553  86.150  1.00  0.00     0.037 C 
HETATM    6  C7  UNL     1      30.341  72.034  85.095  1.00  0.00     0.135 C 
HETATM    7  N2  UNL     1      30.344  72.653  83.806  1.00  0.00    -0.329 N 
HETATM    8  C8  UNL     1      29.924  71.763  82.800  1.00  0.00     0.319 C 
HETATM    9  O2  UNL     1      29.594  70.579  83.171  1.00  0.00    -0.247 OA
HETATM   10  N3  UNL     1      29.807  71.973  81.417  1.00  0.00    -0.338 N 
ATOM     11  H3  UNL     1      30.054  72.888  81.038  1.00  0.00     0.164 HD
HETATM   12  C15 UNL     1      30.675  73.981  83.384  1.00  0.00     0.095 C 
HETATM   13  C16 UNL     1      30.044  74.934  84.384  1.00  0.00     0.052 C 
HETATM   14  C17 UNL     1      31.150  75.476  85.243  1.00  0.00     0.100 C 
HETATM   15  C18 UNL     1      32.448  74.977  84.708  1.00  0.00     0.085 C 
HETATM   16  C19 UNL     1      33.147  74.096  85.674  1.00  0.00     0.142 C 
HETATM   17  O3  UNL     1      34.063  74.542  86.310  1.00  0.00    -0.297 OA
HETATM   18  C20 UNL     1      32.688  72.704  85.812  1.00  0.00     0.024 C 
HETATM   19  C21 UNL     1      33.560  72.051  86.871  1.00  0.00     0.024 C 
HETATM   20  C22 UNL     1      33.067  72.038  84.504  1.00  0.00     0.018 C 
HETATM   21  C23 UNL     1      32.982  72.948  83.332  1.00  0.00     0.009 C 
HETATM   22  C24 UNL     1      32.157  74.167  83.472  1.00  0.00     0.022 C 
ENDROOT
BRANCH  10  23
HETATM   23  C9  UNL     1      29.348  70.935  80.500  1.00  0.00     0.086 C 
HETATM   24  C10 UNL     1      29.120  71.520  79.121  1.00  0.00     0.025 C 
HETATM   25  C11 UNL     1      30.300  71.259  78.224  1.00  0.00     0.002 C 
HETATM   26  C12 UNL     1      30.370  69.769  77.974  1.00  0.00     0.000 C 
HETATM   27  C13 UNL     1      29.952  68.974  79.189  1.00  0.00     0.002 C 
HETATM   28  C14 UNL     1      30.252  69.743  80.477  1.00  0.00     0.025 C 
ENDBRANCH  10  23
BRANCH   1  29
HETATM   29  C2  UNL     1      31.208  75.798  89.066  1.00  0.00     0.070 C 
HETATM   30  C1  UNL     1      32.491  75.313  89.691  1.00  0.00     0.019 C 
HETATM   31  C3  UNL     1      30.835  77.091  89.781  1.00  0.00     0.019 C 
ENDBRANCH   1  29
TORSDOF 2
ENDMDL
MODEL 3
REMARK VINA RESULT: -7.792308822      3.014      3.690
REMARK  2 active torsions:
REMARK  status: ('A' for Active; 'I' for Inactive)
REMARK    1  A    between atoms: C2_2  and  C4_4 
REMARK       I    between atoms: C4_4  and  N1_6 
REMARK       I    between atoms: N2_10  and  C8_11 
REMARK       I    between atoms: C8_11  and  N3_13 
REMARK    2  A    between atoms: N3_13  and  C9_15 
ROOT
HETATM    1  C4  UNL     1      32.287  78.718  83.753  1.00  0.00     0.223 C 
HETATM    2  O1  UNL     1      33.518  78.934  83.466  1.00  0.00    -0.273 OA
HETATM    3  N1  UNL     1      31.662  77.536  83.281  1.00  0.00    -0.346 N 
HETATM    4  C5  UNL     1      30.309  77.240  83.561  1.00  0.00     0.133 C 
HETATM    5  C6  UNL     1      29.973  75.801  83.874  1.00  0.00     0.037 C 
HETATM    6  C7  UNL     1      29.423  75.044  82.725  1.00  0.00     0.135 C 
HETATM    7  N2  UNL     1      30.321  74.382  81.830  1.00  0.00    -0.329 N 
HETATM    8  C8  UNL     1      29.705  73.292  81.188  1.00  0.00     0.319 C 
HETATM    9  O2  UNL     1      28.472  73.070  81.470  1.00  0.00    -0.247 OA
HETATM   10  N3  UNL     1      30.243  72.384  80.262  1.00  0.00    -0.338 N 
ATOM     11  H3  UNL     1      31.219  72.488  79.985  1.00  0.00     0.164 HD
HETATM   12  C15 UNL     1      31.685  74.640  81.479  1.00  0.00     0.095 C 
HETATM   13  C16 UNL     1      31.815  76.141  81.282  1.00  0.00     0.052 C 
HETATM   14  C17 UNL     1      32.548  76.686  82.473  1.00  0.00     0.100 C 
HETATM   15  C18 UNL     1      32.978  75.541  83.324  1.00  0.00     0.085 C 
HETATM   16  C19 UNL     1      32.331  75.562  84.657  1.00  0.00     0.142 C 
HETATM   17  O3  UNL     1      32.960  75.953  85.603  1.00  0.00    -0.297 OA
HETATM   18  C20 UNL     1      30.938  75.098  84.767  1.00  0.00     0.024 C 
HETATM   19  C21 UNL     1      30.532  75.248  86.223  1.00  0.00     0.024 C 
HETATM   20  C22 UNL     1      31.004  73.605  84.515  1.00  0.00     0.018 C 
HETATM   21  C23 UNL     1      32.054  73.218  83.536  1.00  0.00     0.009 C 
HETATM   22  C24 UNL     1      32.565  74.269  82.630  1.00  0.00     0.022 C 
ENDROOT
BRANCH  10  23
HETATM   23  C9  UNL     1      29.461  71.297  79.679  1.00  0.00     0.086 C 
HETATM   24  C10 UNL     1      29.701  71.223  78.186  1.00  0.00     0.025 C 
HETATM   25  C11 UNL     1      30.716  70.163  77.856  1.00  0.00     0.002 C 
HETATM   26  C12 UNL     1      30.105  68.819  78.188  1.00  0.00     0.000 C 
HETATM   27  C13 UNL     1      29.221  68.890  79.411  1.00  0.00     0.002 C 
HETATM   28  C14 UNL     1      29.693  69.988  80.366  1.00  0.00     0.025 C 
ENDBRANCH  10  23
BRANCH   1  29
HETATM   29  C2  UNL     1      31.649  79.768  84.573  1.00  0.00     0.070 C 
HETATM   30  C1  UNL     1      31.779  79.559  86.061  1.00  0.00     0.019 C 
HETATM   31  C3  UNL     1      32.226  81.146  84.274  1.00  0.00     0.019 C 
ENDBRANCH   1  29
TORSDOF 2
ENDMDL
MODEL 4
REMARK VINA RESULT: -7.759675810      1.137      1.218
REMARK  2 active torsions:
REMARK  status: ('A' for Active; 'I' for Inactive)
REMARK    1  A    between atoms: C2_2  and  C4_4 
REMARK       I    between atoms: C4_4  and  N1_6 
REMARK       I    between atoms: N2_10  and  C8_11 
REMARK       I    between atoms: C8_11  and  N3_13 
REMARK    2  A    between atoms: N3_13  and  C9_15 
ROOT
HETATM    1  C4  UNL     1      33.360  77.171  86.548  1.00  0.00     0.223 C 
HETATM    2  O1  UNL     1      34.228  77.861  85.904  1.00  0.00    -0.273 OA
HETATM    3  N1  UNL     1      32.693  76.106  85.891  1.00  0.00    -0.346 N 
HETATM    4  C5  UNL     1      31.726  75.309  86.544  1.00  0.00     0.133 C 
HETATM    5  C6  UNL     1      31.741  73.829  86.243  1.00  0.00     0.037 C 
HETATM    6  C7  UNL     1      30.741  73.406  85.236  1.00  0.00     0.135 C 
HETATM    7  N2  UNL     1      31.088  73.440  83.848  1.00  0.00    -0.329 N 
HETATM    8  C8  UNL     1      30.330  72.521  83.100  1.00  0.00     0.319 C 
HETATM    9  O2  UNL     1      29.460  71.826  83.739  1.00  0.00    -0.247 OA
HETATM   10  N3  UNL     1      30.380  72.236  81.726  1.00  0.00    -0.338 N 
ATOM     11  H3  UNL     1      31.049  72.742  81.145  1.00  0.00     0.164 HD
HETATM   12  C15 UNL     1      32.030  74.234  83.118  1.00  0.00     0.095 C 
HETATM   13  C16 UNL     1      31.896  75.659  83.625  1.00  0.00     0.052 C 
HETATM   14  C17 UNL     1      33.094  75.941  84.486  1.00  0.00     0.100 C 
HETATM   15  C18 UNL     1      34.013  74.771  84.410  1.00  0.00     0.085 C 
HETATM   16  C19 UNL     1      34.168  74.098  85.722  1.00  0.00     0.142 C 
HETATM   17  O3  UNL     1      35.161  74.300  86.365  1.00  0.00    -0.297 OA
HETATM   18  C20 UNL     1      33.093  73.203  86.182  1.00  0.00     0.024 C 
HETATM   19  C21 UNL     1      33.505  72.676  87.545  1.00  0.00     0.024 C 
HETATM   20  C22 UNL     1      33.155  72.010  85.249  1.00  0.00     0.018 C 
HETATM   21  C23 UNL     1      33.560  72.364  83.863  1.00  0.00     0.009 C 
HETATM   22  C24 UNL     1      33.416  73.776  83.449  1.00  0.00     0.022 C 
ENDROOT
BRANCH  10  23
HETATM   23  C9  UNL     1      29.514  71.244  81.096  1.00  0.00     0.086 C 
HETATM   24  C10 UNL     1      28.967  71.782  79.790  1.00  0.00     0.025 C 
HETATM   25  C11 UNL     1      29.766  71.272  78.621  1.00  0.00     0.002 C 
HETATM   26  C12 UNL     1      29.533  69.781  78.519  1.00  0.00     0.000 C 
HETATM   27  C13 UNL     1      29.392  69.139  79.880  1.00  0.00     0.002 C 
HETATM   28  C14 UNL     1      30.181  69.914  80.936  1.00  0.00     0.025 C 
ENDBRANCH  10  23
BRANCH   1  29
HETATM   29  C2  UNL     1      33.157  77.586  87.952  1.00  0.00     0.070 C 
HETATM   30  C1  UNL     1      34.020  76.853  88.948  1.00  0.00     0.019 C 
HETATM   31  C3  UNL     1      33.431  79.072  88.146  1.00  0.00     0.019 C 
ENDBRANCH   1  29
TORSDOF 2
ENDMDL
MODEL 5
REMARK VINA RESULT: -7.716733144      2.587      7.925
REMARK  2 active torsions:
REMARK  status: ('A' for Active; 'I' for Inactive)
REMARK    1  A    between atoms: C2_2  and  C4_4 
REMARK       I    between atoms: C4_4  and  N1_6 
REMARK       I    between atoms: N2_10  and  C8_11 
REMARK       I    between atoms: C8_11  and  N3_13 
REMARK    2  A    between atoms: N3_13  and  C9_15 
ROOT
HETATM    1  C4  UNL     1      30.526  72.065  81.041  1.00  0.00     0.223 C 
HETATM    2  O1  UNL     1      31.299  72.554  80.143  1.00  0.00    -0.273 OA
HETATM    3  N1  UNL     1      30.833  72.269  82.410  1.00  0.00    -0.346 N 
HETATM    4  C5  UNL     1      30.023  71.755  83.446  1.00  0.00     0.133 C 
HETATM    5  C6  UNL     1      29.805  72.641  84.651  1.00  0.00     0.037 C 
HETATM    6  C7  UNL     1      30.682  72.323  85.802  1.00  0.00     0.135 C 
HETATM    7  N2  UNL     1      31.970  72.938  85.890  1.00  0.00    -0.329 N 
HETATM    8  C8  UNL     1      32.419  73.015  87.222  1.00  0.00     0.319 C 
HETATM    9  O2  UNL     1      31.649  72.526  88.125  1.00  0.00    -0.247 OA
HETATM   10  N3  UNL     1      33.610  73.560  87.729  1.00  0.00    -0.338 N 
ATOM     11  H3  UNL     1      34.277  73.972  87.078  1.00  0.00     0.164 HD
HETATM   12  C15 UNL     1      32.855  73.454  84.889  1.00  0.00     0.095 C 
HETATM   13  C16 UNL     1      32.868  72.449  83.749  1.00  0.00     0.052 C 
HETATM   14  C17 UNL     1      32.068  73.039  82.625  1.00  0.00     0.100 C 
HETATM   15  C18 UNL     1      31.677  74.427  83.003  1.00  0.00     0.085 C 
HETATM   16  C19 UNL     1      30.208  74.578  83.128  1.00  0.00     0.142 C 
HETATM   17  O3  UNL     1      29.600  75.103  82.236  1.00  0.00    -0.297 OA
HETATM   18  C20 UNL     1      29.554  74.080  84.349  1.00  0.00     0.024 C 
HETATM   19  C21 UNL     1      28.066  74.346  84.198  1.00  0.00     0.024 C 
HETATM   20  C22 UNL     1      30.024  75.010  85.450  1.00  0.00     0.018 C 
HETATM   21  C23 UNL     1      31.414  75.498  85.257  1.00  0.00     0.009 C 
HETATM   22  C24 UNL     1      32.289  74.728  84.347  1.00  0.00     0.022 C 
ENDROOT
BRANCH  10  23
HETATM   23  C9  UNL     1      33.930  73.558  89.154  1.00  0.00     0.086 C 
HETATM   24  C10 UNL     1      35.371  73.141  89.364  1.00  0.00     0.025 C 
HETATM   25  C11 UNL     1      36.258  74.342  89.552  1.00  0.00     0.002 C 
HETATM   26  C12 UNL     1      35.879  74.995  90.863  1.00  0.00     0.000 C 
HETATM   27  C13 UNL     1      34.394  74.904  91.129  1.00  0.00     0.002 C 
HETATM   28  C14 UNL     1      33.605  74.858  89.820  1.00  0.00     0.025 C 
ENDBRANCH  10  23
BRANCH   1  29
HETATM   29  C2  UNL     1      29.363  71.319  80.516  1.00  0.00     0.070 C 
HETATM   30  C1  UNL     1      28.962  71.700  79.113  1.00  0.00     0.019 C 
HETATM   31  C3  UNL     1      29.613  69.816  80.506  1.00  0.00     0.019 C 
ENDBRANCH   1  29
TORSDOF 2
ENDMDL
