MODEL 1
REMARK VINA RESULT: -6.039043877      0.000      0.000
REMARK  7 active torsions:
REMARK  status: ('A' for Active; 'I' for Inactive)
REMARK    1  A    between atoms: C2_2  and  C3_3 
REMARK    2  A    between atoms: C15_16  and  O2_17 
REMARK    3  A    between atoms: O2_17  and  C16_18 
REMARK    4  A    between atoms: C16_18  and  C17_20 
REMARK    5  A    between atoms: C17_20  and  C18_21 
REMARK    6  A    between atoms: C20_23  and  C21_24 
REMARK    7  A    between atoms: C21_24  and  O4_25 
ROOT
HETATM    1  C3  UNL     1      40.876  23.550  33.379  1.00  0.00    -0.041 C 
HETATM    2  C4  UNL     1      41.436  24.108  32.176  1.00  0.00     0.017 C 
HETATM    3  C5  UNL     1      42.634  23.719  31.458  1.00  0.00     0.160 C 
HETATM    4  O1  UNL     1      42.484  23.201  30.144  1.00  0.00    -0.370 OA
HETATM    5  C6  UNL     1      42.392  21.791  30.220  1.00  0.00     0.059 C 
HETATM    6  C7  UNL     1      40.849  21.659  29.953  1.00  0.00     0.046 C 
HETATM    7  C8  UNL     1      42.951  21.027  29.080  1.00  0.00     0.046 C 
HETATM    8  C9  UNL     1      42.797  21.532  31.566  1.00  0.00     0.035 C 
HETATM    9  C10 UNL     1      43.309  20.365  32.243  1.00  0.00     0.010 C 
HETATM   10  C11 UNL     1      42.772  20.551  33.701  1.00  0.00     0.016 C 
HETATM   11  C12 UNL     1      42.785  21.947  34.163  1.00  0.00     0.002 C 
HETATM   12  C13 UNL     1      43.408  21.794  35.596  1.00  0.00     0.022 C 
HETATM   13  C14 UNL     1      41.633  22.785  34.372  1.00  0.00    -0.004 C 
HETATM   14  C15 UNL     1      43.834  22.808  33.478  1.00  0.00     0.157 C 
HETATM   15  C20 UNL     1      43.579  22.717  32.004  1.00  0.00     0.045 C 
ENDROOT
BRANCH  14  16
HETATM   16  O2  UNL     1      45.059  22.147  33.736  1.00  0.00    -0.314 OA
BRANCH  16  17
HETATM   17  C16 UNL     1      46.232  22.764  34.134  1.00  0.00     0.259 C 
HETATM   18  O3  UNL     1      46.170  23.719  34.912  1.00  0.00    -0.265 OA
BRANCH  17  19
HETATM   19  C17 UNL     1      47.509  22.224  33.587  1.00  0.00     0.111 C 
BRANCH  19  20
HETATM   20  C18 UNL     1      48.436  23.295  33.090  1.00  0.00     0.005 C 
HETATM   21  C19 UNL     1      48.688  23.020  31.619  1.00  0.00     0.005 C 
ENDBRANCH  19  20
ENDBRANCH  17  19
ENDBRANCH  16  17
ENDBRANCH  14  16
BRANCH  15  22
HETATM   22  C21 UNL     1      44.920  22.957  31.393  1.00  0.00     0.179 C 
BRANCH  22  23
HETATM   23  O4  UNL     1      45.352  24.268  31.349  1.00  0.00    -0.400 OA
ATOM     24  H4  UNL     1      45.663  24.585  30.508  1.00  0.00     0.209 HD
ENDBRANCH  22  23
ENDBRANCH  15  22
BRANCH   1  25
HETATM   25  C2  UNL     1      40.009  24.489  34.145  1.00  0.00     0.001 C 
HETATM   26  C1  UNL     1      39.403  25.564  33.758  1.00  0.00     0.012 C 
ENDBRANCH   1  25
TORSDOF 7
ENDMDL
MODEL 2
REMARK VINA RESULT: -5.832382005     11.124     13.527
REMARK  7 active torsions:
REMARK  status: ('A' for Active; 'I' for Inactive)
REMARK    1  A    between atoms: C2_2  and  C3_3 
REMARK    2  A    between atoms: C15_16  and  O2_17 
REMARK    3  A    between atoms: O2_17  and  C16_18 
REMARK    4  A    between atoms: C16_18  and  C17_20 
REMARK    5  A    between atoms: C17_20  and  C18_21 
REMARK    6  A    between atoms: C20_23  and  C21_24 
REMARK    7  A    between atoms: C21_24  and  O4_25 
ROOT
HETATM    1  C3  UNL     1      49.395  36.000  28.414  1.00  0.00    -0.041 C 
HETATM    2  C4  UNL     1      50.378  35.936  29.464  1.00  0.00     0.017 C 
HETATM    3  C5  UNL     1      50.650  34.863  30.399  1.00  0.00     0.160 C 
HETATM    4  O1  UNL     1      51.915  34.221  30.327  1.00  0.00    -0.370 OA
HETATM    5  C6  UNL     1      51.806  33.096  29.477  1.00  0.00     0.059 C 
HETATM    6  C7  UNL     1      52.550  33.692  28.229  1.00  0.00     0.046 C 
HETATM    7  C8  UNL     1      52.665  31.933  29.802  1.00  0.00     0.046 C 
HETATM    8  C9  UNL     1      50.390  32.964  29.330  1.00  0.00     0.035 C 
HETATM    9  C10 UNL     1      49.528  31.871  28.948  1.00  0.00     0.010 C 
HETATM   10  C11 UNL     1      48.333  32.604  28.253  1.00  0.00     0.016 C 
HETATM   11  C12 UNL     1      47.959  33.871  28.898  1.00  0.00     0.002 C 
HETATM   12  C13 UNL     1      46.396  33.738  28.962  1.00  0.00     0.022 C 
HETATM   13  C14 UNL     1      48.175  35.191  28.367  1.00  0.00    -0.004 C 
HETATM   14  C15 UNL     1      48.308  33.931  30.376  1.00  0.00     0.157 C 
HETATM   15  C20 UNL     1      49.780  33.667  30.488  1.00  0.00     0.045 C 
ENDROOT
BRANCH  14  16
HETATM   16  O2  UNL     1      47.637  32.823  30.945  1.00  0.00    -0.314 OA
BRANCH  16  17
HETATM   17  C16 UNL     1      46.611  32.898  31.870  1.00  0.00     0.259 C 
HETATM   18  O3  UNL     1      46.584  33.849  32.656  1.00  0.00    -0.265 OA
BRANCH  17  19
HETATM   19  C17 UNL     1      45.594  31.809  31.855  1.00  0.00     0.111 C 
BRANCH  19  20
HETATM   20  C18 UNL     1      44.209  32.300  31.550  1.00  0.00     0.005 C 
HETATM   21  C19 UNL     1      43.741  31.570  30.304  1.00  0.00     0.005 C 
ENDBRANCH  19  20
ENDBRANCH  17  19
ENDBRANCH  16  17
ENDBRANCH  14  16
BRANCH  15  22
HETATM   22  C21 UNL     1      49.935  33.075  31.849  1.00  0.00     0.179 C 
BRANCH  22  23
HETATM   23  O4  UNL     1      49.492  33.842  32.910  1.00  0.00    -0.400 OA
ATOM     24  H4  UNL     1      48.562  33.802  33.105  1.00  0.00     0.209 HD
ENDBRANCH  22  23
ENDBRANCH  15  22
BRANCH   1  25
HETATM   25  C2  UNL     1      48.998  37.383  28.029  1.00  0.00     0.001 C 
HETATM   26  C1  UNL     1      48.979  37.950  26.866  1.00  0.00     0.012 C 
ENDBRANCH   1  25
TORSDOF 7
ENDMDL
MODEL 3
REMARK VINA RESULT: -5.792069890     11.534     14.113
REMARK  7 active torsions:
REMARK  status: ('A' for Active; 'I' for Inactive)
REMARK    1  A    between atoms: C2_2  and  C3_3 
REMARK    2  A    between atoms: C15_16  and  O2_17 
REMARK    3  A    between atoms: O2_17  and  C16_18 
REMARK    4  A    between atoms: C16_18  and  C17_20 
REMARK    5  A    between atoms: C17_20  and  C18_21 
REMARK    6  A    between atoms: C20_23  and  C21_24 
REMARK    7  A    between atoms: C21_24  and  O4_25 
ROOT
HETATM    1  C3  UNL     1      50.539  35.881  27.641  1.00  0.00    -0.041 C 
HETATM    2  C4  UNL     1      51.743  35.742  28.418  1.00  0.00     0.017 C 
HETATM    3  C5  UNL     1      52.109  34.705  29.362  1.00  0.00     0.160 C 
HETATM    4  O1  UNL     1      53.222  33.880  29.047  1.00  0.00    -0.370 OA
HETATM    5  C6  UNL     1      52.755  32.729  28.369  1.00  0.00     0.059 C 
HETATM    6  C7  UNL     1      53.221  33.124  26.922  1.00  0.00     0.046 C 
HETATM    7  C8  UNL     1      53.515  31.476  28.589  1.00  0.00     0.046 C 
HETATM    8  C9  UNL     1      51.344  32.798  28.589  1.00  0.00     0.035 C 
HETATM    9  C10 UNL     1      50.282  31.823  28.544  1.00  0.00     0.010 C 
HETATM   10  C11 UNL     1      49.051  32.676  28.093  1.00  0.00     0.016 C 
HETATM   11  C12 UNL     1      49.019  34.025  28.678  1.00  0.00     0.002 C 
HETATM   12  C13 UNL     1      47.521  34.130  29.138  1.00  0.00     0.022 C 
HETATM   13  C14 UNL     1      49.256  35.261  27.979  1.00  0.00    -0.004 C 
HETATM   14  C15 UNL     1      49.742  34.130  30.011  1.00  0.00     0.157 C 
HETATM   15  C20 UNL     1      51.147  33.660  29.783  1.00  0.00     0.045 C 
ENDROOT
BRANCH  14  16
HETATM   16  O2  UNL     1      49.106  33.174  30.837  1.00  0.00    -0.314 OA
BRANCH  16  17
HETATM   17  C16 UNL     1      48.415  33.457  32.002  1.00  0.00     0.259 C 
HETATM   18  O3  UNL     1      48.738  34.449  32.661  1.00  0.00    -0.265 OA
BRANCH  17  19
HETATM   19  C17 UNL     1      47.314  32.531  32.388  1.00  0.00     0.111 C 
BRANCH  19  20
HETATM   20  C18 UNL     1      45.950  33.072  32.073  1.00  0.00     0.005 C 
HETATM   21  C19 UNL     1      45.152  31.940  31.452  1.00  0.00     0.005 C 
ENDBRANCH  19  20
ENDBRANCH  17  19
ENDBRANCH  16  17
ENDBRANCH  14  16
BRANCH  15  22
HETATM   22  C21 UNL     1      51.572  33.143  31.118  1.00  0.00     0.179 C 
BRANCH  22  23
HETATM   23  O4  UNL     1      52.686  33.735  31.683  1.00  0.00    -0.400 OA
ATOM     24  H4  UNL     1      53.289  33.157  32.137  1.00  0.00     0.209 HD
ENDBRANCH  22  23
ENDBRANCH  15  22
BRANCH   1  25
HETATM   25  C2  UNL     1      50.233  37.279  27.227  1.00  0.00     0.001 C 
HETATM   26  C1  UNL     1      49.093  37.859  27.037  1.00  0.00     0.012 C 
ENDBRANCH   1  25
TORSDOF 7
ENDMDL
MODEL 4
REMARK VINA RESULT: -5.573020623     10.999     13.480
REMARK  7 active torsions:
REMARK  status: ('A' for Active; 'I' for Inactive)
REMARK    1  A    between atoms: C2_2  and  C3_3 
REMARK    2  A    between atoms: C15_16  and  O2_17 
REMARK    3  A    between atoms: O2_17  and  C16_18 
REMARK    4  A    between atoms: C16_18  and  C17_20 
REMARK    5  A    between atoms: C17_20  and  C18_21 
REMARK    6  A    between atoms: C20_23  and  C21_24 
REMARK    7  A    between atoms: C21_24  and  O4_25 
ROOT
HETATM    1  C3  UNL     1      48.382  33.272  28.849  1.00  0.00    -0.041 C 
HETATM    2  C4  UNL     1      49.122  33.966  29.871  1.00  0.00     0.017 C 
HETATM    3  C5  UNL     1      50.552  33.999  30.102  1.00  0.00     0.160 C 
HETATM    4  O1  UNL     1      51.222  35.243  29.955  1.00  0.00    -0.370 OA
HETATM    5  C6  UNL     1      51.703  35.345  28.629  1.00  0.00     0.059 C 
HETATM    6  C7  UNL     1      50.644  36.373  28.092  1.00  0.00     0.046 C 
HETATM    7  C8  UNL     1      52.965  36.097  28.436  1.00  0.00     0.046 C 
HETATM    8  C9  UNL     1      51.546  34.009  28.145  1.00  0.00     0.035 C 
HETATM    9  C10 UNL     1      52.144  33.266  27.062  1.00  0.00     0.010 C 
HETATM   10  C11 UNL     1      51.002  32.280  26.649  1.00  0.00     0.016 C 
HETATM   11  C12 UNL     1      50.230  31.759  27.787  1.00  0.00     0.002 C 
HETATM   12  C13 UNL     1      50.165  30.228  27.445  1.00  0.00     0.022 C 
HETATM   13  C14 UNL     1      48.871  32.100  28.119  1.00  0.00    -0.004 C 
HETATM   14  C15 UNL     1      51.007  31.734  29.093  1.00  0.00     0.157 C 
HETATM   15  C20 UNL     1      51.485  33.133  29.343  1.00  0.00     0.045 C 
ENDROOT
BRANCH  14  16
HETATM   16  O2  UNL     1      52.146  30.943  28.814  1.00  0.00    -0.314 OA
BRANCH  16  17
HETATM   17  C16 UNL     1      52.584  29.874  29.575  1.00  0.00     0.259 C 
HETATM   18  O3  UNL     1      51.795  29.335  30.356  1.00  0.00    -0.265 OA
BRANCH  17  19
HETATM   19  C17 UNL     1      53.999  29.442  29.400  1.00  0.00     0.111 C 
BRANCH  19  20
HETATM   20  C18 UNL     1      54.711  30.185  28.307  1.00  0.00     0.005 C 
HETATM   21  C19 UNL     1      55.749  31.071  28.973  1.00  0.00     0.005 C 
ENDBRANCH  19  20
ENDBRANCH  17  19
ENDBRANCH  16  17
ENDBRANCH  14  16
BRANCH  15  22
HETATM   22  C21 UNL     1      52.720  32.948  30.160  1.00  0.00     0.179 C 
BRANCH  22  23
HETATM   23  O4  UNL     1      52.657  33.359  31.478  1.00  0.00    -0.400 OA
ATOM     24  H4  UNL     1      52.757  34.290  31.638  1.00  0.00     0.209 HD
ENDBRANCH  22  23
ENDBRANCH  15  22
BRANCH   1  25
HETATM   25  C2  UNL     1      46.965  32.981  29.207  1.00  0.00     0.001 C 
HETATM   26  C1  UNL     1      46.386  32.966  30.363  1.00  0.00     0.012 C 
ENDBRANCH   1  25
TORSDOF 7
ENDMDL
MODEL 5
REMARK VINA RESULT: -5.478626009     10.589     13.340
REMARK  7 active torsions:
REMARK  status: ('A' for Active; 'I' for Inactive)
REMARK    1  A    between atoms: C2_2  and  C3_3 
REMARK    2  A    between atoms: C15_16  and  O2_17 
REMARK    3  A    between atoms: O2_17  and  C16_18 
REMARK    4  A    between atoms: C16_18  and  C17_20 
REMARK    5  A    between atoms: C17_20  and  C18_21 
REMARK    6  A    between atoms: C20_23  and  C21_24 
REMARK    7  A    between atoms: C21_24  and  O4_25 
ROOT
HETATM    1  C3  UNL     1      48.590  33.232  28.762  1.00  0.00    -0.041 C 
HETATM    2  C4  UNL     1      49.307  33.929  29.798  1.00  0.00     0.017 C 
HETATM    3  C5  UNL     1      50.732  33.972  30.056  1.00  0.00     0.160 C 
HETATM    4  O1  UNL     1      51.396  35.221  29.924  1.00  0.00    -0.370 OA
HETATM    5  C6  UNL     1      51.899  35.330  28.606  1.00  0.00     0.059 C 
HETATM    6  C7  UNL     1      50.843  36.352  28.053  1.00  0.00     0.046 C 
HETATM    7  C8  UNL     1      53.159  36.092  28.438  1.00  0.00     0.046 C 
HETATM    8  C9  UNL     1      51.761  33.994  28.117  1.00  0.00     0.035 C 
HETATM    9  C10 UNL     1      52.384  33.259  27.042  1.00  0.00     0.010 C 
HETATM   10  C11 UNL     1      51.257  32.265  26.607  1.00  0.00     0.016 C 
HETATM   11  C12 UNL     1      50.468  31.736  27.729  1.00  0.00     0.002 C 
HETATM   12  C13 UNL     1      50.421  30.205  27.382  1.00  0.00     0.022 C 
HETATM   13  C14 UNL     1      49.101  32.066  28.038  1.00  0.00    -0.004 C 
HETATM   14  C15 UNL     1      51.222  31.713  29.049  1.00  0.00     0.157 C 
HETATM   15  C20 UNL     1      51.685  33.114  29.312  1.00  0.00     0.045 C 
ENDROOT
BRANCH  14  16
HETATM   16  O2  UNL     1      52.371  30.931  28.788  1.00  0.00    -0.314 OA
BRANCH  16  17
HETATM   17  C16 UNL     1      52.830  29.893  29.581  1.00  0.00     0.259 C 
HETATM   18  O3  UNL     1      54.035  29.828  29.840  1.00  0.00    -0.265 OA
BRANCH  17  19
HETATM   19  C17 UNL     1      51.825  28.911  30.073  1.00  0.00     0.111 C 
BRANCH  19  20
HETATM   20  C18 UNL     1      52.388  27.940  31.070  1.00  0.00     0.005 C 
HETATM   21  C19 UNL     1      51.319  26.895  31.330  1.00  0.00     0.005 C 
ENDBRANCH  19  20
ENDBRANCH  17  19
ENDBRANCH  16  17
ENDBRANCH  14  16
BRANCH  15  22
HETATM   22  C21 UNL     1      52.907  32.936  30.150  1.00  0.00     0.179 C 
BRANCH  22  23
HETATM   23  O4  UNL     1      52.820  33.353  31.465  1.00  0.00    -0.400 OA
ATOM     24  H4  UNL     1      53.575  33.179  32.016  1.00  0.00     0.209 HD
ENDBRANCH  22  23
ENDBRANCH  15  22
BRANCH   1  25
HETATM   25  C2  UNL     1      47.170  32.930  29.094  1.00  0.00     0.001 C 
HETATM   26  C1  UNL     1      46.556  32.967  30.231  1.00  0.00     0.012 C 
ENDBRANCH   1  25
TORSDOF 7
ENDMDL
