MODEL 1
REMARK VINA RESULT: -8.668361369      0.000      0.000
REMARK  6 active torsions:
REMARK  status: ('A' for Active; 'I' for Inactive)
REMARK    1  A    between atoms: C2_2  and  C3_3 
REMARK    2  A    between atoms: C3_3  and  C4_4 
REMARK    3  A    between atoms: C3_3  and  C6_6 
REMARK    4  A    between atoms: C6_6  and  N1_8 
REMARK    5  A    between atoms: N2_11  and  C10_12 
REMARK    6  A    between atoms: C15_19  and  N4_20 
ROOT
HETATM    1  N1  UNL     1      44.209  33.180  30.972  1.00  0.00     0.096 N 
HETATM    2  C8  UNL     1      44.350  31.804  30.645  1.00  0.00     0.292 C 
HETATM    3  C9  UNL     1      42.974  31.207  30.307  1.00  0.00     0.153 C 
HETATM    4  N2  UNL     1      41.992  31.623  31.291  1.00  0.00    -0.376 N 
HETATM    5  C18 UNL     1      42.457  32.287  32.485  1.00  0.00     0.153 C 
HETATM    6  C19 UNL     1      43.352  33.468  32.041  1.00  0.00     0.292 C 
ENDROOT
BRANCH   4   7
HETATM    7  C10 UNL     1      40.643  31.399  30.974  1.00  0.00     0.050 A 
HETATM    8  C11 UNL     1      39.990  32.199  30.025  1.00  0.00     0.031 A 
HETATM    9  C12 UNL     1      38.674  31.920  29.770  1.00  0.00     0.005 A 
HETATM   10  C13 UNL     1      38.022  30.913  30.404  1.00  0.00     0.031 A 
HETATM   11  C14 UNL     1      38.644  30.089  31.362  1.00  0.00     0.053 A 
HETATM   12  N3  UNL     1      38.106  29.090  32.018  1.00  0.00    -0.336 N 
HETATM   13  C17 UNL     1      39.968  30.371  31.618  1.00  0.00     0.061 A 
HETATM   14  C15 UNL     1      38.845  28.405  32.885  1.00  0.00     0.145 A 
ATOM     15  H3  UNL     1      37.129  28.841  31.864  1.00  0.00     0.168 HD
HETATM   16  S1  UNL     1      40.361  29.188  32.785  1.00  0.00    -0.050 SA
BRANCH  14  17
HETATM   17  N4  UNL     1      38.474  27.377  33.620  1.00  0.00    -0.375 N 
HETATM   18  C16 UNL     1      38.881  27.355  35.011  1.00  0.00     0.148 C 
ATOM     19  H4  UNL     1      37.918  26.619  33.224  1.00  0.00     0.161 HD
ENDBRANCH  14  17
ENDBRANCH   4   7
BRANCH   1  20
HETATM   20  C6  UNL     1      45.507  33.892  31.108  1.00  0.00     0.223 C 
HETATM   21  C7  UNL     1      45.264  34.832  32.278  1.00  0.00     0.043 C 
BRANCH  20  22
HETATM   22  C3  UNL     1      46.658  32.988  31.307  1.00  0.00     0.018 C 
BRANCH  22  23
HETATM   23  C2  UNL     1      47.867  33.351  30.411  1.00  0.00     0.002 C 
HETATM   24  C1  UNL     1      47.569  33.026  28.959  1.00  0.00     0.005 C 
ENDBRANCH  22  23
BRANCH  22  25
HETATM   25  C4  UNL     1      47.260  32.758  32.630  1.00  0.00     0.002 C 
HETATM   26  C5  UNL     1      48.611  33.267  32.947  1.00  0.00     0.005 C 
ENDBRANCH  22  25
ENDBRANCH  20  22
ENDBRANCH   1  20
TORSDOF 6
ENDMDL
MODEL 2
REMARK VINA RESULT: -8.429055496      1.277      2.071
REMARK  6 active torsions:
REMARK  status: ('A' for Active; 'I' for Inactive)
REMARK    1  A    between atoms: C2_2  and  C3_3 
REMARK    2  A    between atoms: C3_3  and  C4_4 
REMARK    3  A    between atoms: C3_3  and  C6_6 
REMARK    4  A    between atoms: C6_6  and  N1_8 
REMARK    5  A    between atoms: N2_11  and  C10_12 
REMARK    6  A    between atoms: C15_19  and  N4_20 
ROOT
HETATM    1  N1  UNL     1      44.101  31.712  31.050  1.00  0.00     0.096 N 
HETATM    2  C8  UNL     1      44.088  30.863  32.189  1.00  0.00     0.292 C 
HETATM    3  C9  UNL     1      42.732  30.147  32.290  1.00  0.00     0.153 C 
HETATM    4  N2  UNL     1      41.650  31.092  32.076  1.00  0.00    -0.376 N 
HETATM    5  C18 UNL     1      41.968  32.500  32.042  1.00  0.00     0.153 C 
HETATM    6  C19 UNL     1      43.104  32.695  31.011  1.00  0.00     0.292 C 
ENDROOT
BRANCH   4   7
HETATM    7  C10 UNL     1      40.373  30.554  31.856  1.00  0.00     0.050 A 
HETATM    8  C11 UNL     1      39.666  30.849  30.682  1.00  0.00     0.031 A 
HETATM    9  C12 UNL     1      38.426  30.286  30.538  1.00  0.00     0.005 A 
HETATM   10  C13 UNL     1      37.896  29.477  31.489  1.00  0.00     0.031 A 
HETATM   11  C14 UNL     1      38.575  29.158  32.682  1.00  0.00     0.053 A 
HETATM   12  N3  UNL     1      38.153  28.382  33.650  1.00  0.00    -0.336 N 
HETATM   13  C17 UNL     1      39.822  29.724  32.823  1.00  0.00     0.061 A 
HETATM   14  C15 UNL     1      38.933  28.178  34.708  1.00  0.00     0.145 A 
ATOM     15  H3  UNL     1      37.236  27.939  33.593  1.00  0.00     0.168 HD
HETATM   16  S1  UNL     1      40.316  29.111  34.339  1.00  0.00    -0.050 SA
BRANCH  14  17
HETATM   17  N4  UNL     1      38.676  27.430  35.762  1.00  0.00    -0.375 N 
HETATM   18  C16 UNL     1      37.425  26.701  35.788  1.00  0.00     0.148 C 
ATOM     19  H4  UNL     1      39.338  27.367  36.536  1.00  0.00     0.161 HD
ENDBRANCH  14  17
ENDBRANCH   4   7
BRANCH   1  20
HETATM   20  C6  UNL     1      45.441  32.284  30.752  1.00  0.00     0.223 C 
HETATM   21  C7  UNL     1      45.181  33.154  29.533  1.00  0.00     0.043 C 
BRANCH  20  22
HETATM   22  C3  UNL     1      46.033  33.020  31.886  1.00  0.00     0.018 C 
BRANCH  22  23
HETATM   23  C2  UNL     1      47.582  32.988  31.877  1.00  0.00     0.002 C 
HETATM   24  C1  UNL     1      48.120  32.940  33.295  1.00  0.00     0.005 C 
ENDBRANCH  22  23
BRANCH  22  25
HETATM   25  C4  UNL     1      45.714  34.429  32.165  1.00  0.00     0.002 C 
HETATM   26  C5  UNL     1      44.847  34.798  33.304  1.00  0.00     0.005 C 
ENDBRANCH  22  25
ENDBRANCH  20  22
ENDBRANCH   1  20
TORSDOF 6
ENDMDL
MODEL 3
REMARK VINA RESULT: -7.740903587      1.079      1.750
REMARK  6 active torsions:
REMARK  status: ('A' for Active; 'I' for Inactive)
REMARK    1  A    between atoms: C2_2  and  C3_3 
REMARK    2  A    between atoms: C3_3  and  C4_4 
REMARK    3  A    between atoms: C3_3  and  C6_6 
REMARK    4  A    between atoms: C6_6  and  N1_8 
REMARK    5  A    between atoms: N2_11  and  C10_12 
REMARK    6  A    between atoms: C15_19  and  N4_20 
ROOT
HETATM    1  N1  UNL     1      44.092  32.559  31.472  1.00  0.00     0.096 N 
HETATM    2  C8  UNL     1      44.119  31.211  31.923  1.00  0.00     0.292 C 
HETATM    3  C9  UNL     1      42.768  30.538  31.631  1.00  0.00     0.153 C 
HETATM    4  N2  UNL     1      41.678  31.414  32.022  1.00  0.00    -0.376 N 
HETATM    5  C18 UNL     1      41.990  32.596  32.789  1.00  0.00     0.153 C 
HETATM    6  C19 UNL     1      43.093  33.367  32.026  1.00  0.00     0.292 C 
ENDROOT
BRANCH   4   7
HETATM    7  C10 UNL     1      40.395  31.072  31.566  1.00  0.00     0.050 A 
HETATM    8  C11 UNL     1      39.827  31.733  30.467  1.00  0.00     0.031 A 
HETATM    9  C12 UNL     1      38.572  31.343  30.081  1.00  0.00     0.005 A 
HETATM   10  C13 UNL     1      37.900  30.360  30.731  1.00  0.00     0.031 A 
HETATM   11  C14 UNL     1      38.437  29.673  31.837  1.00  0.00     0.053 A 
HETATM   12  N3  UNL     1      37.873  28.708  32.520  1.00  0.00    -0.336 N 
HETATM   13  C17 UNL     1      39.699  30.066  32.223  1.00  0.00     0.061 A 
HETATM   14  C15 UNL     1      38.530  28.159  33.537  1.00  0.00     0.145 A 
ATOM     15  H3  UNL     1      36.939  28.381  32.274  1.00  0.00     0.168 HD
HETATM   16  S1  UNL     1      40.002  29.028  33.545  1.00  0.00    -0.050 SA
BRANCH  14  17
HETATM   17  N4  UNL     1      38.124  27.182  34.323  1.00  0.00    -0.375 N 
HETATM   18  C16 UNL     1      38.521  27.222  35.716  1.00  0.00     0.148 C 
ATOM     19  H4  UNL     1      37.547  26.422  33.962  1.00  0.00     0.161 HD
ENDBRANCH  14  17
ENDBRANCH   4   7
BRANCH   1  20
HETATM   20  C6  UNL     1      45.420  33.225  31.520  1.00  0.00     0.223 C 
HETATM   21  C7  UNL     1      46.287  32.215  32.253  1.00  0.00     0.043 C 
BRANCH  20  22
HETATM   22  C3  UNL     1      45.943  33.595  30.190  1.00  0.00     0.018 C 
BRANCH  22  23
HETATM   23  C2  UNL     1      47.454  33.289  30.034  1.00  0.00     0.002 C 
HETATM   24  C1  UNL     1      48.086  34.234  29.029  1.00  0.00     0.005 C 
ENDBRANCH  22  23
BRANCH  22  25
HETATM   25  C4  UNL     1      45.353  33.088  28.941  1.00  0.00     0.002 C 
HETATM   26  C5  UNL     1      45.535  31.678  28.534  1.00  0.00     0.005 C 
ENDBRANCH  22  25
ENDBRANCH  20  22
ENDBRANCH   1  20
TORSDOF 6
ENDMDL
MODEL 4
REMARK VINA RESULT: -7.624716976      2.931      8.779
REMARK  6 active torsions:
REMARK  status: ('A' for Active; 'I' for Inactive)
REMARK    1  A    between atoms: C2_2  and  C3_3 
REMARK    2  A    between atoms: C3_3  and  C4_4 
REMARK    3  A    between atoms: C3_3  and  C6_6 
REMARK    4  A    between atoms: C6_6  and  N1_8 
REMARK    5  A    between atoms: N2_11  and  C10_12 
REMARK    6  A    between atoms: C15_19  and  N4_20 
ROOT
HETATM    1  N1  UNL     1      42.715  32.076  31.418  1.00  0.00     0.096 N 
HETATM    2  C8  UNL     1      43.331  31.829  30.161  1.00  0.00     0.292 C 
HETATM    3  C9  UNL     1      44.860  31.894  30.309  1.00  0.00     0.153 C 
HETATM    4  N2  UNL     1      45.239  33.058  31.087  1.00  0.00    -0.376 N 
HETATM    5  C18 UNL     1      44.226  34.044  31.384  1.00  0.00     0.153 C 
HETATM    6  C19 UNL     1      43.028  33.301  32.020  1.00  0.00     0.292 C 
ENDROOT
BRANCH   4   7
HETATM    7  C10 UNL     1      46.563  33.109  31.549  1.00  0.00     0.050 A 
HETATM    8  C11 UNL     1      46.862  32.840  32.893  1.00  0.00     0.031 A 
HETATM    9  C12 UNL     1      48.177  32.908  33.269  1.00  0.00     0.005 A 
HETATM   10  C13 UNL     1      49.156  33.222  32.383  1.00  0.00     0.031 A 
HETATM   11  C14 UNL     1      48.896  33.498  31.027  1.00  0.00     0.053 A 
HETATM   12  N3  UNL     1      49.769  33.798  30.098  1.00  0.00    -0.336 N 
HETATM   13  C17 UNL     1      47.572  33.428  30.651  1.00  0.00     0.061 A 
HETATM   14  C15 UNL     1      49.349  34.020  28.856  1.00  0.00     0.145 A 
ATOM     15  H3  UNL     1      50.761  33.862  30.325  1.00  0.00     0.168 HD
HETATM   16  S1  UNL     1      47.660  33.801  28.986  1.00  0.00    -0.050 SA
BRANCH  14  17
HETATM   17  N4  UNL     1      50.081  34.324  27.803  1.00  0.00    -0.375 N 
HETATM   18  C16 UNL     1      50.744  33.244  27.101  1.00  0.00     0.148 C 
ATOM     19  H4  UNL     1      50.178  35.291  27.491  1.00  0.00     0.161 HD
ENDBRANCH  14  17
ENDBRANCH   4   7
BRANCH   1  20
HETATM   20  C6  UNL     1      41.250  31.827  31.418  1.00  0.00     0.223 C 
HETATM   21  C7  UNL     1      40.892  31.872  29.942  1.00  0.00     0.043 C 
BRANCH  20  22
HETATM   22  C3  UNL     1      40.866  30.565  32.080  1.00  0.00     0.018 C 
BRANCH  22  23
HETATM   23  C2  UNL     1      40.235  30.787  33.477  1.00  0.00     0.002 C 
HETATM   24  C1  UNL     1      40.607  29.654  34.415  1.00  0.00     0.005 C 
ENDBRANCH  22  23
BRANCH  22  25
HETATM   25  C4  UNL     1      39.972  29.582  31.446  1.00  0.00     0.002 C 
HETATM   26  C5  UNL     1      38.504  29.740  31.510  1.00  0.00     0.005 C 
ENDBRANCH  22  25
ENDBRANCH  20  22
ENDBRANCH   1  20
TORSDOF 6
ENDMDL
MODEL 5
REMARK VINA RESULT: -7.594128696      1.314      1.966
REMARK  6 active torsions:
REMARK  status: ('A' for Active; 'I' for Inactive)
REMARK    1  A    between atoms: C2_2  and  C3_3 
REMARK    2  A    between atoms: C3_3  and  C4_4 
REMARK    3  A    between atoms: C3_3  and  C6_6 
REMARK    4  A    between atoms: C6_6  and  N1_8 
REMARK    5  A    between atoms: N2_11  and  C10_12 
REMARK    6  A    between atoms: C15_19  and  N4_20 
ROOT
HETATM    1  N1  UNL     1      45.414  33.228  31.208  1.00  0.00     0.096 N 
HETATM    2  C8  UNL     1      45.404  31.938  31.804  1.00  0.00     0.292 C 
HETATM    3  C9  UNL     1      44.054  31.252  31.538  1.00  0.00     0.153 C 
HETATM    4  N2  UNL     1      42.964  32.177  31.791  1.00  0.00    -0.376 N 
HETATM    5  C18 UNL     1      43.267  33.433  32.437  1.00  0.00     0.153 C 
HETATM    6  C19 UNL     1      44.408  34.104  31.635  1.00  0.00     0.292 C 
ENDROOT
BRANCH   4   7
HETATM    7  C10 UNL     1      41.693  31.802  31.330  1.00  0.00     0.050 A 
HETATM    8  C11 UNL     1      41.235  32.226  30.074  1.00  0.00     0.031 A 
HETATM    9  C12 UNL     1      39.985  31.819  29.692  1.00  0.00     0.005 A 
HETATM   10  C13 UNL     1      39.215  31.038  30.490  1.00  0.00     0.031 A 
HETATM   11  C14 UNL     1      39.640  30.592  31.757  1.00  0.00     0.053 A 
HETATM   12  N3  UNL     1      38.977  29.831  32.592  1.00  0.00    -0.336 N 
HETATM   13  C17 UNL     1      40.898  31.002  32.139  1.00  0.00     0.061 A 
HETATM   14  C15 UNL     1      39.536  29.493  33.751  1.00  0.00     0.145 A 
ATOM     15  H3  UNL     1      38.041  29.501  32.357  1.00  0.00     0.168 HD
HETATM   16  S1  UNL     1      41.055  30.273  33.675  1.00  0.00    -0.050 SA
BRANCH  14  17
HETATM   17  N4  UNL     1      39.022  28.737  34.700  1.00  0.00    -0.375 N 
HETATM   18  C16 UNL     1      38.383  27.497  34.308  1.00  0.00     0.148 C 
ATOM     19  H4  UNL     1      39.074  29.015  35.680  1.00  0.00     0.161 HD
ENDBRANCH  14  17
ENDBRANCH   4   7
BRANCH   1  20
HETATM   20  C6  UNL     1      46.749  33.881  31.232  1.00  0.00     0.223 C 
HETATM   21  C7  UNL     1      47.555  32.984  32.157  1.00  0.00     0.043 C 
BRANCH  20  22
HETATM   22  C3  UNL     1      47.352  34.040  29.894  1.00  0.00     0.018 C 
BRANCH  22  23
HETATM   23  C2  UNL     1      48.782  34.632  29.947  1.00  0.00     0.002 C 
HETATM   24  C1  UNL     1      48.841  35.947  29.193  1.00  0.00     0.005 C 
ENDBRANCH  22  23
BRANCH  22  25
HETATM   25  C4  UNL     1      47.471  32.922  28.944  1.00  0.00     0.002 C 
HETATM   26  C5  UNL     1      48.793  32.489  28.446  1.00  0.00     0.005 C 
ENDBRANCH  22  25
ENDBRANCH  20  22
ENDBRANCH   1  20
TORSDOF 6
ENDMDL
