MODEL 1
REMARK VINA RESULT: -5.484244741      0.000      0.000
REMARK  5 active torsions:
REMARK  status: ('A' for Active; 'I' for Inactive)
REMARK    1  A    between atoms: S1_2  and  C2_3 
REMARK    2  A    between atoms: N1_6  and  C4_8 
REMARK    3  A    between atoms: C4_8  and  C5_9 
REMARK    4  A    between atoms: C5_9  and  C6_10 
REMARK    5  A    between atoms: C6_10  and  N2_11 
ROOT
HETATM    1  C2  UNL     1      41.696  21.320  27.810  1.00  0.00     0.051 A 
HETATM    2  S2  UNL     1      41.478  20.951  29.458  1.00  0.00    -0.064 SA
HETATM    3  C3  UNL     1      39.823  20.937  29.909  1.00  0.00     0.084 A 
HETATM    4  N1  UNL     1      39.472  20.675  31.125  1.00  0.00    -0.383 N 
ATOM      5  H1  UNL     1      38.483  20.670  31.376  1.00  0.00     0.160 HD
HETATM    6  C9  UNL     1      38.935  21.219  28.893  1.00  0.00     0.033 A 
HETATM    7  C10 UNL     1      37.540  21.268  29.007  1.00  0.00    -0.020 A 
HETATM    8  C11 UNL     1      37.079  21.579  27.772  1.00  0.00     0.017 A 
HETATM    9  N3  UNL     1      38.103  21.720  26.917  1.00  0.00    -0.358 N 
ATOM     10  H3  UNL     1      38.024  21.953  25.927  1.00  0.00     0.166 HD
HETATM   11  C12 UNL     1      39.270  21.501  27.595  1.00  0.00     0.054 A 
HETATM   12  C13 UNL     1      40.560  21.546  27.098  1.00  0.00    -0.011 A 
HETATM   13  C14 UNL     1      40.766  21.873  25.636  1.00  0.00     0.052 C 
HETATM   14  C15 UNL     1      35.628  21.731  27.451  1.00  0.00     0.057 C 
HETATM   15  C16 UNL     1      34.772  21.810  28.661  1.00  0.00     0.006 C 
HETATM   16  C17 UNL     1      35.207  20.875  29.765  1.00  0.00     0.005 C 
HETATM   17  C18 UNL     1      36.633  21.054  30.148  1.00  0.00     0.042 C 
ENDROOT
BRANCH   4  18
HETATM   18  C4  UNL     1      40.457  20.392  32.121  1.00  0.00     0.122 C 
BRANCH  18  19
HETATM   19  C5  UNL     1      40.470  21.407  33.236  1.00  0.00     0.050 C 
BRANCH  19  20
HETATM   20  C6  UNL     1      41.759  22.164  33.290  1.00  0.00     0.273 C 
BRANCH  20  21
HETATM   21  N2  UNL     1      41.578  23.594  33.164  1.00  0.00     0.080 N 
HETATM   22  C7  UNL     1      40.438  24.075  33.885  1.00  0.00     0.309 C 
HETATM   23  C8  UNL     1      41.558  24.022  31.781  1.00  0.00     0.309 C 
ENDBRANCH  20  21
ENDBRANCH  19  20
ENDBRANCH  18  19
ENDBRANCH   4  18
BRANCH   1  24
HETATM   24  S1  UNL     1      43.336  21.397  27.093  1.00  0.00    -0.126 SA
HETATM   25  C1  UNL     1      44.614  21.432  28.362  1.00  0.00     0.096 C 
ENDBRANCH   1  24
TORSDOF 5
ENDMDL
MODEL 2
REMARK VINA RESULT: -5.399164397      3.276      6.682
REMARK  5 active torsions:
REMARK  status: ('A' for Active; 'I' for Inactive)
REMARK    1  A    between atoms: S1_2  and  C2_3 
REMARK    2  A    between atoms: N1_6  and  C4_8 
REMARK    3  A    between atoms: C4_8  and  C5_9 
REMARK    4  A    between atoms: C5_9  and  C6_10 
REMARK    5  A    between atoms: C6_10  and  N2_11 
ROOT
HETATM    1  C2  UNL     1      41.853  22.366  29.031  1.00  0.00     0.051 A 
HETATM    2  S2  UNL     1      41.094  22.753  30.505  1.00  0.00    -0.064 SA
HETATM    3  C3  UNL     1      42.209  22.858  31.804  1.00  0.00     0.084 A 
HETATM    4  N1  UNL     1      41.807  23.143  32.999  1.00  0.00    -0.383 N 
ATOM      5  H1  UNL     1      42.483  23.203  33.759  1.00  0.00     0.160 HD
HETATM    6  C9  UNL     1      43.525  22.619  31.469  1.00  0.00     0.033 A 
HETATM    7  C10 UNL     1      44.616  22.645  32.346  1.00  0.00    -0.020 A 
HETATM    8  C11 UNL     1      45.704  22.355  31.591  1.00  0.00     0.017 A 
HETATM    9  N3  UNL     1      45.342  22.155  30.316  1.00  0.00    -0.358 N 
ATOM     10  H3  UNL     1      45.972  21.923  29.548  1.00  0.00     0.166 HD
HETATM   11  C12 UNL     1      43.987  22.314  30.217  1.00  0.00     0.054 A 
HETATM   12  C13 UNL     1      43.201  22.198  29.085  1.00  0.00    -0.011 A 
HETATM   13  C14 UNL     1      43.864  21.854  27.769  1.00  0.00     0.052 C 
HETATM   14  C15 UNL     1      47.089  22.280  32.143  1.00  0.00     0.057 C 
HETATM   15  C16 UNL     1      47.123  22.251  33.627  1.00  0.00     0.006 C 
HETATM   16  C17 UNL     1      46.105  23.167  34.266  1.00  0.00     0.005 C 
HETATM   17  C18 UNL     1      44.718  22.912  33.792  1.00  0.00     0.042 C 
ENDROOT
BRANCH   4  18
HETATM   18  C4  UNL     1      40.422  23.378  33.262  1.00  0.00     0.122 C 
BRANCH  18  19
HETATM   19  C5  UNL     1      40.195  24.486  34.260  1.00  0.00     0.050 C 
BRANCH  19  20
HETATM   20  C6  UNL     1      39.209  25.495  33.763  1.00  0.00     0.273 C 
BRANCH  20  21
HETATM   21  N2  UNL     1      39.221  26.721  34.532  1.00  0.00     0.080 N 
HETATM   22  C7  UNL     1      38.400  26.650  35.703  1.00  0.00     0.309 C 
HETATM   23  C8  UNL     1      38.899  27.876  33.721  1.00  0.00     0.309 C 
ENDBRANCH  20  21
ENDBRANCH  19  20
ENDBRANCH  18  19
ENDBRANCH   4  18
BRANCH   1  24
HETATM   24  S1  UNL     1      40.902  22.197  27.522  1.00  0.00    -0.126 SA
HETATM   25  C1  UNL     1      39.542  23.377  27.460  1.00  0.00     0.096 C 
ENDBRANCH   1  24
TORSDOF 5
ENDMDL
MODEL 3
REMARK VINA RESULT: -5.306668521     13.671     16.595
REMARK  5 active torsions:
REMARK  status: ('A' for Active; 'I' for Inactive)
REMARK    1  A    between atoms: S1_2  and  C2_3 
REMARK    2  A    between atoms: N1_6  and  C4_8 
REMARK    3  A    between atoms: C4_8  and  C5_9 
REMARK    4  A    between atoms: C5_9  and  C6_10 
REMARK    5  A    between atoms: C6_10  and  N2_11 
ROOT
HETATM    1  C2  UNL     1      51.747  32.021  29.293  1.00  0.00     0.051 A 
HETATM    2  S2  UNL     1      50.728  32.649  30.502  1.00  0.00    -0.064 SA
HETATM    3  C3  UNL     1      50.086  34.184  30.081  1.00  0.00     0.084 A 
HETATM    4  N1  UNL     1      49.290  34.811  30.884  1.00  0.00    -0.383 N 
ATOM      5  H1  UNL     1      48.917  35.721  30.618  1.00  0.00     0.160 HD
HETATM    6  C9  UNL     1      50.481  34.668  28.853  1.00  0.00     0.033 A 
HETATM    7  C10 UNL     1      50.097  35.890  28.286  1.00  0.00    -0.020 A 
HETATM    8  C11 UNL     1      50.719  35.952  27.084  1.00  0.00     0.017 A 
HETATM    9  N3  UNL     1      51.454  34.848  26.886  1.00  0.00    -0.358 N 
ATOM     10  H3  UNL     1      52.019  34.649  26.060  1.00  0.00     0.166 HD
HETATM   11  C12 UNL     1      51.321  34.034  27.977  1.00  0.00     0.054 A 
HETATM   12  C13 UNL     1      51.908  32.800  28.189  1.00  0.00    -0.011 A 
HETATM   13  C14 UNL     1      52.816  32.231  27.121  1.00  0.00     0.052 C 
HETATM   14  C15 UNL     1      50.577  37.103  26.144  1.00  0.00     0.057 C 
HETATM   15  C16 UNL     1      49.946  38.291  26.772  1.00  0.00     0.006 C 
HETATM   16  C17 UNL     1      48.816  37.940  27.713  1.00  0.00     0.005 C 
HETATM   17  C18 UNL     1      49.219  36.971  28.767  1.00  0.00     0.042 C 
ENDROOT
BRANCH   4  18
HETATM   18  C4  UNL     1      48.929  34.237  32.142  1.00  0.00     0.122 C 
BRANCH  18  19
HETATM   19  C5  UNL     1      47.436  34.106  32.318  1.00  0.00     0.050 C 
BRANCH  19  20
HETATM   20  C6  UNL     1      46.921  32.805  31.790  1.00  0.00     0.273 C 
BRANCH  20  21
HETATM   21  N2  UNL     1      45.939  32.971  30.741  1.00  0.00     0.080 N 
HETATM   22  C7  UNL     1      44.871  32.020  30.825  1.00  0.00     0.309 C 
HETATM   23  C8  UNL     1      46.542  32.985  29.425  1.00  0.00     0.309 C 
ENDBRANCH  20  21
ENDBRANCH  19  20
ENDBRANCH  18  19
ENDBRANCH   4  18
BRANCH   1  24
HETATM   24  S1  UNL     1      52.543  30.429  29.495  1.00  0.00    -0.126 SA
HETATM   25  C1  UNL     1      51.563  29.101  28.772  1.00  0.00     0.096 C 
ENDBRANCH   1  24
TORSDOF 5
ENDMDL
MODEL 4
REMARK VINA RESULT: -5.258196045      1.750      2.126
REMARK  5 active torsions:
REMARK  status: ('A' for Active; 'I' for Inactive)
REMARK    1  A    between atoms: S1_2  and  C2_3 
REMARK    2  A    between atoms: N1_6  and  C4_8 
REMARK    3  A    between atoms: C4_8  and  C5_9 
REMARK    4  A    between atoms: C5_9  and  C6_10 
REMARK    5  A    between atoms: C6_10  and  N2_11 
ROOT
HETATM    1  C2  UNL     1      41.908  22.145  29.012  1.00  0.00     0.051 A 
HETATM    2  S2  UNL     1      41.150  22.497  30.495  1.00  0.00    -0.064 SA
HETATM    3  C3  UNL     1      39.442  22.360  30.402  1.00  0.00     0.084 A 
HETATM    4  N1  UNL     1      38.703  22.591  31.436  1.00  0.00    -0.383 N 
ATOM      5  H1  UNL     1      37.690  22.505  31.364  1.00  0.00     0.160 HD
HETATM    6  C9  UNL     1      38.949  21.992  29.168  1.00  0.00     0.033 A 
HETATM    7  C10 UNL     1      37.600  21.814  28.839  1.00  0.00    -0.020 A 
HETATM    8  C11 UNL     1      37.581  21.458  27.532  1.00  0.00     0.017 A 
HETATM    9  N3  UNL     1      38.831  21.409  27.048  1.00  0.00    -0.358 N 
ATOM     10  H3  UNL     1      39.090  21.166  26.092  1.00  0.00     0.166 HD
HETATM   11  C12 UNL     1      39.700  21.739  28.051  1.00  0.00     0.054 A 
HETATM   12  C13 UNL     1      41.080  21.812  27.986  1.00  0.00    -0.011 A 
HETATM   13  C14 UNL     1      41.765  21.502  26.674  1.00  0.00     0.052 C 
HETATM   14  C15 UNL     1      36.326  21.170  26.777  1.00  0.00     0.057 C 
HETATM   15  C16 UNL     1      35.102  21.602  27.499  1.00  0.00     0.006 C 
HETATM   16  C17 UNL     1      35.164  21.346  28.987  1.00  0.00     0.005 C 
HETATM   17  C18 UNL     1      36.363  21.948  29.629  1.00  0.00     0.042 C 
ENDROOT
BRANCH   4  18
HETATM   18  C4  UNL     1      39.295  22.968  32.682  1.00  0.00     0.122 C 
BRANCH  18  19
HETATM   19  C5  UNL     1      39.179  24.446  32.961  1.00  0.00     0.050 C 
BRANCH  19  20
HETATM   20  C6  UNL     1      39.770  24.815  34.285  1.00  0.00     0.273 C 
BRANCH  20  21
HETATM   21  N2  UNL     1      39.503  26.187  34.659  1.00  0.00     0.080 N 
HETATM   22  C7  UNL     1      38.466  26.303  35.639  1.00  0.00     0.309 C 
HETATM   23  C8  UNL     1      39.250  27.027  33.508  1.00  0.00     0.309 C 
ENDBRANCH  20  21
ENDBRANCH  19  20
ENDBRANCH  18  19
ENDBRANCH   4  18
BRANCH   1  24
HETATM   24  S1  UNL     1      43.691  22.218  28.850  1.00  0.00    -0.126 SA
HETATM   25  C1  UNL     1      44.516  21.314  30.172  1.00  0.00     0.096 C 
ENDBRANCH   1  24
TORSDOF 5
ENDMDL
MODEL 5
REMARK VINA RESULT: -5.250124352      5.414      8.725
REMARK  5 active torsions:
REMARK  status: ('A' for Active; 'I' for Inactive)
REMARK    1  A    between atoms: S1_2  and  C2_3 
REMARK    2  A    between atoms: N1_6  and  C4_8 
REMARK    3  A    between atoms: C4_8  and  C5_9 
REMARK    4  A    between atoms: C5_9  and  C6_10 
REMARK    5  A    between atoms: C6_10  and  N2_11 
ROOT
HETATM    1  C2  UNL     1      48.670  24.193  32.274  1.00  0.00     0.051 A 
HETATM    2  S2  UNL     1      48.387  22.902  31.202  1.00  0.00    -0.064 SA
HETATM    3  C3  UNL     1      47.030  21.958  31.663  1.00  0.00     0.084 A 
HETATM    4  N1  UNL     1      46.668  20.935  30.962  1.00  0.00    -0.383 N 
ATOM      5  H1  UNL     1      45.859  20.385  31.250  1.00  0.00     0.160 HD
HETATM    6  C9  UNL     1      46.386  22.377  32.808  1.00  0.00     0.033 A 
HETATM    7  C10 UNL     1      45.261  21.777  33.386  1.00  0.00    -0.020 A 
HETATM    8  C11 UNL     1      44.973  22.514  34.486  1.00  0.00     0.017 A 
HETATM    9  N3  UNL     1      45.850  23.520  34.611  1.00  0.00    -0.358 N 
ATOM     10  H3  UNL     1      45.852  24.219  35.354  1.00  0.00     0.166 HD
HETATM   11  C12 UNL     1      46.740  23.454  33.575  1.00  0.00     0.054 A 
HETATM   12  C13 UNL     1      47.807  24.296  33.320  1.00  0.00    -0.011 A 
HETATM   13  C14 UNL     1      48.070  25.447  34.266  1.00  0.00     0.052 C 
HETATM   14  C15 UNL     1      43.831  22.213  35.401  1.00  0.00     0.057 C 
HETATM   15  C16 UNL     1      43.237  20.873  35.167  1.00  0.00     0.006 C 
HETATM   16  C17 UNL     1      43.150  20.505  33.703  1.00  0.00     0.005 C 
HETATM   17  C18 UNL     1      44.458  20.602  33.002  1.00  0.00     0.042 C 
ENDROOT
BRANCH   4  18
HETATM   18  C4  UNL     1      47.391  20.568  29.785  1.00  0.00     0.122 C 
BRANCH  18  19
HETATM   19  C5  UNL     1      46.576  20.719  28.525  1.00  0.00     0.050 C 
BRANCH  19  20
HETATM   20  C6  UNL     1      45.107  20.625  28.793  1.00  0.00     0.273 C 
BRANCH  20  21
HETATM   21  N2  UNL     1      44.380  21.803  28.370  1.00  0.00     0.080 N 
HETATM   22  C7  UNL     1      43.725  22.471  29.454  1.00  0.00     0.309 C 
HETATM   23  C8  UNL     1      43.465  21.518  27.285  1.00  0.00     0.309 C 
ENDBRANCH  20  21
ENDBRANCH  19  20
ENDBRANCH  18  19
ENDBRANCH   4  18
BRANCH   1  24
HETATM   24  S1  UNL     1      50.033  25.326  32.010  1.00  0.00    -0.126 SA
HETATM   25  C1  UNL     1      51.622  24.479  32.070  1.00  0.00     0.096 C 
ENDBRANCH   1  24
TORSDOF 5
ENDMDL
