MODEL 1
REMARK VINA RESULT: -8.187696647      0.000      0.000
REMARK  4 active torsions:
REMARK  status: ('A' for Active; 'I' for Inactive)
REMARK    1  A    between atoms: C3_6  and  C4_7 
REMARK    2  A    between atoms: C4_7  and  N2_8 
REMARK    3  A    between atoms: N2_8  and  C6_10 
REMARK    4  A    between atoms: C9_13  and  C10_14 
ROOT
HETATM    1  C10 UNL     1      42.125  31.925  31.255  1.00  0.00     0.119 C 
HETATM    2  N3  UNL     1      42.411  32.799  32.323  1.00  0.00    -0.408 N 
ATOM      3  H3  UNL     1      42.051  32.593  33.255  1.00  0.00     0.154 HD
HETATM    4  C11 UNL     1      43.175  33.936  32.120  1.00  0.00     0.078 C 
HETATM    5  C12 UNL     1      43.565  34.396  30.777  1.00  0.00     0.029 C 
HETATM    6  C13 UNL     1      44.827  33.786  30.230  1.00  0.00    -0.012 C 
HETATM    7  C14 UNL     1      45.976  33.862  31.186  1.00  0.00     0.009 C 
HETATM    8  C15 UNL     1      45.531  33.103  32.426  1.00  0.00    -0.012 C 
HETATM    9  C16 UNL     1      44.397  33.865  33.023  1.00  0.00     0.029 C 
HETATM   10  C17 UNL     1      45.231  31.666  32.150  1.00  0.00     0.010 C 
HETATM   11  C18 UNL     1      44.552  31.380  30.870  1.00  0.00    -0.008 C 
HETATM   12  C19 UNL     1      44.660  32.367  29.782  1.00  0.00     0.010 C 
HETATM   13  C20 UNL     1      43.093  30.844  31.064  1.00  0.00     0.013 C 
HETATM   14  C21 UNL     1      43.174  29.882  32.241  1.00  0.00     0.012 C 
ENDROOT
BRANCH   1  15
HETATM   15  C9  UNL     1      40.715  31.496  31.326  1.00  0.00     0.022 A 
HETATM   16  C2  UNL     1      39.794  31.611  30.247  1.00  0.00     0.083 A 
HETATM   17  C1  UNL     1      40.035  32.264  28.945  1.00  0.00     0.079 C 
HETATM   18  O1  UNL     1      38.711  31.023  30.662  1.00  0.00    -0.242 OA
HETATM   19  N1  UNL     1      38.825  30.561  31.838  1.00  0.00    -0.263 N 
HETATM   20  C3  UNL     1      40.072  30.818  32.336  1.00  0.00     0.060 A 
ATOM     21  H1  UNL     1      38.089  30.067  32.341  1.00  0.00     0.194 HD
BRANCH  20  22
HETATM   22  C4  UNL     1      40.465  30.361  33.660  1.00  0.00     0.176 C 
BRANCH  22  23
HETATM   23  N2  UNL     1      40.039  29.039  33.989  1.00  0.00    -0.407 N 
HETATM   24  C5  UNL     1      40.155  28.140  32.888  1.00  0.00     0.144 C 
BRANCH  23  25
HETATM   25  C6  UNL     1      38.922  28.827  34.800  1.00  0.00     0.079 A 
HETATM   26  C7  UNL     1      38.318  27.502  34.951  1.00  0.00     0.027 A 
HETATM   27  C8  UNL     1      39.053  28.084  36.107  1.00  0.00     0.027 A 
ENDBRANCH  23  25
ENDBRANCH  22  23
ENDBRANCH  20  22
ENDBRANCH   1  15
TORSDOF 4
ENDMDL
MODEL 2
REMARK VINA RESULT: -7.968840762      2.909      7.192
REMARK  4 active torsions:
REMARK  status: ('A' for Active; 'I' for Inactive)
REMARK    1  A    between atoms: C3_6  and  C4_7 
REMARK    2  A    between atoms: C4_7  and  N2_8 
REMARK    3  A    between atoms: N2_8  and  C6_10 
REMARK    4  A    between atoms: C9_13  and  C10_14 
ROOT
HETATM    1  C10 UNL     1      43.833  32.600  31.939  1.00  0.00     0.119 C 
HETATM    2  N3  UNL     1      42.596  33.120  31.506  1.00  0.00    -0.408 N 
ATOM      3  H3  UNL     1      42.578  33.867  30.812  1.00  0.00     0.154 HD
HETATM    4  C11 UNL     1      41.406  32.627  32.014  1.00  0.00     0.078 C 
HETATM    5  C12 UNL     1      41.359  31.691  33.150  1.00  0.00     0.029 C 
HETATM    6  C13 UNL     1      41.485  30.237  32.788  1.00  0.00    -0.012 C 
HETATM    7  C14 UNL     1      40.546  29.820  31.700  1.00  0.00     0.009 C 
HETATM    8  C15 UNL     1      40.898  30.683  30.499  1.00  0.00    -0.012 C 
HETATM    9  C16 UNL     1      40.573  32.092  30.861  1.00  0.00     0.029 C 
HETATM   10  C17 UNL     1      42.300  30.475  30.027  1.00  0.00     0.010 C 
HETATM   11  C18 UNL     1      43.318  30.290  31.081  1.00  0.00    -0.008 C 
HETATM   12  C19 UNL     1      42.877  29.833  32.410  1.00  0.00     0.010 C 
HETATM   13  C20 UNL     1      44.341  31.474  31.153  1.00  0.00     0.013 C 
HETATM   14  C21 UNL     1      44.642  31.829  29.703  1.00  0.00     0.012 C 
ENDROOT
BRANCH   1  15
HETATM   15  C9  UNL     1      44.793  33.701  32.145  1.00  0.00     0.022 A 
HETATM   16  C2  UNL     1      44.662  34.691  33.158  1.00  0.00     0.083 A 
HETATM   17  C1  UNL     1      43.524  34.863  34.083  1.00  0.00     0.079 C 
HETATM   18  O1  UNL     1      45.751  35.397  33.086  1.00  0.00    -0.242 OA
HETATM   19  N1  UNL     1      46.537  34.990  32.177  1.00  0.00    -0.263 N 
HETATM   20  C3  UNL     1      46.005  33.912  31.528  1.00  0.00     0.060 A 
ATOM     21  H1  UNL     1      47.441  35.410  31.961  1.00  0.00     0.194 HD
BRANCH  20  22
HETATM   22  C4  UNL     1      46.729  33.239  30.460  1.00  0.00     0.176 C 
BRANCH  22  23
HETATM   23  N2  UNL     1      48.022  33.775  30.184  1.00  0.00    -0.407 N 
HETATM   24  C5  UNL     1      48.103  34.362  28.886  1.00  0.00     0.144 C 
BRANCH  23  25
HETATM   25  C6  UNL     1      49.178  33.106  30.594  1.00  0.00     0.079 A 
HETATM   26  C7  UNL     1      50.445  33.811  30.799  1.00  0.00     0.027 A 
HETATM   27  C8  UNL     1      49.718  33.293  31.991  1.00  0.00     0.027 A 
ENDBRANCH  23  25
ENDBRANCH  22  23
ENDBRANCH  20  22
ENDBRANCH   1  15
TORSDOF 4
ENDMDL
MODEL 3
REMARK VINA RESULT: -7.750150379      5.498      9.158
REMARK  4 active torsions:
REMARK  status: ('A' for Active; 'I' for Inactive)
REMARK    1  A    between atoms: C3_6  and  C4_7 
REMARK    2  A    between atoms: C4_7  and  N2_8 
REMARK    3  A    between atoms: N2_8  and  C6_10 
REMARK    4  A    between atoms: C9_13  and  C10_14 
ROOT
HETATM    1  C10 UNL     1      47.790  34.121  29.759  1.00  0.00     0.119 C 
HETATM    2  N3  UNL     1      47.071  32.972  29.373  1.00  0.00    -0.408 N 
ATOM      3  H3  UNL     1      47.572  32.163  29.005  1.00  0.00     0.154 HD
HETATM    4  C11 UNL     1      45.692  32.929  29.488  1.00  0.00     0.078 C 
HETATM    5  C12 UNL     1      44.890  34.117  29.827  1.00  0.00     0.029 C 
HETATM    6  C13 UNL     1      44.728  34.382  31.299  1.00  0.00    -0.012 C 
HETATM    7  C14 UNL     1      44.270  33.181  32.064  1.00  0.00     0.009 C 
HETATM    8  C15 UNL     1      45.338  32.121  31.845  1.00  0.00    -0.012 C 
HETATM    9  C16 UNL     1      45.318  31.769  30.397  1.00  0.00     0.029 C 
HETATM   10  C17 UNL     1      46.678  32.535  32.361  1.00  0.00     0.010 C 
HETATM   11  C18 UNL     1      47.042  33.953  32.156  1.00  0.00    -0.008 C 
HETATM   12  C19 UNL     1      45.961  34.931  31.948  1.00  0.00     0.010 C 
HETATM   13  C20 UNL     1      48.231  34.136  31.155  1.00  0.00     0.013 C 
HETATM   14  C21 UNL     1      49.215  33.024  31.495  1.00  0.00     0.012 C 
ENDROOT
BRANCH   1  15
HETATM   15  C9  UNL     1      48.844  34.407  28.768  1.00  0.00     0.022 A 
HETATM   16  C2  UNL     1      49.338  35.711  28.485  1.00  0.00     0.083 A 
HETATM   17  C1  UNL     1      48.826  36.986  29.027  1.00  0.00     0.079 C 
HETATM   18  O1  UNL     1      50.323  35.529  27.657  1.00  0.00    -0.242 OA
HETATM   19  N1  UNL     1      50.512  34.305  27.384  1.00  0.00    -0.263 N 
HETATM   20  C3  UNL     1      49.613  33.520  28.050  1.00  0.00     0.060 A 
ATOM     21  H1  UNL     1      51.235  33.955  26.755  1.00  0.00     0.194 HD
BRANCH  20  22
HETATM   22  C4  UNL     1      49.642  32.070  27.930  1.00  0.00     0.176 C 
BRANCH  22  23
HETATM   23  N2  UNL     1      50.942  31.487  28.010  1.00  0.00    -0.407 N 
HETATM   24  C5  UNL     1      51.136  30.455  27.044  1.00  0.00     0.144 C 
BRANCH  23  25
HETATM   25  C6  UNL     1      51.547  31.250  29.246  1.00  0.00     0.079 A 
HETATM   26  C7  UNL     1      52.924  30.763  29.351  1.00  0.00     0.027 A 
HETATM   27  C8  UNL     1      52.634  32.165  29.756  1.00  0.00     0.027 A 
ENDBRANCH  23  25
ENDBRANCH  22  23
ENDBRANCH  20  22
ENDBRANCH   1  15
TORSDOF 4
ENDMDL
MODEL 4
REMARK VINA RESULT: -7.663709206      3.294      5.765
REMARK  4 active torsions:
REMARK  status: ('A' for Active; 'I' for Inactive)
REMARK    1  A    between atoms: C3_6  and  C4_7 
REMARK    2  A    between atoms: C4_7  and  N2_8 
REMARK    3  A    between atoms: N2_8  and  C6_10 
REMARK    4  A    between atoms: C9_13  and  C10_14 
ROOT
HETATM    1  C10 UNL     1      39.923  28.573  33.312  1.00  0.00     0.119 C 
HETATM    2  N3  UNL     1      40.658  28.170  32.179  1.00  0.00    -0.408 N 
ATOM      3  H3  UNL     1      40.380  27.331  31.670  1.00  0.00     0.154 HD
HETATM    4  C11 UNL     1      41.754  28.900  31.752  1.00  0.00     0.078 C 
HETATM    5  C12 UNL     1      42.326  30.004  32.542  1.00  0.00     0.029 C 
HETATM    6  C13 UNL     1      41.691  31.348  32.319  1.00  0.00    -0.012 C 
HETATM    7  C14 UNL     1      41.586  31.714  30.871  1.00  0.00     0.009 C 
HETATM    8  C15 UNL     1      40.733  30.628  30.234  1.00  0.00    -0.012 C 
HETATM    9  C16 UNL     1      41.504  29.356  30.323  1.00  0.00     0.029 C 
HETATM   10  C17 UNL     1      39.357  30.558  30.811  1.00  0.00     0.010 C 
HETATM   11  C18 UNL     1      39.256  30.765  32.271  1.00  0.00    -0.008 C 
HETATM   12  C19 UNL     1      40.342  31.486  32.954  1.00  0.00     0.010 C 
HETATM   13  C20 UNL     1      38.804  29.475  33.036  1.00  0.00     0.013 C 
HETATM   14  C21 UNL     1      37.720  28.853  32.167  1.00  0.00     0.012 C 
ENDROOT
BRANCH   1  15
HETATM   15  C9  UNL     1      39.588  27.395  34.135  1.00  0.00     0.022 A 
HETATM   16  C2  UNL     1      39.050  27.470  35.450  1.00  0.00     0.083 A 
HETATM   17  C1  UNL     1      38.846  28.693  36.252  1.00  0.00     0.079 C 
HETATM   18  O1  UNL     1      38.787  26.241  35.780  1.00  0.00    -0.242 OA
HETATM   19  N1  UNL     1      39.082  25.415  34.863  1.00  0.00    -0.263 N 
HETATM   20  C3  UNL     1      39.598  26.066  33.778  1.00  0.00     0.060 A 
ATOM     21  H1  UNL     1      38.952  24.406  34.928  1.00  0.00     0.194 HD
BRANCH  20  22
HETATM   22  C4  UNL     1      39.987  25.342  32.577  1.00  0.00     0.176 C 
BRANCH  22  23
HETATM   23  N2  UNL     1      40.214  23.946  32.766  1.00  0.00    -0.407 N 
HETATM   24  C5  UNL     1      41.430  23.682  33.464  1.00  0.00     0.144 C 
BRANCH  23  25
HETATM   25  C6  UNL     1      39.907  23.027  31.760  1.00  0.00     0.079 A 
HETATM   26  C7  UNL     1      40.083  21.586  31.952  1.00  0.00     0.027 A 
HETATM   27  C8  UNL     1      38.699  22.131  31.882  1.00  0.00     0.027 A 
ENDBRANCH  23  25
ENDBRANCH  22  23
ENDBRANCH  20  22
ENDBRANCH   1  15
TORSDOF 4
ENDMDL
MODEL 5
REMARK VINA RESULT: -7.218483850      5.493      9.912
REMARK  4 active torsions:
REMARK  status: ('A' for Active; 'I' for Inactive)
REMARK    1  A    between atoms: C3_6  and  C4_7 
REMARK    2  A    between atoms: C4_7  and  N2_8 
REMARK    3  A    between atoms: N2_8  and  C6_10 
REMARK    4  A    between atoms: C9_13  and  C10_14 
ROOT
HETATM    1  C10 UNL     1      47.834  34.205  29.784  1.00  0.00     0.119 C 
HETATM    2  N3  UNL     1      47.151  33.059  29.330  1.00  0.00    -0.408 N 
ATOM      3  H3  UNL     1      47.679  32.272  28.954  1.00  0.00     0.154 HD
HETATM    4  C11 UNL     1      45.769  32.990  29.391  1.00  0.00     0.078 C 
HETATM    5  C12 UNL     1      44.934  34.151  29.741  1.00  0.00     0.029 C 
HETATM    6  C13 UNL     1      44.712  34.361  31.214  1.00  0.00    -0.012 C 
HETATM    7  C14 UNL     1      44.247  33.126  31.918  1.00  0.00     0.009 C 
HETATM    8  C15 UNL     1      45.341  32.092  31.703  1.00  0.00    -0.012 C 
HETATM    9  C16 UNL     1      45.381  31.792  30.244  1.00  0.00     0.029 C 
HETATM   10  C17 UNL     1      46.653  32.509  32.284  1.00  0.00     0.010 C 
HETATM   11  C18 UNL     1      46.999  33.939  32.143  1.00  0.00    -0.008 C 
HETATM   12  C19 UNL     1      45.910  34.906  31.928  1.00  0.00     0.010 C 
HETATM   13  C20 UNL     1      48.223  34.177  31.195  1.00  0.00     0.013 C 
HETATM   14  C21 UNL     1      49.212  33.070  31.533  1.00  0.00     0.012 C 
ENDROOT
BRANCH   1  15
HETATM   15  C9  UNL     1      48.920  34.543  28.844  1.00  0.00     0.022 A 
HETATM   16  C2  UNL     1      49.638  33.583  28.079  1.00  0.00     0.083 A 
HETATM   17  C1  UNL     1      49.515  32.114  28.166  1.00  0.00     0.079 C 
HETATM   18  O1  UNL     1      50.413  34.279  27.301  1.00  0.00    -0.242 OA
HETATM   19  N1  UNL     1      50.281  35.529  27.473  1.00  0.00    -0.263 N 
HETATM   20  C3  UNL     1      49.349  35.786  28.438  1.00  0.00     0.060 A 
ATOM     21  H1  UNL     1      50.800  36.242  26.961  1.00  0.00     0.194 HD
BRANCH  20  22
HETATM   22  C4  UNL     1      48.991  37.149  28.799  1.00  0.00     0.176 C 
BRANCH  22  23
HETATM   23  N2  UNL     1      49.325  38.135  27.822  1.00  0.00    -0.407 N 
HETATM   24  C5  UNL     1      49.641  39.397  28.408  1.00  0.00     0.144 C 
BRANCH  23  25
HETATM   25  C6  UNL     1      48.631  38.211  26.613  1.00  0.00     0.079 A 
HETATM   26  C7  UNL     1      48.653  39.419  25.785  1.00  0.00     0.027 A 
HETATM   27  C8  UNL     1      49.375  38.210  25.299  1.00  0.00     0.027 A 
ENDBRANCH  23  25
ENDBRANCH  22  23
ENDBRANCH  20  22
ENDBRANCH   1  15
TORSDOF 4
ENDMDL
