MODEL 1
REMARK VINA RESULT: -6.855681420      0.000      0.000
REMARK  5 active torsions:
REMARK  status: ('A' for Active; 'I' for Inactive)
REMARK    1  A    between atoms: C2_2  and  C4_4 
REMARK    2  A    between atoms: C4_4  and  C5_5 
REMARK    3  A    between atoms: N2_12  and  C9_13 
REMARK    4  A    between atoms: C9_13  and  C10_14 
REMARK    5  A    between atoms: C10_14  and  N3_15 
ROOT
HETATM    1  C5  UNL     1      41.491  30.791  30.506  1.00  0.00     0.085 A 
HETATM    2  N1  UNL     1      42.174  31.779  29.882  1.00  0.00    -0.348 N 
ATOM      3  H1  UNL     1      41.750  32.257  29.086  1.00  0.00     0.167 HD
HETATM    4  C6  UNL     1      43.400  32.142  30.293  1.00  0.00     0.025 A 
HETATM    5  C7  UNL     1      43.947  31.455  31.398  1.00  0.00     0.008 A 
HETATM    6  C8  UNL     1      43.232  30.449  32.019  1.00  0.00     0.113 A 
HETATM    7  S1  UNL     1      43.930  29.697  33.297  1.00  0.00    -0.059 SA
HETATM    8  N2  UNL     1      42.000  30.128  31.559  1.00  0.00    -0.325 N 
HETATM    9  C15 UNL     1      45.257  32.118  31.538  1.00  0.00     0.033 C 
HETATM   10  C16 UNL     1      45.702  32.182  30.070  1.00  0.00     0.022 C 
HETATM   11  C17 UNL     1      44.467  33.092  29.963  1.00  0.00     0.045 C 
HETATM   12  C18 UNL     1      44.878  33.579  31.339  1.00  0.00    -0.031 C 
HETATM   13  C19 UNL     1      43.723  33.986  32.220  1.00  0.00     0.016 C 
HETATM   14  C20 UNL     1      45.996  34.554  31.379  1.00  0.00     0.016 C 
ENDROOT
BRANCH   8  15
HETATM   15  C9  UNL     1      41.286  29.062  32.238  1.00  0.00     0.161 C 
BRANCH  15  16
HETATM   16  C10 UNL     1      40.689  29.494  33.555  1.00  0.00     0.292 C 
BRANCH  16  17
HETATM   17  N3  UNL     1      39.458  28.808  33.763  1.00  0.00     0.090 N 
HETATM   18  C11 UNL     1      39.297  27.586  33.051  1.00  0.00     0.272 C 
HETATM   19  C12 UNL     1      39.314  26.526  34.124  1.00  0.00     0.032 C 
HETATM   20  C13 UNL     1      38.579  27.217  35.266  1.00  0.00     0.032 C 
HETATM   21  C14 UNL     1      39.189  28.612  35.150  1.00  0.00     0.272 C 
ENDBRANCH  16  17
ENDBRANCH  15  16
ENDBRANCH   8  15
BRANCH   1  22
HETATM   22  C4  UNL     1      40.146  30.447  30.013  1.00  0.00     0.080 C 
BRANCH  22  23
HETATM   23  C2  UNL     1      39.074  31.300  30.687  1.00  0.00    -0.016 C 
HETATM   24  C1  UNL     1      38.634  32.428  29.801  1.00  0.00     0.010 C 
HETATM   25  C3  UNL     1      37.898  30.414  30.985  1.00  0.00     0.010 C 
ENDBRANCH  22  23
ENDBRANCH   1  22
TORSDOF 5
ENDMDL
MODEL 2
REMARK VINA RESULT: -6.688268301      5.049      9.746
REMARK  5 active torsions:
REMARK  status: ('A' for Active; 'I' for Inactive)
REMARK    1  A    between atoms: C2_2  and  C4_4 
REMARK    2  A    between atoms: C4_4  and  C5_5 
REMARK    3  A    between atoms: N2_12  and  C9_13 
REMARK    4  A    between atoms: C9_13  and  C10_14 
REMARK    5  A    between atoms: C10_14  and  N3_15 
ROOT
HETATM    1  C5  UNL     1      48.275  33.429  29.746  1.00  0.00     0.085 A 
HETATM    2  N1  UNL     1      46.969  33.711  29.525  1.00  0.00    -0.348 N 
ATOM      3  H1  UNL     1      46.647  33.880  28.572  1.00  0.00     0.167 HD
HETATM    4  C6  UNL     1      46.091  33.773  30.540  1.00  0.00     0.025 A 
HETATM    5  C7  UNL     1      46.581  33.533  31.841  1.00  0.00     0.008 A 
HETATM    6  C8  UNL     1      47.917  33.246  32.043  1.00  0.00     0.113 A 
HETATM    7  S1  UNL     1      48.414  32.977  33.582  1.00  0.00    -0.059 SA
HETATM    8  N2  UNL     1      48.755  33.198  30.980  1.00  0.00    -0.325 N 
HETATM    9  C15 UNL     1      45.357  33.687  32.649  1.00  0.00     0.033 C 
HETATM   10  C16 UNL     1      44.754  34.949  32.016  1.00  0.00     0.022 C 
HETATM   11  C17 UNL     1      44.669  34.027  30.789  1.00  0.00     0.045 C 
HETATM   12  C18 UNL     1      44.338  32.944  31.796  1.00  0.00    -0.031 C 
HETATM   13  C19 UNL     1      44.824  31.570  31.408  1.00  0.00     0.016 C 
HETATM   14  C20 UNL     1      42.945  32.932  32.307  1.00  0.00     0.016 C 
ENDROOT
BRANCH   8  15
HETATM   15  C9  UNL     1      50.152  32.900  31.239  1.00  0.00     0.161 C 
BRANCH  15  16
HETATM   16  C10 UNL     1      51.055  34.097  31.069  1.00  0.00     0.292 C 
BRANCH  16  17
HETATM   17  N3  UNL     1      52.401  33.656  30.923  1.00  0.00     0.090 N 
HETATM   18  C11 UNL     1      52.596  32.511  30.100  1.00  0.00     0.272 C 
HETATM   19  C12 UNL     1      53.329  33.041  28.892  1.00  0.00     0.032 C 
HETATM   20  C13 UNL     1      54.239  34.096  29.510  1.00  0.00     0.032 C 
HETATM   21  C14 UNL     1      53.264  34.714  30.510  1.00  0.00     0.272 C 
ENDBRANCH  16  17
ENDBRANCH  15  16
ENDBRANCH   8  15
BRANCH   1  22
HETATM   22  C4  UNL     1      49.185  33.367  28.589  1.00  0.00     0.080 C 
BRANCH  22  23
HETATM   23  C2  UNL     1      49.332  34.735  27.927  1.00  0.00    -0.016 C 
HETATM   24  C1  UNL     1      49.065  35.846  28.899  1.00  0.00     0.010 C 
HETATM   25  C3  UNL     1      50.740  34.851  27.415  1.00  0.00     0.010 C 
ENDBRANCH  22  23
ENDBRANCH   1  22
TORSDOF 5
ENDMDL
MODEL 3
REMARK VINA RESULT: -6.299759131      2.359      7.380
REMARK  5 active torsions:
REMARK  status: ('A' for Active; 'I' for Inactive)
REMARK    1  A    between atoms: C2_2  and  C4_4 
REMARK    2  A    between atoms: C4_4  and  C5_5 
REMARK    3  A    between atoms: N2_12  and  C9_13 
REMARK    4  A    between atoms: C9_13  and  C10_14 
REMARK    5  A    between atoms: C10_14  and  N3_15 
ROOT
HETATM    1  C5  UNL     1      43.265  33.426  31.748  1.00  0.00     0.085 A 
HETATM    2  N1  UNL     1      42.143  33.062  32.411  1.00  0.00    -0.348 N 
ATOM      3  H1  UNL     1      41.779  33.664  33.150  1.00  0.00     0.167 HD
HETATM    4  C6  UNL     1      41.499  31.922  32.111  1.00  0.00     0.025 A 
HETATM    5  C7  UNL     1      42.038  31.120  31.081  1.00  0.00     0.008 A 
HETATM    6  C8  UNL     1      43.185  31.512  30.419  1.00  0.00     0.113 A 
HETATM    7  S1  UNL     1      43.752  30.532  29.233  1.00  0.00    -0.059 SA
HETATM    8  N2  UNL     1      43.789  32.673  30.766  1.00  0.00    -0.325 N 
HETATM    9  C15 UNL     1      41.082  29.997  31.053  1.00  0.00     0.033 C 
HETATM   10  C16 UNL     1      40.913  29.729  32.555  1.00  0.00     0.022 C 
HETATM   11  C17 UNL     1      40.323  31.147  32.519  1.00  0.00     0.045 C 
HETATM   12  C18 UNL     1      39.754  30.729  31.178  1.00  0.00    -0.031 C 
HETATM   13  C19 UNL     1      39.634  31.853  30.179  1.00  0.00     0.016 C 
HETATM   14  C20 UNL     1      38.541  29.875  31.222  1.00  0.00     0.016 C 
ENDROOT
BRANCH   8  15
HETATM   15  C9  UNL     1      44.996  33.043  30.047  1.00  0.00     0.161 C 
BRANCH  15  16
HETATM   16  C10 UNL     1      46.261  32.653  30.772  1.00  0.00     0.292 C 
BRANCH  16  17
HETATM   17  N3  UNL     1      47.290  33.587  30.463  1.00  0.00     0.090 N 
HETATM   18  C11 UNL     1      48.562  33.330  31.049  1.00  0.00     0.272 C 
HETATM   19  C12 UNL     1      49.443  32.968  29.879  1.00  0.00     0.032 C 
HETATM   20  C13 UNL     1      48.921  33.897  28.788  1.00  0.00     0.032 C 
HETATM   21  C14 UNL     1      47.423  33.783  29.057  1.00  0.00     0.272 C 
ENDBRANCH  16  17
ENDBRANCH  15  16
ENDBRANCH   8  15
BRANCH   1  22
HETATM   22  C4  UNL     1      43.919  34.694  32.118  1.00  0.00     0.080 C 
BRANCH  22  23
HETATM   23  C2  UNL     1      44.639  34.574  33.460  1.00  0.00    -0.016 C 
HETATM   24  C1  UNL     1      46.079  34.979  33.347  1.00  0.00     0.010 C 
HETATM   25  C3  UNL     1      43.944  35.478  34.438  1.00  0.00     0.010 C 
ENDBRANCH  22  23
ENDBRANCH   1  22
TORSDOF 5
ENDMDL
MODEL 4
REMARK VINA RESULT: -5.834210969      3.089      5.615
REMARK  5 active torsions:
REMARK  status: ('A' for Active; 'I' for Inactive)
REMARK    1  A    between atoms: C2_2  and  C4_4 
REMARK    2  A    between atoms: C4_4  and  C5_5 
REMARK    3  A    between atoms: N2_12  and  C9_13 
REMARK    4  A    between atoms: C9_13  and  C10_14 
REMARK    5  A    between atoms: C10_14  and  N3_15 
ROOT
HETATM    1  C5  UNL     1      46.107  33.555  31.711  1.00  0.00     0.085 A 
HETATM    2  N1  UNL     1      47.103  34.468  31.627  1.00  0.00    -0.348 N 
ATOM      3  H1  UNL     1      47.268  35.104  32.408  1.00  0.00     0.167 HD
HETATM    4  C6  UNL     1      47.877  34.552  30.533  1.00  0.00     0.025 A 
HETATM    5  C7  UNL     1      47.613  33.653  29.477  1.00  0.00     0.008 A 
HETATM    6  C8  UNL     1      46.592  32.729  29.585  1.00  0.00     0.113 A 
HETATM    7  S1  UNL     1      46.345  31.716  28.320  1.00  0.00    -0.059 SA
HETATM    8  N2  UNL     1      45.845  32.693  30.714  1.00  0.00    -0.325 N 
HETATM    9  C15 UNL     1      48.638  34.047  28.492  1.00  0.00     0.033 C 
HETATM   10  C16 UNL     1      48.529  35.576  28.564  1.00  0.00     0.022 C 
HETATM   11  C17 UNL     1      49.006  35.324  30.004  1.00  0.00     0.045 C 
HETATM   12  C18 UNL     1      49.857  34.233  29.385  1.00  0.00    -0.031 C 
HETATM   13  C19 UNL     1      50.085  33.042  30.283  1.00  0.00     0.016 C 
HETATM   14  C20 UNL     1      51.099  34.680  28.707  1.00  0.00     0.016 C 
ENDROOT
BRANCH   8  15
HETATM   15  C9  UNL     1      44.779  31.710  30.782  1.00  0.00     0.161 C 
BRANCH  15  16
HETATM   16  C10 UNL     1      43.526  32.144  30.060  1.00  0.00     0.292 C 
BRANCH  16  17
HETATM   17  N3  UNL     1      42.542  31.119  30.164  1.00  0.00     0.090 N 
HETATM   18  C11 UNL     1      42.642  30.272  31.304  1.00  0.00     0.272 C 
HETATM   19  C12 UNL     1      41.426  30.615  32.129  1.00  0.00     0.032 C 
HETATM   20  C13 UNL     1      40.373  30.865  31.055  1.00  0.00     0.032 C 
HETATM   21  C14 UNL     1      41.220  31.640  30.049  1.00  0.00     0.272 C 
ENDBRANCH  16  17
ENDBRANCH  15  16
ENDBRANCH   8  15
BRANCH   1  22
HETATM   22  C4  UNL     1      45.300  33.508  32.943  1.00  0.00     0.080 C 
BRANCH  22  23
HETATM   23  C2  UNL     1      44.191  34.558  32.917  1.00  0.00    -0.016 C 
HETATM   24  C1  UNL     1      42.843  33.928  32.724  1.00  0.00     0.010 C 
HETATM   25  C3  UNL     1      44.215  35.287  34.230  1.00  0.00     0.010 C 
ENDBRANCH  22  23
ENDBRANCH   1  22
TORSDOF 5
ENDMDL
MODEL 5
REMARK VINA RESULT: -5.833972878      3.386      5.995
REMARK  5 active torsions:
REMARK  status: ('A' for Active; 'I' for Inactive)
REMARK    1  A    between atoms: C2_2  and  C4_4 
REMARK    2  A    between atoms: C4_4  and  C5_5 
REMARK    3  A    between atoms: N2_12  and  C9_13 
REMARK    4  A    between atoms: C9_13  and  C10_14 
REMARK    5  A    between atoms: C10_14  and  N3_15 
ROOT
HETATM    1  C5  UNL     1      46.595  33.757  31.621  1.00  0.00     0.085 A 
HETATM    2  N1  UNL     1      47.600  34.657  31.520  1.00  0.00    -0.348 N 
ATOM      3  H1  UNL     1      47.775  35.304  32.290  1.00  0.00     0.167 HD
HETATM    4  C6  UNL     1      48.373  34.714  30.423  1.00  0.00     0.025 A 
HETATM    5  C7  UNL     1      48.096  33.801  29.382  1.00  0.00     0.008 A 
HETATM    6  C8  UNL     1      47.064  32.891  29.508  1.00  0.00     0.113 A 
HETATM    7  S1  UNL     1      46.803  31.861  28.260  1.00  0.00    -0.059 SA
HETATM    8  N2  UNL     1      46.320  32.882  30.639  1.00  0.00    -0.325 N 
HETATM    9  C15 UNL     1      49.123  34.167  28.389  1.00  0.00     0.033 C 
HETATM   10  C16 UNL     1      49.032  35.699  28.436  1.00  0.00     0.022 C 
HETATM   11  C17 UNL     1      49.509  35.464  29.879  1.00  0.00     0.045 C 
HETATM   12  C18 UNL     1      50.346  34.354  29.275  1.00  0.00    -0.031 C 
HETATM   13  C19 UNL     1      50.563  33.175  30.192  1.00  0.00     0.016 C 
HETATM   14  C20 UNL     1      51.591  34.776  28.588  1.00  0.00     0.016 C 
ENDROOT
BRANCH   8  15
HETATM   15  C9  UNL     1      45.242  31.913  30.725  1.00  0.00     0.161 C 
BRANCH  15  16
HETATM   16  C10 UNL     1      43.962  32.391  30.085  1.00  0.00     0.292 C 
BRANCH  16  17
HETATM   17  N3  UNL     1      42.852  31.942  30.856  1.00  0.00     0.090 N 
HETATM   18  C11 UNL     1      41.828  31.263  30.137  1.00  0.00     0.272 C 
HETATM   19  C12 UNL     1      41.909  29.839  30.631  1.00  0.00     0.032 C 
HETATM   20  C13 UNL     1      42.251  30.033  32.104  1.00  0.00     0.032 C 
HETATM   21  C14 UNL     1      43.265  31.167  31.979  1.00  0.00     0.272 C 
ENDBRANCH  16  17
ENDBRANCH  15  16
ENDBRANCH   8  15
BRANCH   1  22
HETATM   22  C4  UNL     1      45.789  33.739  32.855  1.00  0.00     0.080 C 
BRANCH  22  23
HETATM   23  C2  UNL     1      44.942  35.003  32.980  1.00  0.00    -0.016 C 
HETATM   24  C1  UNL     1      44.034  35.173  31.798  1.00  0.00     0.010 C 
HETATM   25  C3  UNL     1      44.115  34.883  34.229  1.00  0.00     0.010 C 
ENDBRANCH  22  23
ENDBRANCH   1  22
TORSDOF 5
ENDMDL
