MODEL 1
REMARK VINA RESULT: -6.865409635      0.000      0.000
REMARK  7 active torsions:
REMARK  status: ('A' for Active; 'I' for Inactive)
REMARK    1  A    between atoms: N1_2  and  C4_5 
REMARK    2  A    between atoms: C4_5  and  C5_6 
REMARK       I    between atoms: C5_6  and  N2_8 
REMARK    3  A    between atoms: C8_12  and  C9_13 
REMARK    4  A    between atoms: C9_13  and  C10_14 
REMARK    5  A    between atoms: C11_15  and  S1_16 
REMARK    6  A    between atoms: S1_16  and  C12_17 
REMARK    7  A    between atoms: C13_18  and  C14_19 
ROOT
HETATM    1  C14 UNL     1      11.640 -10.218  23.409  1.00  0.00    -0.066 C 
HETATM    2  C15 UNL     1      11.816  -9.125  23.901  1.00  0.00    -0.019 C 
HETATM    3 BR1  UNL     1      12.078  -7.403  24.646  1.00  0.00     0.011 Br
ENDROOT
BRANCH   1   4
HETATM    4  C13 UNL     1      11.422 -11.514  22.838  1.00  0.00     0.072 C 
HETATM    5  C12 UNL     1      12.054 -11.856  21.716  1.00  0.00     0.058 C 
BRANCH   5   6
HETATM    6  S1  UNL     1      13.172 -10.721  20.912  1.00  0.00    -0.113 SA
BRANCH   6   7
HETATM    7  C11 UNL     1      14.508 -11.582  20.115  1.00  0.00     0.046 C 
HETATM    8  C10 UNL     1      15.734 -11.114  20.198  1.00  0.00    -0.013 C 
BRANCH   8   9
HETATM    9  C9  UNL     1      16.902 -11.780  19.556  1.00  0.00     0.086 C 
BRANCH   9  10
HETATM   10  C8  UNL     1      17.666 -12.560  20.568  1.00  0.00     0.033 A 
HETATM   11  C7  UNL     1      19.024 -12.493  20.862  1.00  0.00     0.076 A 
HETATM   12  C6  UNL     1      19.308 -13.387  21.863  1.00  0.00     0.124 A 
HETATM   13  N2  UNL     1      20.457 -13.587  22.378  1.00  0.00    -0.311 N 
HETATM   14  N4  UNL     1      18.150 -13.981  22.168  1.00  0.00    -0.285 N 
HETATM   15  C5  UNL     1      20.756 -14.494  23.396  1.00  0.00     0.249 C 
ATOM     16  H2  UNL     1      21.230 -13.033  22.012  1.00  0.00     0.170 HD
HETATM   17  O1  UNL     1      21.434 -15.516  23.133  1.00  0.00    -0.271 OA
HETATM   18  N3  UNL     1      17.174 -13.495  21.404  1.00  0.00    -0.303 N 
ATOM     19  H4  UNL     1      18.032 -14.701  22.881  1.00  0.00     0.188 HD
ATOM     20  H3  UNL     1      16.198 -13.787  21.445  1.00  0.00     0.186 HD
BRANCH  15  21
HETATM   21  C4  UNL     1      20.305 -14.304  24.795  1.00  0.00     0.338 C 
BRANCH  21  22
HETATM   22  N1  UNL     1      21.308 -13.654  25.598  1.00  0.00    -0.070 N 
HETATM   23  C1  UNL     1      22.347 -13.033  24.831  1.00  0.00     0.272 C 
HETATM   24  C2  UNL     1      21.861 -14.687  26.485  1.00  0.00     0.272 C 
HETATM   25  C3  UNL     1      20.708 -12.660  26.466  1.00  0.00     0.272 C 
ENDBRANCH  21  22
ENDBRANCH  15  21
ENDBRANCH   9  10
ENDBRANCH   8   9
ENDBRANCH   6   7
ENDBRANCH   5   6
ENDBRANCH   1   4
TORSDOF 7
ENDMDL
MODEL 2
REMARK VINA RESULT: -6.629867087      1.447      1.803
REMARK  7 active torsions:
REMARK  status: ('A' for Active; 'I' for Inactive)
REMARK    1  A    between atoms: N1_2  and  C4_5 
REMARK    2  A    between atoms: C4_5  and  C5_6 
REMARK       I    between atoms: C5_6  and  N2_8 
REMARK    3  A    between atoms: C8_12  and  C9_13 
REMARK    4  A    between atoms: C9_13  and  C10_14 
REMARK    5  A    between atoms: C11_15  and  S1_16 
REMARK    6  A    between atoms: S1_16  and  C12_17 
REMARK    7  A    between atoms: C13_18  and  C14_19 
ROOT
HETATM    1  C14 UNL     1      11.766 -10.248  23.203  1.00  0.00    -0.066 C 
HETATM    2  C15 UNL     1      11.896  -9.171  23.742  1.00  0.00    -0.019 C 
HETATM    3 BR1  UNL     1      12.072  -7.481  24.578  1.00  0.00     0.011 Br
ENDROOT
BRANCH   1   4
HETATM    4  C13 UNL     1      11.612 -11.529  22.578  1.00  0.00     0.072 C 
HETATM    5  C12 UNL     1      12.452 -11.898  21.613  1.00  0.00     0.058 C 
BRANCH   5   6
HETATM    6  S1  UNL     1      13.772 -10.818  21.086  1.00  0.00    -0.113 SA
BRANCH   6   7
HETATM    7  C11 UNL     1      15.045 -11.719  20.232  1.00  0.00     0.046 C 
HETATM    8  C10 UNL     1      16.276 -11.259  20.214  1.00  0.00    -0.013 C 
BRANCH   8   9
HETATM    9  C9  UNL     1      17.394 -11.958  19.519  1.00  0.00     0.086 C 
BRANCH   9  10
HETATM   10  C8  UNL     1      18.426 -12.380  20.506  1.00  0.00     0.033 A 
HETATM   11  C7  UNL     1      18.303 -12.490  21.887  1.00  0.00     0.076 A 
HETATM   12  C6  UNL     1      19.499 -12.912  22.409  1.00  0.00     0.124 A 
HETATM   13  N2  UNL     1      19.742 -13.119  23.644  1.00  0.00    -0.311 N 
HETATM   14  N4  UNL     1      20.328 -13.054  21.370  1.00  0.00    -0.285 N 
HETATM   15  C5  UNL     1      20.955 -13.548  24.185  1.00  0.00     0.249 C 
ATOM     16  H2  UNL     1      18.977 -12.955  24.298  1.00  0.00     0.170 HD
HETATM   17  O1  UNL     1      21.640 -12.752  24.870  1.00  0.00    -0.271 OA
HETATM   18  N3  UNL     1      19.697 -12.740  20.239  1.00  0.00    -0.303 N 
ATOM     19  H4  UNL     1      21.299 -13.358  21.433  1.00  0.00     0.188 HD
ATOM     20  H3  UNL     1      20.113 -12.767  19.309  1.00  0.00     0.186 HD
BRANCH  15  21
HETATM   21  C4  UNL     1      21.480 -14.919  23.985  1.00  0.00     0.338 C 
BRANCH  21  22
HETATM   22  N1  UNL     1      21.089 -15.803  25.052  1.00  0.00    -0.070 N 
HETATM   23  C1  UNL     1      21.827 -15.605  26.265  1.00  0.00     0.272 C 
HETATM   24  C2  UNL     1      21.273 -17.170  24.546  1.00  0.00     0.272 C 
HETATM   25  C3  UNL     1      19.673 -15.669  25.339  1.00  0.00     0.272 C 
ENDBRANCH  21  22
ENDBRANCH  15  21
ENDBRANCH   9  10
ENDBRANCH   8   9
ENDBRANCH   6   7
ENDBRANCH   5   6
ENDBRANCH   1   4
TORSDOF 7
ENDMDL
MODEL 3
REMARK VINA RESULT: -6.599281347      4.301      7.597
REMARK  7 active torsions:
REMARK  status: ('A' for Active; 'I' for Inactive)
REMARK    1  A    between atoms: N1_2  and  C4_5 
REMARK    2  A    between atoms: C4_5  and  C5_6 
REMARK       I    between atoms: C5_6  and  N2_8 
REMARK    3  A    between atoms: C8_12  and  C9_13 
REMARK    4  A    between atoms: C9_13  and  C10_14 
REMARK    5  A    between atoms: C11_15  and  S1_16 
REMARK    6  A    between atoms: S1_16  and  C12_17 
REMARK    7  A    between atoms: C13_18  and  C14_19 
ROOT
HETATM    1  C14 UNL     1      18.714 -14.453  25.080  1.00  0.00    -0.066 C 
HETATM    2  C15 UNL     1      19.532 -13.648  25.468  1.00  0.00    -0.019 C 
HETATM    3 BR1  UNL     1      20.821 -12.386  26.045  1.00  0.00     0.011 Br
ENDROOT
BRANCH   1   4
HETATM    4  C13 UNL     1      17.735 -15.395  24.625  1.00  0.00     0.072 C 
HETATM    5  C12 UNL     1      18.004 -16.172  23.577  1.00  0.00     0.058 C 
BRANCH   5   6
HETATM    6  S1  UNL     1      19.571 -16.058  22.731  1.00  0.00    -0.113 SA
BRANCH   6   7
HETATM    7  C11 UNL     1      19.499 -14.897  21.387  1.00  0.00     0.046 C 
HETATM    8  C10 UNL     1      19.809 -13.635  21.591  1.00  0.00    -0.013 C 
BRANCH   8   9
HETATM    9  C9  UNL     1      19.771 -12.606  20.514  1.00  0.00     0.086 C 
BRANCH   9  10
HETATM   10  C8  UNL     1      18.395 -12.054  20.382  1.00  0.00     0.033 A 
HETATM   11  C7  UNL     1      17.321 -12.576  19.668  1.00  0.00     0.076 A 
HETATM   12  C6  UNL     1      16.240 -11.746  19.818  1.00  0.00     0.124 A 
HETATM   13  N2  UNL     1      15.088 -11.922  19.300  1.00  0.00    -0.311 N 
HETATM   14  N4  UNL     1      16.648 -10.744  20.603  1.00  0.00    -0.285 N 
HETATM   15  C5  UNL     1      13.982 -11.083  19.446  1.00  0.00     0.249 C 
ATOM     16  H2  UNL     1      14.963 -12.754  18.724  1.00  0.00     0.170 HD
HETATM   17  O1  UNL     1      13.585 -10.410  18.465  1.00  0.00    -0.271 OA
HETATM   18  N3  UNL     1      17.925 -10.921  20.940  1.00  0.00    -0.303 N 
ATOM     19  H4  UNL     1      16.068  -9.959  20.900  1.00  0.00     0.188 HD
ATOM     20  H3  UNL     1      18.466 -10.293  21.533  1.00  0.00     0.186 HD
BRANCH  15  21
HETATM   21  C4  UNL     1      13.244 -10.948  20.723  1.00  0.00     0.338 C 
BRANCH  21  22
HETATM   22  N1  UNL     1      12.832 -12.226  21.242  1.00  0.00    -0.070 N 
HETATM   23  C1  UNL     1      12.453 -13.166  20.227  1.00  0.00     0.272 C 
HETATM   24  C2  UNL     1      11.710 -11.960  22.153  1.00  0.00     0.272 C 
HETATM   25  C3  UNL     1      13.879 -12.813  22.056  1.00  0.00     0.272 C 
ENDBRANCH  21  22
ENDBRANCH  15  21
ENDBRANCH   9  10
ENDBRANCH   8   9
ENDBRANCH   6   7
ENDBRANCH   5   6
ENDBRANCH   1   4
TORSDOF 7
ENDMDL
MODEL 4
REMARK VINA RESULT: -6.560278948      4.172      7.692
REMARK  7 active torsions:
REMARK  status: ('A' for Active; 'I' for Inactive)
REMARK    1  A    between atoms: N1_2  and  C4_5 
REMARK    2  A    between atoms: C4_5  and  C5_6 
REMARK       I    between atoms: C5_6  and  N2_8 
REMARK    3  A    between atoms: C8_12  and  C9_13 
REMARK    4  A    between atoms: C9_13  and  C10_14 
REMARK    5  A    between atoms: C11_15  and  S1_16 
REMARK    6  A    between atoms: S1_16  and  C12_17 
REMARK    7  A    between atoms: C13_18  and  C14_19 
ROOT
HETATM    1  C14 UNL     1      18.596 -14.337  25.435  1.00  0.00    -0.066 C 
HETATM    2  C15 UNL     1      19.498 -13.540  25.580  1.00  0.00    -0.019 C 
HETATM    3 BR1  UNL     1      20.927 -12.316  25.799  1.00  0.00     0.011 Br
ENDROOT
BRANCH   1   4
HETATM    4  C13 UNL     1      17.526 -15.271  25.251  1.00  0.00     0.072 C 
HETATM    5  C12 UNL     1      17.669 -16.277  24.389  1.00  0.00     0.058 C 
BRANCH   5   6
HETATM    6  S1  UNL     1      19.179 -16.479  23.460  1.00  0.00    -0.113 SA
BRANCH   6   7
HETATM    7  C11 UNL     1      19.150 -15.523  21.961  1.00  0.00     0.046 C 
HETATM    8  C10 UNL     1      19.662 -14.312  21.944  1.00  0.00    -0.013 C 
BRANCH   8   9
HETATM    9  C9  UNL     1      19.674 -13.453  20.726  1.00  0.00     0.086 C 
BRANCH   9  10
HETATM   10  C8  UNL     1      18.448 -12.609  20.684  1.00  0.00     0.033 A 
HETATM   11  C7  UNL     1      17.130 -13.012  20.502  1.00  0.00     0.076 A 
HETATM   12  C6  UNL     1      16.317 -11.908  20.531  1.00  0.00     0.124 A 
HETATM   13  N2  UNL     1      15.049 -11.912  20.397  1.00  0.00    -0.311 N 
HETATM   14  N4  UNL     1      17.124 -10.859  20.724  1.00  0.00    -0.285 N 
HETATM   15  C5  UNL     1      14.214 -10.794  20.424  1.00  0.00     0.249 C 
ATOM     16  H2  UNL     1      14.603 -12.818  20.256  1.00  0.00     0.170 HD
HETATM   17  O1  UNL     1      13.656 -10.416  19.366  1.00  0.00    -0.271 OA
HETATM   18  N3  UNL     1      18.388 -11.269  20.815  1.00  0.00    -0.303 N 
ATOM     19  H4  UNL     1      16.816  -9.889  20.792  1.00  0.00     0.188 HD
ATOM     20  H3  UNL     1      19.192 -10.659  20.963  1.00  0.00     0.186 HD
BRANCH  15  21
HETATM   21  C4  UNL     1      13.951 -10.021  21.660  1.00  0.00     0.338 C 
BRANCH  21  22
HETATM   22  N1  UNL     1      12.564 -10.082  22.044  1.00  0.00    -0.070 N 
HETATM   23  C1  UNL     1      12.009 -11.402  21.995  1.00  0.00     0.272 C 
HETATM   24  C2  UNL     1      11.844  -9.178  21.136  1.00  0.00     0.272 C 
HETATM   25  C3  UNL     1      12.376  -9.543  23.378  1.00  0.00     0.272 C 
ENDBRANCH  21  22
ENDBRANCH  15  21
ENDBRANCH   9  10
ENDBRANCH   8   9
ENDBRANCH   6   7
ENDBRANCH   5   6
ENDBRANCH   1   4
TORSDOF 7
ENDMDL
MODEL 5
REMARK VINA RESULT: -6.459799375      4.574      8.091
REMARK  7 active torsions:
REMARK  status: ('A' for Active; 'I' for Inactive)
REMARK    1  A    between atoms: N1_2  and  C4_5 
REMARK    2  A    between atoms: C4_5  and  C5_6 
REMARK       I    between atoms: C5_6  and  N2_8 
REMARK    3  A    between atoms: C8_12  and  C9_13 
REMARK    4  A    between atoms: C9_13  and  C10_14 
REMARK    5  A    between atoms: C11_15  and  S1_16 
REMARK    6  A    between atoms: S1_16  and  C12_17 
REMARK    7  A    between atoms: C13_18  and  C14_19 
ROOT
HETATM    1  C14 UNL     1      21.276 -13.028  25.143  1.00  0.00    -0.066 C 
HETATM    2  C15 UNL     1      22.390 -13.017  24.667  1.00  0.00    -0.019 C 
HETATM    3 BR1  UNL     1      24.132 -13.029  23.923  1.00  0.00     0.011 Br
ENDROOT
BRANCH   1   4
HETATM    4  C13 UNL     1      19.953 -13.036  25.691  1.00  0.00     0.072 C 
HETATM    5  C12 UNL     1      19.030 -13.850  25.180  1.00  0.00     0.058 C 
BRANCH   5   6
HETATM    6  S1  UNL     1      19.422 -14.935  23.818  1.00  0.00    -0.113 SA
BRANCH   6   7
HETATM    7  C11 UNL     1      19.124 -14.146  22.253  1.00  0.00     0.046 C 
HETATM    8  C10 UNL     1      19.981 -13.264  21.788  1.00  0.00    -0.013 C 
BRANCH   8   9
HETATM    9  C9  UNL     1      19.798 -12.562  20.487  1.00  0.00     0.086 C 
BRANCH   9  10
HETATM   10  C8  UNL     1      18.413 -12.026  20.385  1.00  0.00     0.033 A 
HETATM   11  C7  UNL     1      17.344 -12.532  19.653  1.00  0.00     0.076 A 
HETATM   12  C6  UNL     1      16.251 -11.727  19.844  1.00  0.00     0.124 A 
HETATM   13  N2  UNL     1      15.100 -11.897  19.323  1.00  0.00    -0.311 N 
HETATM   14  N4  UNL     1      16.647 -10.754  20.671  1.00  0.00    -0.285 N 
HETATM   15  C5  UNL     1      13.982 -11.084  19.510  1.00  0.00     0.249 C 
ATOM     16  H2  UNL     1      14.985 -12.705  18.711  1.00  0.00     0.170 HD
HETATM   17  O1  UNL     1      13.569 -10.374  18.562  1.00  0.00    -0.271 OA
HETATM   18  N3  UNL     1      17.928 -10.926  20.995  1.00  0.00    -0.303 N 
ATOM     19  H4  UNL     1      16.056  -9.993  21.005  1.00  0.00     0.188 HD
ATOM     20  H3  UNL     1      18.463 -10.317  21.613  1.00  0.00     0.186 HD
BRANCH  15  21
HETATM   21  C4  UNL     1      13.247 -11.016  20.795  1.00  0.00     0.338 C 
BRANCH  21  22
HETATM   22  N1  UNL     1      12.825 -12.319  21.240  1.00  0.00    -0.070 N 
HETATM   23  C1  UNL     1      12.455 -13.201  20.172  1.00  0.00     0.272 C 
HETATM   24  C2  UNL     1      11.693 -12.099  22.151  1.00  0.00     0.272 C 
HETATM   25  C3  UNL     1      13.861 -12.953  22.033  1.00  0.00     0.272 C 
ENDBRANCH  21  22
ENDBRANCH  15  21
ENDBRANCH   9  10
ENDBRANCH   8   9
ENDBRANCH   6   7
ENDBRANCH   5   6
ENDBRANCH   1   4
TORSDOF 7
ENDMDL
