MODEL 1
REMARK VINA RESULT: -7.445233762      0.000      0.000
REMARK  8 active torsions:
REMARK  status: ('A' for Active; 'I' for Inactive)
REMARK    1  A    between atoms: C3_5  and  N2_6 
REMARK       I    between atoms: N2_6  and  C4_8 
REMARK    2  A    between atoms: C4_8  and  C5_10 
REMARK    3  A    between atoms: C5_10  and  C6_11 
REMARK    4  A    between atoms: C6_11  and  C7_12 
REMARK    5  A    between atoms: C7_12  and  N3_13 
REMARK    6  A    between atoms: N3_13  and  C10_16 
REMARK    7  A    between atoms: C10_16  and  C11_17 
REMARK    8  A    between atoms: C11_17  and  C12_18 
ROOT
HETATM    1  C12 UNL     1      12.616  -9.681  22.648  1.00  0.00    -0.092 C 
HETATM    2  C13 UNL     1      12.399  -8.788  23.412  1.00  0.00    -0.024 C 
HETATM    3 BR1  UNL     1      12.025  -7.384  24.612  1.00  0.00     0.010 Br
ENDROOT
BRANCH   1   4
HETATM    4  C11 UNL     1      12.863 -10.790  21.719  1.00  0.00     0.122 C 
BRANCH   4   5
HETATM    5  C10 UNL     1      14.305 -10.717  21.289  1.00  0.00     0.248 C 
BRANCH   5   6
HETATM    6  N3  UNL     1      14.794 -11.966  20.767  1.00  0.00    -0.074 N 
HETATM    7  C8  UNL     1      13.909 -13.014  21.292  1.00  0.00     0.272 C 
HETATM    8  C9  UNL     1      14.740 -12.054  19.337  1.00  0.00     0.272 C 
BRANCH   6   9
HETATM    9  C7  UNL     1      16.127 -12.217  21.293  1.00  0.00     0.237 C 
BRANCH   9  10
HETATM   10  C6  UNL     1      17.115 -12.453  20.203  1.00  0.00     0.037 C 
BRANCH  10  11
HETATM   11  C5  UNL     1      18.289 -11.544  20.207  1.00  0.00     0.105 C 
BRANCH  11  12
HETATM   12  C4  UNL     1      19.601 -12.183  20.294  1.00  0.00     0.235 C 
HETATM   13  N2  UNL     1      19.687 -13.442  20.948  1.00  0.00    -0.159 N 
ATOM     14  H2  UNL     1      19.545 -14.315  20.440  1.00  0.00     0.187 HD
HETATM   15  O1  UNL     1      20.669 -11.710  19.836  1.00  0.00    -0.273 OA
BRANCH  13  16
HETATM   16  C3  UNL     1      19.955 -13.434  22.225  1.00  0.00     0.688 A 
HETATM   17  N1  UNL     1      19.005 -13.750  23.121  1.00  0.00    -0.195 N 
HETATM   18  C2  UNL     1      19.214 -13.762  24.449  1.00  0.00     0.034 A 
ATOM     19  H1  UNL     1      18.077 -13.994  22.776  1.00  0.00     0.184 HD
HETATM   20  C1  UNL     1      18.106 -14.123  25.354  1.00  0.00     0.069 C 
HETATM   21  C15 UNL     1      20.442 -13.439  24.941  1.00  0.00     0.029 A 
HETATM   22  C14 UNL     1      21.431 -13.112  24.038  1.00  0.00     0.267 A 
HETATM   23  C16 UNL     1      20.722 -13.436  26.378  1.00  0.00     0.056 C 
HETATM   24  N4  UNL     1      21.174 -13.114  22.699  1.00  0.00    -0.155 N 
HETATM   25  O2  UNL     1      22.570 -12.813  24.465  1.00  0.00    -0.267 OA
ATOM     26  H4  UNL     1      21.917 -12.869  22.046  1.00  0.00     0.187 HD
ENDBRANCH  13  16
ENDBRANCH  11  12
ENDBRANCH  10  11
ENDBRANCH   9  10
ENDBRANCH   6   9
ENDBRANCH   5   6
ENDBRANCH   4   5
ENDBRANCH   1   4
TORSDOF 8
ENDMDL
MODEL 2
REMARK VINA RESULT: -7.432717038      0.974      1.706
REMARK  8 active torsions:
REMARK  status: ('A' for Active; 'I' for Inactive)
REMARK    1  A    between atoms: C3_5  and  N2_6 
REMARK       I    between atoms: N2_6  and  C4_8 
REMARK    2  A    between atoms: C4_8  and  C5_10 
REMARK    3  A    between atoms: C5_10  and  C6_11 
REMARK    4  A    between atoms: C6_11  and  C7_12 
REMARK    5  A    between atoms: C7_12  and  N3_13 
REMARK    6  A    between atoms: N3_13  and  C10_16 
REMARK    7  A    between atoms: C10_16  and  C11_17 
REMARK    8  A    between atoms: C11_17  and  C12_18 
ROOT
HETATM    1  C12 UNL     1      12.494  -9.756  22.743  1.00  0.00    -0.092 C 
HETATM    2  C13 UNL     1      12.301  -8.839  23.486  1.00  0.00    -0.024 C 
HETATM    3 BR1  UNL     1      12.026  -7.382  24.648  1.00  0.00     0.010 Br
ENDROOT
BRANCH   1   4
HETATM    4  C11 UNL     1      12.741 -10.866  21.815  1.00  0.00     0.122 C 
BRANCH   4   5
HETATM    5  C10 UNL     1      14.167 -10.757  21.339  1.00  0.00     0.248 C 
BRANCH   5   6
HETATM    6  N3  UNL     1      14.680 -12.002  20.830  1.00  0.00    -0.074 N 
HETATM    7  C8  UNL     1      13.819 -13.062  21.371  1.00  0.00     0.272 C 
HETATM    8  C9  UNL     1      14.621 -12.108  19.401  1.00  0.00     0.272 C 
BRANCH   6   9
HETATM    9  C7  UNL     1      16.020 -12.219  21.352  1.00  0.00     0.237 C 
BRANCH   9  10
HETATM   10  C6  UNL     1      17.013 -12.414  20.259  1.00  0.00     0.037 C 
BRANCH  10  11
HETATM   11  C5  UNL     1      18.198 -11.520  20.314  1.00  0.00     0.105 C 
BRANCH  11  12
HETATM   12  C4  UNL     1      19.503 -12.177  20.358  1.00  0.00     0.235 C 
HETATM   13  N2  UNL     1      19.591 -13.439  21.008  1.00  0.00    -0.159 N 
ATOM     14  H2  UNL     1      19.421 -14.309  20.504  1.00  0.00     0.187 HD
HETATM   15  O1  UNL     1      20.562 -11.718  19.868  1.00  0.00    -0.273 OA
BRANCH  13  16
HETATM   16  C3  UNL     1      19.899 -13.436  22.276  1.00  0.00     0.688 A 
HETATM   17  N1  UNL     1      21.167 -13.229  22.668  1.00  0.00    -0.195 N 
HETATM   18  C2  UNL     1      21.552 -13.212  23.956  1.00  0.00     0.034 A 
ATOM     19  H1  UNL     1      21.876 -13.076  21.950  1.00  0.00     0.184 HD
HETATM   20  C1  UNL     1      22.970 -12.976  24.286  1.00  0.00     0.069 C 
HETATM   21  C15 UNL     1      20.629 -13.415  24.937  1.00  0.00     0.029 A 
HETATM   22  C14 UNL     1      19.322 -13.629  24.557  1.00  0.00     0.267 A 
HETATM   23  C16 UNL     1      20.996 -13.407  26.355  1.00  0.00     0.056 C 
HETATM   24  N4  UNL     1      18.978 -13.636  23.238  1.00  0.00    -0.155 N 
HETATM   25  O2  UNL     1      18.454 -13.817  25.440  1.00  0.00    -0.267 OA
ATOM     26  H4  UNL     1      18.006 -13.796  22.974  1.00  0.00     0.187 HD
ENDBRANCH  13  16
ENDBRANCH  11  12
ENDBRANCH  10  11
ENDBRANCH   9  10
ENDBRANCH   6   9
ENDBRANCH   5   6
ENDBRANCH   4   5
ENDBRANCH   1   4
TORSDOF 8
ENDMDL
MODEL 3
REMARK VINA RESULT: -7.125760535      3.994      7.246
REMARK  8 active torsions:
REMARK  status: ('A' for Active; 'I' for Inactive)
REMARK    1  A    between atoms: C3_5  and  N2_6 
REMARK       I    between atoms: N2_6  and  C4_8 
REMARK    2  A    between atoms: C4_8  and  C5_10 
REMARK    3  A    between atoms: C5_10  and  C6_11 
REMARK    4  A    between atoms: C6_11  and  C7_12 
REMARK    5  A    between atoms: C7_12  and  N3_13 
REMARK    6  A    between atoms: N3_13  and  C10_16 
REMARK    7  A    between atoms: C10_16  and  C11_17 
REMARK    8  A    between atoms: C11_17  and  C12_18 
ROOT
HETATM    1  C12 UNL     1      16.920 -11.692  19.435  1.00  0.00    -0.092 C 
HETATM    2  C13 UNL     1      16.285 -11.758  18.425  1.00  0.00    -0.024 C 
HETATM    3 BR1  UNL     1      15.257 -11.860  16.849  1.00  0.00     0.010 Br
ENDROOT
BRANCH   1   4
HETATM    4  C11 UNL     1      17.683 -11.593  20.685  1.00  0.00     0.122 C 
BRANCH   4   5
HETATM    5  C10 UNL     1      16.941 -12.373  21.740  1.00  0.00     0.248 C 
BRANCH   5   6
HETATM    6  N3  UNL     1      17.639 -13.566  22.143  1.00  0.00    -0.074 N 
HETATM    7  C8  UNL     1      19.064 -13.325  21.883  1.00  0.00     0.272 C 
HETATM    8  C9  UNL     1      17.516 -13.861  23.541  1.00  0.00     0.272 C 
BRANCH   6   9
HETATM    9  C7  UNL     1      17.222 -14.675  21.299  1.00  0.00     0.237 C 
BRANCH   9  10
HETATM   10  C6  UNL     1      15.839 -15.124  21.621  1.00  0.00     0.037 C 
BRANCH  10  11
HETATM   11  C5  UNL     1      14.856 -14.989  20.516  1.00  0.00     0.105 C 
BRANCH  11  12
HETATM   12  C4  UNL     1      13.449 -14.922  20.907  1.00  0.00     0.235 C 
HETATM   13  N2  UNL     1      12.655 -13.876  20.364  1.00  0.00    -0.159 N 
ATOM     14  H2  UNL     1      12.170 -13.985  19.473  1.00  0.00     0.187 HD
HETATM   15  O1  UNL     1      12.877 -15.718  21.690  1.00  0.00    -0.273 OA
BRANCH  13  16
HETATM   16  C3  UNL     1      12.574 -12.770  21.052  1.00  0.00     0.688 A 
HETATM   17  N1  UNL     1      13.299 -11.695  20.700  1.00  0.00    -0.195 N 
HETATM   18  C2  UNL     1      13.262 -10.527  21.364  1.00  0.00     0.034 A 
ATOM     19  H1  UNL     1      13.909 -11.769  19.886  1.00  0.00     0.184 HD
HETATM   20  C1  UNL     1      14.096  -9.403  20.899  1.00  0.00     0.069 C 
HETATM   21  C15 UNL     1      12.457 -10.398  22.455  1.00  0.00     0.029 A 
HETATM   22  C14 UNL     1      11.705 -11.489  22.834  1.00  0.00     0.267 A 
HETATM   23  C16 UNL     1      12.381  -9.147  23.213  1.00  0.00     0.056 C 
HETATM   24  N4  UNL     1      11.775 -12.654  22.129  1.00  0.00    -0.155 N 
HETATM   25  O2  UNL     1      10.957 -11.395  23.833  1.00  0.00    -0.267 OA
ATOM     26  H4  UNL     1      11.211 -13.451  22.423  1.00  0.00     0.187 HD
ENDBRANCH  13  16
ENDBRANCH  11  12
ENDBRANCH  10  11
ENDBRANCH   9  10
ENDBRANCH   6   9
ENDBRANCH   5   6
ENDBRANCH   4   5
ENDBRANCH   1   4
TORSDOF 8
ENDMDL
MODEL 4
REMARK VINA RESULT: -7.106657543      0.922      1.176
REMARK  8 active torsions:
REMARK  status: ('A' for Active; 'I' for Inactive)
REMARK    1  A    between atoms: C3_5  and  N2_6 
REMARK       I    between atoms: N2_6  and  C4_8 
REMARK    2  A    between atoms: C4_8  and  C5_10 
REMARK    3  A    between atoms: C5_10  and  C6_11 
REMARK    4  A    between atoms: C6_11  and  C7_12 
REMARK    5  A    between atoms: C7_12  and  N3_13 
REMARK    6  A    between atoms: N3_13  and  C10_16 
REMARK    7  A    between atoms: C10_16  and  C11_17 
REMARK    8  A    between atoms: C11_17  and  C12_18 
ROOT
HETATM    1  C12 UNL     1      13.375 -10.468  21.752  1.00  0.00    -0.092 C 
HETATM    2  C13 UNL     1      12.574 -10.280  22.618  1.00  0.00    -0.024 C 
HETATM    3 BR1  UNL     1      11.333  -9.971  24.002  1.00  0.00     0.010 Br
ENDROOT
BRANCH   1   4
HETATM    4  C11 UNL     1      14.370 -10.677  20.693  1.00  0.00     0.122 C 
BRANCH   4   5
HETATM    5  C10 UNL     1      13.836 -11.736  19.764  1.00  0.00     0.248 C 
BRANCH   5   6
HETATM    6  N3  UNL     1      14.799 -12.770  19.487  1.00  0.00    -0.074 N 
HETATM    7  C8  UNL     1      14.999 -13.503  20.745  1.00  0.00     0.272 C 
HETATM    8  C9  UNL     1      14.354 -13.727  18.516  1.00  0.00     0.272 C 
BRANCH   6   9
HETATM    9  C7  UNL     1      16.070 -12.160  19.130  1.00  0.00     0.237 C 
BRANCH   9  10
HETATM   10  C6  UNL     1      17.168 -12.605  20.032  1.00  0.00     0.037 C 
BRANCH  10  11
HETATM   11  C5  UNL     1      18.277 -11.632  20.206  1.00  0.00     0.105 C 
BRANCH  11  12
HETATM   12  C4  UNL     1      19.623 -12.195  20.301  1.00  0.00     0.235 C 
HETATM   13  N2  UNL     1      19.775 -13.451  20.949  1.00  0.00    -0.159 N 
ATOM     14  H2  UNL     1      19.687 -14.327  20.436  1.00  0.00     0.187 HD
HETATM   15  O1  UNL     1      20.665 -11.658  19.855  1.00  0.00    -0.273 OA
BRANCH  13  16
HETATM   16  C3  UNL     1      20.031 -13.434  22.229  1.00  0.00     0.688 A 
HETATM   17  N1  UNL     1      19.071 -13.734  23.119  1.00  0.00    -0.195 N 
HETATM   18  C2  UNL     1      19.267 -13.737  24.449  1.00  0.00     0.034 A 
ATOM     19  H1  UNL     1      18.144 -13.974  22.767  1.00  0.00     0.184 HD
HETATM   20  C1  UNL     1      18.148 -14.082  25.346  1.00  0.00     0.069 C 
HETATM   21  C15 UNL     1      20.493 -13.421  24.949  1.00  0.00     0.029 A 
HETATM   22  C14 UNL     1      21.493 -13.108  24.053  1.00  0.00     0.267 A 
HETATM   23  C16 UNL     1      20.759 -13.408  26.389  1.00  0.00     0.056 C 
HETATM   24  N4  UNL     1      21.248 -13.119  22.712  1.00  0.00    -0.155 N 
HETATM   25  O2  UNL     1      22.630 -12.815  24.488  1.00  0.00    -0.267 OA
ATOM     26  H4  UNL     1      22.000 -12.886  22.064  1.00  0.00     0.187 HD
ENDBRANCH  13  16
ENDBRANCH  11  12
ENDBRANCH  10  11
ENDBRANCH   9  10
ENDBRANCH   6   9
ENDBRANCH   5   6
ENDBRANCH   4   5
ENDBRANCH   1   4
TORSDOF 8
ENDMDL
MODEL 5
REMARK VINA RESULT: -7.103476485      3.613      7.102
REMARK  8 active torsions:
REMARK  status: ('A' for Active; 'I' for Inactive)
REMARK    1  A    between atoms: C3_5  and  N2_6 
REMARK       I    between atoms: N2_6  and  C4_8 
REMARK    2  A    between atoms: C4_8  and  C5_10 
REMARK    3  A    between atoms: C5_10  and  C6_11 
REMARK    4  A    between atoms: C6_11  and  C7_12 
REMARK    5  A    between atoms: C7_12  and  N3_13 
REMARK    6  A    between atoms: N3_13  and  C10_16 
REMARK    7  A    between atoms: C10_16  and  C11_17 
REMARK    8  A    between atoms: C11_17  and  C12_18 
ROOT
HETATM    1  C12 UNL     1      17.295 -11.893  19.338  1.00  0.00    -0.092 C 
HETATM    2  C13 UNL     1      16.419 -11.895  18.525  1.00  0.00    -0.024 C 
HETATM    3 BR1  UNL     1      15.059 -11.898  17.221  1.00  0.00     0.010 Br
ENDROOT
BRANCH   1   4
HETATM    4  C11 UNL     1      18.385 -11.905  20.321  1.00  0.00     0.122 C 
BRANCH   4   5
HETATM    5  C10 UNL     1      17.825 -12.424  21.621  1.00  0.00     0.248 C 
BRANCH   5   6
HETATM    6  N3  UNL     1      18.305 -13.741  21.947  1.00  0.00    -0.074 N 
HETATM    7  C8  UNL     1      19.617 -13.881  21.301  1.00  0.00     0.272 C 
HETATM    8  C9  UNL     1      18.510 -13.948  23.351  1.00  0.00     0.272 C 
BRANCH   6   9
HETATM    9  C7  UNL     1      17.420 -14.734  21.358  1.00  0.00     0.237 C 
BRANCH   9  10
HETATM   10  C6  UNL     1      15.989 -14.440  21.648  1.00  0.00     0.037 C 
BRANCH  10  11
HETATM   11  C5  UNL     1      15.034 -14.835  20.582  1.00  0.00     0.105 C 
BRANCH  11  12
HETATM   12  C4  UNL     1      13.614 -14.712  20.909  1.00  0.00     0.235 C 
HETATM   13  N2  UNL     1      12.877 -13.665  20.293  1.00  0.00    -0.159 N 
ATOM     14  H2  UNL     1      12.427 -13.793  19.387  1.00  0.00     0.187 HD
HETATM   15  O1  UNL     1      12.985 -15.461  21.694  1.00  0.00    -0.273 OA
BRANCH  13  16
HETATM   16  C3  UNL     1      12.801 -12.531  20.936  1.00  0.00     0.688 A 
HETATM   17  N1  UNL     1      12.017 -12.416  22.020  1.00  0.00    -0.195 N 
HETATM   18  C2  UNL     1      11.893 -11.280  22.729  1.00  0.00     0.034 A 
ATOM     19  H1  UNL     1      11.487 -13.233  22.323  1.00  0.00     0.184 HD
HETATM   20  C1  UNL     1      11.006 -11.252  23.906  1.00  0.00     0.069 C 
HETATM   21  C15 UNL     1      12.588 -10.171  22.349  1.00  0.00     0.029 A 
HETATM   22  C14 UNL     1      13.398 -10.268  21.238  1.00  0.00     0.267 A 
HETATM   23  C16 UNL     1      12.488  -8.909  23.085  1.00  0.00     0.056 C 
HETATM   24  N4  UNL     1      13.493 -11.442  20.552  1.00  0.00    -0.155 N 
HETATM   25  O2  UNL     1      14.048  -9.263  20.870  1.00  0.00    -0.267 OA
ATOM     26  H4  UNL     1      14.098 -11.495  19.733  1.00  0.00     0.187 HD
ENDBRANCH  13  16
ENDBRANCH  11  12
ENDBRANCH  10  11
ENDBRANCH   9  10
ENDBRANCH   6   9
ENDBRANCH   5   6
ENDBRANCH   4   5
ENDBRANCH   1   4
TORSDOF 8
ENDMDL
