MODEL 1
REMARK VINA RESULT: -7.920161497      0.000      0.000
REMARK  8 active torsions:
REMARK  status: ('A' for Active; 'I' for Inactive)
REMARK    1  A    between atoms: C6_8  and  C7_9 
REMARK    2  A    between atoms: C8_10  and  C9_11 
REMARK    3  A    between atoms: C9_11  and  C10_12 
REMARK    4  A    between atoms: C10_12  and  C11_13 
REMARK    5  A    between atoms: C11_13  and  C12_14 
REMARK    6  A    between atoms: C13_19  and  C14_20 
REMARK    7  A    between atoms: C14_20  and  C15_21 
REMARK    8  A    between atoms: C15_21  and  S1_22 
ROOT
HETATM    1  C12 UNL     1      16.746 -11.549  20.139  1.00  0.00     0.067 A 
HETATM    2  N2  UNL     1      16.196 -10.306  20.159  1.00  0.00    -0.299 N 
ATOM      3  H2  UNL     1      16.617  -9.475  19.742  1.00  0.00     0.187 HD
HETATM    4  N3  UNL     1      15.054 -10.328  20.790  1.00  0.00    -0.303 N 
ATOM      5  H3  UNL     1      14.450  -9.518  20.938  1.00  0.00     0.186 HD
HETATM    6  C13 UNL     1      14.790 -11.576  21.216  1.00  0.00     0.046 A 
HETATM    7  C17 UNL     1      15.860 -12.342  20.803  1.00  0.00     0.063 A 
HETATM    8 BR1  UNL     1      16.000 -14.198  21.146  1.00  0.00    -0.046 Br
ENDROOT
BRANCH   1   9
HETATM    9  C11 UNL     1      17.999 -11.966  19.548  1.00  0.00     0.032 C 
BRANCH   9  10
HETATM   10  C10 UNL     1      19.093 -12.006  20.333  1.00  0.00     0.002 C 
BRANCH  10  11
HETATM   11  C9  UNL     1      19.776 -13.256  20.584  1.00  0.00     0.000 C 
BRANCH  11  12
HETATM   12  C8  UNL     1      19.996 -13.710  21.798  1.00  0.00     0.001 C 
HETATM   13  C7  UNL     1      20.742 -13.010  22.812  1.00  0.00     0.014 C 
BRANCH  13  14
HETATM   14  C6  UNL     1      21.017 -13.364  24.036  1.00  0.00    -0.003 A 
HETATM   15  C2  UNL     1      22.331 -13.411  24.537  1.00  0.00     0.033 A 
HETATM   16  C1  UNL     1      23.476 -13.137  23.947  1.00  0.00     0.044 C 
HETATM   17  N1  UNL     1      22.246 -13.811  25.814  1.00  0.00    -0.365 N 
HETATM   18  C3  UNL     1      20.987 -14.018  26.151  1.00  0.00     0.096 A 
ATOM     19  H1  UNL     1      23.044 -13.938  26.438  1.00  0.00     0.165 HD
HETATM   20  C4  UNL     1      20.180 -13.743  25.044  1.00  0.00    -0.034 A 
HETATM   21  C5  UNL     1      18.691 -13.879  25.095  1.00  0.00     0.050 C 
ENDBRANCH  13  14
ENDBRANCH  11  12
ENDBRANCH  10  11
ENDBRANCH   9  10
ENDBRANCH   1   9
BRANCH   6  22
HETATM   22  C14 UNL     1      13.598 -11.956  21.956  1.00  0.00     0.072 C 
BRANCH  22  23
HETATM   23  C15 UNL     1      12.319 -11.381  21.450  1.00  0.00     0.114 C 
BRANCH  23  24
HETATM   24  S1  UNL     1      11.896 -10.003  22.492  1.00  0.00     0.011 S 
HETATM   25  C16 UNL     1      11.182 -10.585  24.016  1.00  0.00     0.127 C 
HETATM   26  O1  UNL     1      13.193  -9.024  22.823  1.00  0.00    -0.258 OA
ENDBRANCH  23  24
ENDBRANCH  22  23
ENDBRANCH   6  22
TORSDOF 8
ENDMDL
MODEL 2
REMARK VINA RESULT: -7.906837207      1.141      1.194
REMARK  8 active torsions:
REMARK  status: ('A' for Active; 'I' for Inactive)
REMARK    1  A    between atoms: C6_8  and  C7_9 
REMARK    2  A    between atoms: C8_10  and  C9_11 
REMARK    3  A    between atoms: C9_11  and  C10_12 
REMARK    4  A    between atoms: C10_12  and  C11_13 
REMARK    5  A    between atoms: C11_13  and  C12_14 
REMARK    6  A    between atoms: C13_19  and  C14_20 
REMARK    7  A    between atoms: C14_20  and  C15_21 
REMARK    8  A    between atoms: C15_21  and  S1_22 
ROOT
HETATM    1  C12 UNL     1      17.242 -11.607  19.976  1.00  0.00     0.067 A 
HETATM    2  N2  UNL     1      16.946 -11.300  21.267  1.00  0.00    -0.299 N 
ATOM      3  H2  UNL     1      17.633 -11.204  22.016  1.00  0.00     0.187 HD
HETATM    4  N3  UNL     1      15.658 -11.147  21.411  1.00  0.00    -0.303 N 
ATOM      5  H3  UNL     1      15.190 -10.913  22.287  1.00  0.00     0.186 HD
HETATM    6  C13 UNL     1      15.040 -11.343  20.232  1.00  0.00     0.046 A 
HETATM    7  C17 UNL     1      16.043 -11.633  19.332  1.00  0.00     0.063 A 
HETATM    8 BR1  UNL     1      15.721 -11.998  17.503  1.00  0.00    -0.046 Br
ENDROOT
BRANCH   1   9
HETATM    9  C11 UNL     1      18.540 -11.858  19.389  1.00  0.00     0.032 C 
BRANCH   9  10
HETATM   10  C10 UNL     1      19.558 -12.186  20.208  1.00  0.00     0.002 C 
BRANCH  10  11
HETATM   11  C9  UNL     1      19.765 -13.558  20.616  1.00  0.00     0.000 C 
BRANCH  11  12
HETATM   12  C8  UNL     1      19.976 -13.901  21.868  1.00  0.00     0.001 C 
HETATM   13  C7  UNL     1      20.724 -13.116  22.816  1.00  0.00     0.014 C 
BRANCH  13  14
HETATM   14  C6  UNL     1      20.992 -13.358  24.069  1.00  0.00    -0.003 A 
HETATM   15  C2  UNL     1      22.299 -13.331  24.586  1.00  0.00     0.033 A 
HETATM   16  C1  UNL     1      23.445 -13.082  23.987  1.00  0.00     0.044 C 
HETATM   17  N1  UNL     1      22.207 -13.622  25.892  1.00  0.00    -0.365 N 
HETATM   18  C3  UNL     1      20.948 -13.828  26.231  1.00  0.00     0.096 A 
ATOM     19  H1  UNL     1      22.999 -13.677  26.533  1.00  0.00     0.165 HD
HETATM   20  C4  UNL     1      20.150 -13.668  25.096  1.00  0.00    -0.034 A 
HETATM   21  C5  UNL     1      18.664 -13.832  25.142  1.00  0.00     0.050 C 
ENDBRANCH  13  14
ENDBRANCH  11  12
ENDBRANCH  10  11
ENDBRANCH   9  10
ENDBRANCH   1   9
BRANCH   6  22
HETATM   22  C14 UNL     1      13.603 -11.251  20.034  1.00  0.00     0.072 C 
BRANCH  22  23
HETATM   23  C15 UNL     1      12.768 -11.661  21.199  1.00  0.00     0.114 C 
BRANCH  23  24
HETATM   24  S1  UNL     1      12.221 -10.182  22.021  1.00  0.00     0.011 S 
HETATM   25  C16 UNL     1      11.332 -10.599  23.506  1.00  0.00     0.127 C 
HETATM   26  O1  UNL     1      13.467  -9.151  22.389  1.00  0.00    -0.258 OA
ENDBRANCH  23  24
ENDBRANCH  22  23
ENDBRANCH   6  22
TORSDOF 8
ENDMDL
MODEL 3
REMARK VINA RESULT: -7.702570584      0.755      1.800
REMARK  8 active torsions:
REMARK  status: ('A' for Active; 'I' for Inactive)
REMARK    1  A    between atoms: C6_8  and  C7_9 
REMARK    2  A    between atoms: C8_10  and  C9_11 
REMARK    3  A    between atoms: C9_11  and  C10_12 
REMARK    4  A    between atoms: C10_12  and  C11_13 
REMARK    5  A    between atoms: C11_13  and  C12_14 
REMARK    6  A    between atoms: C13_19  and  C14_20 
REMARK    7  A    between atoms: C14_20  and  C15_21 
REMARK    8  A    between atoms: C15_21  and  S1_22 
ROOT
HETATM    1  C12 UNL     1      16.534 -11.475  20.089  1.00  0.00     0.067 A 
HETATM    2  N2  UNL     1      15.988 -10.231  20.144  1.00  0.00    -0.299 N 
ATOM      3  H2  UNL     1      16.391  -9.397  19.715  1.00  0.00     0.187 HD
HETATM    4  N3  UNL     1      14.876 -10.256  20.827  1.00  0.00    -0.303 N 
ATOM      5  H3  UNL     1      14.282  -9.446  21.009  1.00  0.00     0.186 HD
HETATM    6  C13 UNL     1      14.630 -11.507  21.255  1.00  0.00     0.046 A 
HETATM    7  C17 UNL     1      15.678 -12.271  20.788  1.00  0.00     0.063 A 
HETATM    8 BR1  UNL     1      15.830 -14.130  21.108  1.00  0.00    -0.046 Br
ENDROOT
BRANCH   1   9
HETATM    9  C11 UNL     1      17.757 -11.889  19.437  1.00  0.00     0.032 C 
BRANCH   9  10
HETATM   10  C10 UNL     1      18.908 -11.809  20.131  1.00  0.00     0.002 C 
BRANCH  10  11
HETATM   11  C9  UNL     1      19.765 -12.965  20.277  1.00  0.00     0.000 C 
BRANCH  11  12
HETATM   12  C8  UNL     1      19.997 -13.532  21.441  1.00  0.00     0.001 C 
HETATM   13  C7  UNL     1      19.798 -12.893  22.716  1.00  0.00     0.014 C 
BRANCH  13  14
HETATM   14  C6  UNL     1      19.994 -13.357  23.919  1.00  0.00    -0.003 A 
HETATM   15  C2  UNL     1      18.957 -13.883  24.710  1.00  0.00     0.033 A 
HETATM   16  C1  UNL     1      17.673 -14.017  24.448  1.00  0.00     0.044 C 
HETATM   17  N1  UNL     1      19.507 -14.262  25.872  1.00  0.00    -0.365 N 
HETATM   18  C3  UNL     1      20.804 -14.015  25.871  1.00  0.00     0.096 A 
ATOM     19  H1  UNL     1      18.995 -14.682  26.648  1.00  0.00     0.165 HD
HETATM   20  C4  UNL     1      21.145 -13.440  24.645  1.00  0.00    -0.034 A 
HETATM   21  C5  UNL     1      22.550 -13.040  24.320  1.00  0.00     0.050 C 
ENDBRANCH  13  14
ENDBRANCH  11  12
ENDBRANCH  10  11
ENDBRANCH   9  10
ENDBRANCH   1   9
BRANCH   6  22
HETATM   22  C14 UNL     1      13.473 -11.891  22.046  1.00  0.00     0.072 C 
BRANCH  22  23
HETATM   23  C15 UNL     1      12.174 -11.302  21.611  1.00  0.00     0.114 C 
BRANCH  23  24
HETATM   24  S1  UNL     1      11.817  -9.928  22.682  1.00  0.00     0.011 S 
HETATM   25  C16 UNL     1      11.180 -10.514  24.238  1.00  0.00     0.127 C 
HETATM   26  O1  UNL     1      13.136  -8.960  22.949  1.00  0.00    -0.258 OA
ENDBRANCH  23  24
ENDBRANCH  22  23
ENDBRANCH   6  22
TORSDOF 8
ENDMDL
MODEL 4
REMARK VINA RESULT: -7.681215949      1.445      2.128
REMARK  8 active torsions:
REMARK  status: ('A' for Active; 'I' for Inactive)
REMARK    1  A    between atoms: C6_8  and  C7_9 
REMARK    2  A    between atoms: C8_10  and  C9_11 
REMARK    3  A    between atoms: C9_11  and  C10_12 
REMARK    4  A    between atoms: C10_12  and  C11_13 
REMARK    5  A    between atoms: C11_13  and  C12_14 
REMARK    6  A    between atoms: C13_19  and  C14_20 
REMARK    7  A    between atoms: C14_20  and  C15_21 
REMARK    8  A    between atoms: C15_21  and  S1_22 
ROOT
HETATM    1  C12 UNL     1      16.447 -11.644  19.959  1.00  0.00     0.067 A 
HETATM    2  N2  UNL     1      16.189 -10.370  20.358  1.00  0.00    -0.299 N 
ATOM      3  H2  UNL     1      16.879  -9.620  20.399  1.00  0.00     0.187 HD
HETATM    4  N3  UNL     1      14.930 -10.245  20.681  1.00  0.00    -0.303 N 
ATOM      5  H3  UNL     1      14.493  -9.384  21.011  1.00  0.00     0.186 HD
HETATM    6  C13 UNL     1      14.296 -11.419  20.514  1.00  0.00     0.046 A 
HETATM    7  C17 UNL     1      15.256 -12.298  20.059  1.00  0.00     0.063 A 
HETATM    8 BR1  UNL     1      14.896 -14.112  19.659  1.00  0.00    -0.046 Br
ENDROOT
BRANCH   1   9
HETATM    9  C11 UNL     1      17.704 -12.208  19.519  1.00  0.00     0.032 C 
BRANCH   9  10
HETATM   10  C10 UNL     1      18.845 -11.623  19.933  1.00  0.00     0.002 C 
BRANCH  10  11
HETATM   11  C9  UNL     1      19.975 -12.424  20.352  1.00  0.00     0.000 C 
BRANCH  11  12
HETATM   12  C8  UNL     1      19.957 -13.155  21.445  1.00  0.00     0.001 C 
HETATM   13  C7  UNL     1      19.203 -12.837  22.630  1.00  0.00     0.014 C 
BRANCH  13  14
HETATM   14  C6  UNL     1      19.114 -13.485  23.758  1.00  0.00    -0.003 A 
HETATM   15  C2  UNL     1      18.213 -14.546  23.958  1.00  0.00     0.033 A 
HETATM   16  C1  UNL     1      17.334 -15.081  23.135  1.00  0.00     0.044 C 
HETATM   17  N1  UNL     1      18.387 -14.974  25.216  1.00  0.00    -0.365 N 
HETATM   18  C3  UNL     1      19.325 -14.266  25.818  1.00  0.00     0.096 A 
ATOM     19  H1  UNL     1      17.869 -15.739  25.648  1.00  0.00     0.165 HD
HETATM   20  C4  UNL     1      19.807 -13.311  24.920  1.00  0.00    -0.034 A 
HETATM   21  C5  UNL     1      20.885 -12.344  25.293  1.00  0.00     0.050 C 
ENDBRANCH  13  14
ENDBRANCH  11  12
ENDBRANCH  10  11
ENDBRANCH   9  10
ENDBRANCH   1   9
BRANCH   6  22
HETATM   22  C14 UNL     1      12.884 -11.634  20.783  1.00  0.00     0.072 C 
BRANCH  22  23
HETATM   23  C15 UNL     1      12.510 -11.708  22.225  1.00  0.00     0.114 C 
BRANCH  23  24
HETATM   24  S1  UNL     1      11.977 -10.088  22.729  1.00  0.00     0.011 S 
HETATM   25  C16 UNL     1      11.207 -10.169  24.332  1.00  0.00     0.127 C 
HETATM   26  O1  UNL     1      13.214  -8.984  22.761  1.00  0.00    -0.258 OA
ENDBRANCH  23  24
ENDBRANCH  22  23
ENDBRANCH   6  22
TORSDOF 8
ENDMDL
MODEL 5
REMARK VINA RESULT: -7.582181178      1.599      1.925
REMARK  8 active torsions:
REMARK  status: ('A' for Active; 'I' for Inactive)
REMARK    1  A    between atoms: C6_8  and  C7_9 
REMARK    2  A    between atoms: C8_10  and  C9_11 
REMARK    3  A    between atoms: C9_11  and  C10_12 
REMARK    4  A    between atoms: C10_12  and  C11_13 
REMARK    5  A    between atoms: C11_13  and  C12_14 
REMARK    6  A    between atoms: C13_19  and  C14_20 
REMARK    7  A    between atoms: C14_20  and  C15_21 
REMARK    8  A    between atoms: C15_21  and  S1_22 
ROOT
HETATM    1  C12 UNL     1      16.892 -11.614  19.863  1.00  0.00     0.067 A 
HETATM    2  N2  UNL     1      16.716 -11.158  21.131  1.00  0.00    -0.299 N 
ATOM      3  H2  UNL     1      17.469 -10.969  21.793  1.00  0.00     0.187 HD
HETATM    4  N3  UNL     1      15.445 -10.999  21.381  1.00  0.00    -0.303 N 
ATOM      5  H3  UNL     1      15.059 -10.666  22.266  1.00  0.00     0.186 HD
HETATM    6  C13 UNL     1      14.720 -11.338  20.300  1.00  0.00     0.046 A 
HETATM    7  C17 UNL     1      15.636 -11.725  19.346  1.00  0.00     0.063 A 
HETATM    8 BR1  UNL     1      15.146 -12.306  17.613  1.00  0.00    -0.046 Br
ENDROOT
BRANCH   1   9
HETATM    9  C11 UNL     1      18.131 -11.923  19.185  1.00  0.00     0.032 C 
BRANCH   9  10
HETATM   10  C10 UNL     1      19.289 -11.650  19.816  1.00  0.00     0.002 C 
BRANCH  10  11
HETATM   11  C9  UNL     1      20.139 -12.718  20.294  1.00  0.00     0.000 C 
BRANCH  11  12
HETATM   12  C8  UNL     1      19.837 -13.446  21.346  1.00  0.00     0.001 C 
HETATM   13  C7  UNL     1      19.375 -12.915  22.603  1.00  0.00     0.014 C 
BRANCH  13  14
HETATM   14  C6  UNL     1      19.050 -13.539  23.701  1.00  0.00    -0.003 A 
HETATM   15  C2  UNL     1      19.706 -13.318  24.925  1.00  0.00     0.033 A 
HETATM   16  C1  UNL     1      20.704 -12.511  25.221  1.00  0.00     0.044 C 
HETATM   17  N1  UNL     1      19.122 -14.117  25.830  1.00  0.00    -0.365 N 
HETATM   18  C3  UNL     1      18.154 -14.819  25.270  1.00  0.00     0.096 A 
ATOM     19  H1  UNL     1      19.388 -14.174  26.813  1.00  0.00     0.165 HD
HETATM   20  C4  UNL     1      18.083 -14.476  23.918  1.00  0.00    -0.034 A 
HETATM   21  C5  UNL     1      17.081 -15.095  22.995  1.00  0.00     0.050 C 
ENDBRANCH  13  14
ENDBRANCH  11  12
ENDBRANCH  10  11
ENDBRANCH   9  10
ENDBRANCH   1   9
BRANCH   6  22
HETATM   22  C14 UNL     1      13.269 -11.280  20.235  1.00  0.00     0.072 C 
BRANCH  22  23
HETATM   23  C15 UNL     1      12.556 -11.616  21.500  1.00  0.00     0.114 C 
BRANCH  23  24
HETATM   24  S1  UNL     1      12.074 -10.088  22.272  1.00  0.00     0.011 S 
HETATM   25  C16 UNL     1      11.199 -10.417  23.787  1.00  0.00     0.127 C 
HETATM   26  O1  UNL     1      13.361  -9.088  22.578  1.00  0.00    -0.258 OA
ENDBRANCH  23  24
ENDBRANCH  22  23
ENDBRANCH   6  22
TORSDOF 8
ENDMDL
