MODEL 1
REMARK VINA RESULT: -6.896405398      0.000      0.000
REMARK  8 active torsions:
REMARK  status: ('A' for Active; 'I' for Inactive)
REMARK    1  A    between atoms: C2_2  and  C3_3 
REMARK    2  A    between atoms: C3_3  and  C4_4 
REMARK    3  A    between atoms: C4_4  and  C5_5 
REMARK    4  A    between atoms: C6_6  and  C7_7 
REMARK    5  A    between atoms: C7_7  and  C8_8 
REMARK    6  A    between atoms: C8_8  and  C9_9 
REMARK    7  A    between atoms: C11_12  and  S1_13 
REMARK    8  A    between atoms: S1_13  and  N1_14 
ROOT
HETATM    1  C5  UNL     1      19.354 -13.553  23.171  1.00  0.00    -0.002 A 
HETATM    2  C6  UNL     1      18.111 -13.694  23.759  1.00  0.00    -0.026 A 
HETATM    3  C10 UNL     1      17.007 -13.285  23.047  1.00  0.00     0.038 A 
HETATM    4  C11 UNL     1      17.024 -12.739  21.776  1.00  0.00     0.093 A 
HETATM    5  C12 UNL     1      18.273 -12.603  21.193  1.00  0.00     0.022 A 
HETATM    6  C13 UNL     1      18.643 -12.118  19.965  1.00  0.00    -0.033 A 
HETATM    7  C14 UNL     1      17.810 -11.591  18.876  1.00  0.00     0.050 C 
HETATM    8  C15 UNL     1      20.043 -12.234  19.927  1.00  0.00     0.096 A 
HETATM    9  N2  UNL     1      20.469 -12.762  21.078  1.00  0.00    -0.364 N 
ATOM     10  H2  UNL     1      21.445 -12.951  21.305  1.00  0.00     0.165 HD
HETATM   11  C16 UNL     1      19.426 -13.011  21.896  1.00  0.00     0.055 A 
ENDROOT
BRANCH   4  12
HETATM   12  S1  UNL     1      15.591 -12.231  20.980  1.00  0.00     0.257 S 
HETATM   13  O1  UNL     1      15.009 -13.192  19.983  1.00  0.00    -0.201 OA
HETATM   14  O2  UNL     1      14.495 -12.403  22.084  1.00  0.00    -0.201 OA
BRANCH  12  15
HETATM   15  N1  UNL     1      15.373 -10.591  20.658  1.00  0.00    -0.324 N 
ATOM     16  H12 UNL     1      16.015  -9.909  21.062  1.00  0.00     0.169 HD
ATOM     17  H11 UNL     1      14.597 -10.303  20.061  1.00  0.00     0.169 HD
ENDBRANCH  12  15
ENDBRANCH   4  12
BRANCH   2  18
HETATM   18  C7  UNL     1      17.877 -14.190  24.960  1.00  0.00    -0.014 C 
BRANCH  18  19
HETATM   19  C8  UNL     1      17.299 -15.558  25.123  1.00  0.00     0.039 C 
BRANCH  19  20
HETATM   20  C9  UNL     1      18.352 -16.554  25.539  1.00  0.00     0.089 C 
HETATM   21 BR1  UNL     1      19.015 -17.591  24.072  1.00  0.00    -0.096 Br
ENDBRANCH  19  20
ENDBRANCH  18  19
ENDBRANCH   2  18
BRANCH   1  22
HETATM   22  C4  UNL     1      20.406 -13.936  23.840  1.00  0.00    -0.012 C 
BRANCH  22  23
HETATM   23  C3  UNL     1      21.498 -13.182  24.453  1.00  0.00     0.028 C 
BRANCH  23  24
HETATM   24  C2  UNL     1      20.961 -12.096  25.397  1.00  0.00    -0.001 C 
HETATM   25  C1  UNL     1      20.801 -12.734  26.758  1.00  0.00     0.005 C 
ENDBRANCH  23  24
ENDBRANCH  22  23
ENDBRANCH   1  22
TORSDOF 8
ENDMDL
MODEL 2
REMARK VINA RESULT: -6.138094477      2.596      3.818
REMARK  8 active torsions:
REMARK  status: ('A' for Active; 'I' for Inactive)
REMARK    1  A    between atoms: C2_2  and  C3_3 
REMARK    2  A    between atoms: C3_3  and  C4_4 
REMARK    3  A    between atoms: C4_4  and  C5_5 
REMARK    4  A    between atoms: C6_6  and  C7_7 
REMARK    5  A    between atoms: C7_7  and  C8_8 
REMARK    6  A    between atoms: C8_8  and  C9_9 
REMARK    7  A    between atoms: C11_12  and  S1_13 
REMARK    8  A    between atoms: S1_13  and  N1_14 
ROOT
HETATM    1  C5  UNL     1      17.925 -13.375  21.542  1.00  0.00    -0.002 A 
HETATM    2  C6  UNL     1      17.681 -14.735  21.591  1.00  0.00    -0.026 A 
HETATM    3  C10 UNL     1      16.417 -15.177  21.275  1.00  0.00     0.038 A 
HETATM    4  C11 UNL     1      15.351 -14.378  20.906  1.00  0.00     0.093 A 
HETATM    5  C12 UNL     1      15.604 -13.017  20.856  1.00  0.00     0.022 A 
HETATM    6  C13 UNL     1      14.792 -11.964  20.525  1.00  0.00    -0.033 A 
HETATM    7  C14 UNL     1      13.382 -11.961  20.111  1.00  0.00     0.050 C 
HETATM    8  C15 UNL     1      15.599 -10.820  20.648  1.00  0.00     0.096 A 
HETATM    9  N2  UNL     1      16.825 -11.189  21.031  1.00  0.00    -0.364 N 
ATOM     10  H2  UNL     1      17.601 -10.548  21.193  1.00  0.00     0.165 HD
HETATM   11  C16 UNL     1      16.889 -12.529  21.176  1.00  0.00     0.055 A 
ENDROOT
BRANCH   4  12
HETATM   12  S1  UNL     1      13.800 -15.025  20.558  1.00  0.00     0.257 S 
HETATM   13  O1  UNL     1      13.389 -15.026  19.113  1.00  0.00    -0.201 OA
HETATM   14  O2  UNL     1      14.022 -16.568  20.702  1.00  0.00    -0.201 OA
BRANCH  12  15
HETATM   15  N1  UNL     1      12.565 -14.839  21.690  1.00  0.00    -0.324 N 
ATOM     16  H12 UNL     1      12.693 -14.198  22.473  1.00  0.00     0.169 HD
ATOM     17  H11 UNL     1      11.703 -15.373  21.574  1.00  0.00     0.169 HD
ENDBRANCH  12  15
ENDBRANCH   4  12
BRANCH   2  18
HETATM   18  C7  UNL     1      18.558 -15.665  21.920  1.00  0.00    -0.014 C 
BRANCH  18  19
HETATM   19  C8  UNL     1      18.394 -16.462  23.173  1.00  0.00     0.039 C 
BRANCH  19  20
HETATM   20  C9  UNL     1      18.969 -15.738  24.364  1.00  0.00     0.089 C 
HETATM   21 BR1  UNL     1      17.657 -14.731  25.327  1.00  0.00    -0.096 Br
ENDBRANCH  19  20
ENDBRANCH  18  19
ENDBRANCH   2  18
BRANCH   1  22
HETATM   22  C4  UNL     1      19.120 -12.946  21.842  1.00  0.00    -0.012 C 
BRANCH  22  23
HETATM   23  C3  UNL     1      20.348 -12.856  21.053  1.00  0.00     0.028 C 
BRANCH  23  24
HETATM   24  C2  UNL     1      20.381 -11.563  20.225  1.00  0.00    -0.001 C 
HETATM   25  C1  UNL     1      20.017 -11.938  18.806  1.00  0.00     0.005 C 
ENDBRANCH  23  24
ENDBRANCH  22  23
ENDBRANCH   1  22
TORSDOF 8
ENDMDL
MODEL 3
REMARK VINA RESULT: -6.072266359      2.903      4.003
REMARK  8 active torsions:
REMARK  status: ('A' for Active; 'I' for Inactive)
REMARK    1  A    between atoms: C2_2  and  C3_3 
REMARK    2  A    between atoms: C3_3  and  C4_4 
REMARK    3  A    between atoms: C4_4  and  C5_5 
REMARK    4  A    between atoms: C6_6  and  C7_7 
REMARK    5  A    between atoms: C7_7  and  C8_8 
REMARK    6  A    between atoms: C8_8  and  C9_9 
REMARK    7  A    between atoms: C11_12  and  S1_13 
REMARK    8  A    between atoms: S1_13  and  N1_14 
ROOT
HETATM    1  C5  UNL     1      17.885 -13.366  21.504  1.00  0.00    -0.002 A 
HETATM    2  C6  UNL     1      17.684 -14.399  22.400  1.00  0.00    -0.026 A 
HETATM    3  C10 UNL     1      16.541 -15.154  22.272  1.00  0.00     0.038 A 
HETATM    4  C11 UNL     1      15.558 -14.975  21.316  1.00  0.00     0.093 A 
HETATM    5  C12 UNL     1      15.768 -13.939  20.420  1.00  0.00     0.022 A 
HETATM    6  C13 UNL     1      15.014 -13.500  19.362  1.00  0.00    -0.033 A 
HETATM    7  C14 UNL     1      13.736 -14.009  18.847  1.00  0.00     0.050 C 
HETATM    8  C15 UNL     1      15.732 -12.421  18.818  1.00  0.00     0.096 A 
HETATM    9  N2  UNL     1      16.851 -12.240  19.525  1.00  0.00    -0.364 N 
ATOM     10  H2  UNL     1      17.548 -11.520  19.336  1.00  0.00     0.165 HD
HETATM   11  C16 UNL     1      16.929 -13.144  20.523  1.00  0.00     0.055 A 
ENDROOT
BRANCH   4  12
HETATM   12  S1  UNL     1      14.150 -15.954  21.256  1.00  0.00     0.257 S 
HETATM   13  O1  UNL     1      14.125 -17.019  20.198  1.00  0.00    -0.201 OA
HETATM   14  O2  UNL     1      14.330 -16.904  22.489  1.00  0.00    -0.201 OA
BRANCH  12  15
HETATM   15  N1  UNL     1      12.665 -15.274  21.674  1.00  0.00    -0.324 N 
ATOM     16  H12 UNL     1      12.633 -14.326  22.047  1.00  0.00     0.169 HD
ATOM     17  H11 UNL     1      11.816 -15.825  21.546  1.00  0.00     0.169 HD
ENDBRANCH  12  15
ENDBRANCH   4  12
BRANCH   2  18
HETATM   18  C7  UNL     1      18.497 -14.736  23.385  1.00  0.00    -0.014 C 
BRANCH  18  19
HETATM   19  C8  UNL     1      18.376 -14.095  24.729  1.00  0.00     0.039 C 
BRANCH  19  20
HETATM   20  C9  UNL     1      19.681 -14.150  25.483  1.00  0.00     0.089 C 
HETATM   21 BR1  UNL     1      20.685 -12.525  25.351  1.00  0.00    -0.096 Br
ENDBRANCH  19  20
ENDBRANCH  18  19
ENDBRANCH   2  18
BRANCH   1  22
HETATM   22  C4  UNL     1      18.965 -12.644  21.618  1.00  0.00    -0.012 C 
BRANCH  22  23
HETATM   23  C3  UNL     1      20.284 -12.760  20.998  1.00  0.00     0.028 C 
BRANCH  23  24
HETATM   24  C2  UNL     1      20.588 -11.545  20.110  1.00  0.00    -0.001 C 
HETATM   25  C1  UNL     1      20.108 -11.884  18.718  1.00  0.00     0.005 C 
ENDBRANCH  23  24
ENDBRANCH  22  23
ENDBRANCH   1  22
TORSDOF 8
ENDMDL
MODEL 4
REMARK VINA RESULT: -6.060583782      2.885      4.267
REMARK  8 active torsions:
REMARK  status: ('A' for Active; 'I' for Inactive)
REMARK    1  A    between atoms: C2_2  and  C3_3 
REMARK    2  A    between atoms: C3_3  and  C4_4 
REMARK    3  A    between atoms: C4_4  and  C5_5 
REMARK    4  A    between atoms: C6_6  and  C7_7 
REMARK    5  A    between atoms: C7_7  and  C8_8 
REMARK    6  A    between atoms: C8_8  and  C9_9 
REMARK    7  A    between atoms: C11_12  and  S1_13 
REMARK    8  A    between atoms: S1_13  and  N1_14 
ROOT
HETATM    1  C5  UNL     1      17.191 -15.198  21.930  1.00  0.00    -0.002 A 
HETATM    2  C6  UNL     1      17.998 -14.181  21.454  1.00  0.00    -0.026 A 
HETATM    3  C10 UNL     1      17.425 -13.224  20.648  1.00  0.00     0.038 A 
HETATM    4  C11 UNL     1      16.098 -13.182  20.264  1.00  0.00     0.093 A 
HETATM    5  C12 UNL     1      15.296 -14.203  20.747  1.00  0.00     0.022 A 
HETATM    6  C13 UNL     1      13.959 -14.455  20.572  1.00  0.00    -0.033 A 
HETATM    7  C14 UNL     1      12.955 -13.700  19.810  1.00  0.00     0.050 C 
HETATM    8  C15 UNL     1      13.703 -15.626  21.307  1.00  0.00     0.096 A 
HETATM    9  N2  UNL     1      14.837 -16.037  21.882  1.00  0.00    -0.364 N 
ATOM     10  H2  UNL     1      14.923 -16.865  22.471  1.00  0.00     0.165 HD
HETATM   11  C16 UNL     1      15.851 -15.202  21.575  1.00  0.00     0.055 A 
ENDROOT
BRANCH   4  12
HETATM   12  S1  UNL     1      15.483 -11.959  19.229  1.00  0.00     0.257 S 
HETATM   13  O1  UNL     1      14.649 -10.894  19.881  1.00  0.00    -0.201 OA
HETATM   14  O2  UNL     1      16.744 -11.076  18.941  1.00  0.00    -0.201 OA
BRANCH  12  15
HETATM   15  N1  UNL     1      15.085 -12.358  17.640  1.00  0.00    -0.324 N 
ATOM     16  H12 UNL     1      14.996 -13.339  17.375  1.00  0.00     0.169 HD
ATOM     17  H11 UNL     1      14.939 -11.608  16.963  1.00  0.00     0.169 HD
ENDBRANCH  12  15
ENDBRANCH   4  12
BRANCH   2  18
HETATM   18  C7  UNL     1      19.287 -14.038  21.702  1.00  0.00    -0.014 C 
BRANCH  18  19
HETATM   19  C8  UNL     1      19.775 -12.967  22.623  1.00  0.00     0.039 C 
BRANCH  19  20
HETATM   20  C9  UNL     1      20.919 -13.455  23.475  1.00  0.00     0.089 C 
HETATM   21 BR1  UNL     1      20.966 -12.630  25.201  1.00  0.00    -0.096 Br
ENDBRANCH  19  20
ENDBRANCH  18  19
ENDBRANCH   2  18
BRANCH   1  22
HETATM   22  C4  UNL     1      17.726 -16.111  22.694  1.00  0.00    -0.012 C 
BRANCH  22  23
HETATM   23  C3  UNL     1      17.494 -16.468  24.092  1.00  0.00     0.028 C 
BRANCH  23  24
HETATM   24  C2  UNL     1      18.356 -15.614  25.033  1.00  0.00    -0.001 C 
HETATM   25  C1  UNL     1      17.536 -14.400  25.404  1.00  0.00     0.005 C 
ENDBRANCH  23  24
ENDBRANCH  22  23
ENDBRANCH   1  22
TORSDOF 8
ENDMDL
MODEL 5
REMARK VINA RESULT: -6.054904383      2.840      3.887
REMARK  8 active torsions:
REMARK  status: ('A' for Active; 'I' for Inactive)
REMARK    1  A    between atoms: C2_2  and  C3_3 
REMARK    2  A    between atoms: C3_3  and  C4_4 
REMARK    3  A    between atoms: C4_4  and  C5_5 
REMARK    4  A    between atoms: C6_6  and  C7_7 
REMARK    5  A    between atoms: C7_7  and  C8_8 
REMARK    6  A    between atoms: C8_8  and  C9_9 
REMARK    7  A    between atoms: C11_12  and  S1_13 
REMARK    8  A    between atoms: S1_13  and  N1_14 
ROOT
HETATM    1  C5  UNL     1      17.698 -14.903  21.890  1.00  0.00    -0.002 A 
HETATM    2  C6  UNL     1      18.035 -13.567  21.997  1.00  0.00    -0.026 A 
HETATM    3  C10 UNL     1      17.371 -12.665  21.198  1.00  0.00     0.038 A 
HETATM    4  C11 UNL     1      16.380 -12.974  20.284  1.00  0.00     0.093 A 
HETATM    5  C12 UNL     1      16.046 -14.315  20.184  1.00  0.00     0.022 A 
HETATM    6  C13 UNL     1      15.120 -14.954  19.401  1.00  0.00    -0.033 A 
HETATM    7  C14 UNL     1      14.181 -14.399  18.417  1.00  0.00     0.050 C 
HETATM    8  C15 UNL     1      15.226 -16.315  19.738  1.00  0.00     0.096 A 
HETATM    9  N2  UNL     1      16.169 -16.462  20.672  1.00  0.00    -0.364 N 
ATOM     10  H2  UNL     1      16.442 -17.352  21.088  1.00  0.00     0.165 HD
HETATM   11  C16 UNL     1      16.709 -15.267  20.988  1.00  0.00     0.055 A 
ENDROOT
BRANCH   4  12
HETATM   12  S1  UNL     1      15.629 -11.778  19.309  1.00  0.00     0.257 S 
HETATM   13  O1  UNL     1      14.177 -11.511  19.586  1.00  0.00    -0.201 OA
HETATM   14  O2  UNL     1      16.193 -10.441  19.897  1.00  0.00    -0.201 OA
BRANCH  12  15
HETATM   15  N1  UNL     1      16.138 -11.588  17.713  1.00  0.00    -0.324 N 
ATOM     16  H12 UNL     1      16.973 -11.037  17.513  1.00  0.00     0.169 HD
ATOM     17  H11 UNL     1      15.600 -12.029  16.967  1.00  0.00     0.169 HD
ENDBRANCH  12  15
ENDBRANCH   4  12
BRANCH   2  18
HETATM   18  C7  UNL     1      18.951 -13.064  22.805  1.00  0.00    -0.014 C 
BRANCH  18  19
HETATM   19  C8  UNL     1      20.399 -13.107  22.440  1.00  0.00     0.039 C 
BRANCH  19  20
HETATM   20  C9  UNL     1      21.257 -13.437  23.635  1.00  0.00     0.089 C 
HETATM   21 BR1  UNL     1      20.633 -12.618  25.249  1.00  0.00    -0.096 Br
ENDBRANCH  19  20
ENDBRANCH  18  19
ENDBRANCH   2  18
BRANCH   1  22
HETATM   22  C4  UNL     1      18.324 -15.765  22.643  1.00  0.00    -0.012 C 
BRANCH  22  23
HETATM   23  C3  UNL     1      17.905 -16.503  23.834  1.00  0.00     0.028 C 
BRANCH  23  24
HETATM   24  C2  UNL     1      18.467 -15.860  25.110  1.00  0.00    -0.001 C 
HETATM   25  C1  UNL     1      17.437 -14.866  25.595  1.00  0.00     0.005 C 
ENDBRANCH  23  24
ENDBRANCH  22  23
ENDBRANCH   1  22
TORSDOF 8
ENDMDL
