MODEL 1
REMARK VINA RESULT: -7.486965423      0.000      0.000
REMARK  9 active torsions:
REMARK  status: ('A' for Active; 'I' for Inactive)
REMARK    1  A    between atoms: C2_2  and  C3_3 
REMARK    2  A    between atoms: C4_6  and  N2_7 
REMARK    3  A    between atoms: N2_7  and  C5_9 
REMARK    4  A    between atoms: C5_9  and  C6_10 
REMARK    5  A    between atoms: C6_10  and  C7_11 
REMARK    6  A    between atoms: C7_11  and  N3_12 
REMARK    7  A    between atoms: N4_16  and  C12_18 
REMARK    8  A    between atoms: C12_18  and  C15_21 
REMARK    9  A    between atoms: C18_27  and  C19_28 
ROOT
HETATM    1  C5  UNL     1      18.105 -11.864  19.651  1.00  0.00     0.140 C 
ENDROOT
BRANCH   1   2
HETATM    2  N2  UNL     1      17.278 -11.120  20.521  1.00  0.00    -0.226 N 
ATOM      3  H2  UNL     1      17.671 -10.353  21.069  1.00  0.00     0.177 HD
BRANCH   2   4
HETATM    4  C4  UNL     1      16.026 -11.411  20.623  1.00  0.00     0.679 A 
HETATM    5  N1  UNL     1      15.332 -12.472  20.152  1.00  0.00    -0.190 N 
HETATM    6  C3  UNL     1      14.036 -12.411  20.481  1.00  0.00     0.072 A 
ATOM      7  H1  UNL     1      15.747 -13.231  19.611  1.00  0.00     0.184 HD
HETATM    8  C17 UNL     1      13.882 -11.250  21.203  1.00  0.00     0.072 A 
HETATM    9  N5  UNL     1      15.080 -10.668  21.276  1.00  0.00    -0.190 N 
HETATM   10  C18 UNL     1      12.720 -10.827  21.717  1.00  0.00     0.005 C 
ATOM     11  H5  UNL     1      15.266  -9.786  21.754  1.00  0.00     0.184 HD
BRANCH   6  12
HETATM   12  C2  UNL     1      13.102 -13.296  20.163  1.00  0.00     0.001 C 
HETATM   13  C1  UNL     1      13.358 -14.374  19.175  1.00  0.00     0.038 C 
ENDBRANCH   6  12
BRANCH  10  14
HETATM   14  C19 UNL     1      12.740  -9.546  22.472  1.00  0.00     0.025 C 
HETATM   15  C20 UNL     1      11.800  -9.537  23.632  1.00  0.00     0.009 C 
ENDBRANCH  10  14
ENDBRANCH   2   4
ENDBRANCH   1   2
BRANCH   1  16
HETATM   16  C6  UNL     1      19.415 -12.327  20.218  1.00  0.00     0.050 C 
BRANCH  16  17
HETATM   17  C7  UNL     1      19.341 -13.615  20.940  1.00  0.00     0.276 C 
BRANCH  17  18
HETATM   18  N3  UNL     1      19.426 -13.564  22.357  1.00  0.00     0.114 N 
HETATM   19  C8  UNL     1      18.145 -13.461  23.012  1.00  0.00     0.276 C 
HETATM   20  C9  UNL     1      17.887 -14.571  23.973  1.00  0.00     0.058 C 
HETATM   21  C10 UNL     1      19.031 -14.769  24.937  1.00  0.00     0.241 C 
HETATM   22  N4  UNL     1      20.323 -14.692  24.322  1.00  0.00    -0.035 N 
HETATM   23  C11 UNL     1      20.883 -16.061  24.464  1.00  0.00     0.275 C 
HETATM   24  C16 UNL     1      20.285 -14.547  22.876  1.00  0.00     0.508 C 
BRANCH  22  25
HETATM   25  C12 UNL     1      21.260 -13.860  24.996  1.00  0.00     0.136 C 
HETATM   26  C13 UNL     1      21.724 -14.409  26.334  1.00  0.00     0.048 C 
HETATM   27  C14 UNL     1      22.509 -13.511  24.224  1.00  0.00     0.048 C 
BRANCH  25  28
HETATM   28  C15 UNL     1      20.675 -12.474  25.324  1.00  0.00     0.153 C 
HETATM   29 CL1  UNL     1      20.691 -12.382  27.122  1.00  0.00    -0.128 Cl
ENDBRANCH  25  28
ENDBRANCH  22  25
ENDBRANCH  17  18
ENDBRANCH  16  17
ENDBRANCH   1  16
TORSDOF 9
ENDMDL
MODEL 2
REMARK VINA RESULT: -7.476596385      0.689      2.354
REMARK  9 active torsions:
REMARK  status: ('A' for Active; 'I' for Inactive)
REMARK    1  A    between atoms: C2_2  and  C3_3 
REMARK    2  A    between atoms: C4_6  and  N2_7 
REMARK    3  A    between atoms: N2_7  and  C5_9 
REMARK    4  A    between atoms: C5_9  and  C6_10 
REMARK    5  A    between atoms: C6_10  and  C7_11 
REMARK    6  A    between atoms: C7_11  and  N3_12 
REMARK    7  A    between atoms: N4_16  and  C12_18 
REMARK    8  A    between atoms: C12_18  and  C15_21 
REMARK    9  A    between atoms: C18_27  and  C19_28 
ROOT
HETATM    1  C5  UNL     1      17.391 -11.911  19.723  1.00  0.00     0.140 C 
ENDROOT
BRANCH   1   2
HETATM    2  N2  UNL     1      16.663 -10.776  20.145  1.00  0.00    -0.226 N 
ATOM      3  H2  UNL     1      17.104  -9.856  20.143  1.00  0.00     0.177 HD
BRANCH   2   4
HETATM    4  C4  UNL     1      15.440 -10.906  20.533  1.00  0.00     0.679 A 
HETATM    5  N1  UNL     1      14.542  -9.974  20.927  1.00  0.00    -0.190 N 
HETATM    6  C3  UNL     1      13.362 -10.518  21.245  1.00  0.00     0.072 A 
ATOM      7  H1  UNL     1      14.740  -8.975  20.975  1.00  0.00     0.184 HD
HETATM    8  C17 UNL     1      13.500 -11.872  21.046  1.00  0.00     0.072 A 
HETATM    9  N5  UNL     1      14.747 -12.083  20.622  1.00  0.00    -0.190 N 
HETATM   10  C18 UNL     1      12.530 -12.771  21.255  1.00  0.00     0.005 C 
ATOM     11  H5  UNL     1      15.133 -12.999  20.394  1.00  0.00     0.184 HD
BRANCH   6  12
HETATM   12  C2  UNL     1      12.286  -9.868  21.671  1.00  0.00     0.001 C 
HETATM   13  C1  UNL     1      12.088  -9.552  23.107  1.00  0.00     0.038 C 
ENDBRANCH   6  12
BRANCH  10  14
HETATM   14  C19 UNL     1      12.859 -14.196  20.986  1.00  0.00     0.025 C 
HETATM   15  C20 UNL     1      12.390 -14.661  19.647  1.00  0.00     0.009 C 
ENDBRANCH  10  14
ENDBRANCH   2   4
ENDBRANCH   1   2
BRANCH   1  16
HETATM   16  C6  UNL     1      18.826 -11.976  20.158  1.00  0.00     0.050 C 
BRANCH  16  17
HETATM   17  C7  UNL     1      19.210 -13.255  20.791  1.00  0.00     0.276 C 
BRANCH  17  18
HETATM   18  N3  UNL     1      19.299 -13.270  22.208  1.00  0.00     0.114 N 
HETATM   19  C8  UNL     1      18.026 -13.122  22.871  1.00  0.00     0.276 C 
HETATM   20  C9  UNL     1      17.705 -14.256  23.785  1.00  0.00     0.058 C 
HETATM   21  C10 UNL     1      18.836 -14.561  24.735  1.00  0.00     0.241 C 
HETATM   22  N4  UNL     1      20.130 -14.532  24.121  1.00  0.00    -0.035 N 
HETATM   23  C11 UNL     1      20.611 -15.935  24.202  1.00  0.00     0.275 C 
HETATM   24  C16 UNL     1      20.100 -14.322  22.682  1.00  0.00     0.508 C 
BRANCH  22  25
HETATM   25  C12 UNL     1      21.114 -13.784  24.827  1.00  0.00     0.136 C 
HETATM   26  C13 UNL     1      21.605 -14.455  26.099  1.00  0.00     0.048 C 
HETATM   27  C14 UNL     1      22.348 -13.408  24.042  1.00  0.00     0.048 C 
BRANCH  25  28
HETATM   28  C15 UNL     1      20.584 -12.414  25.286  1.00  0.00     0.153 C 
HETATM   29 CL1  UNL     1      20.711 -12.451  27.082  1.00  0.00    -0.128 Cl
ENDBRANCH  25  28
ENDBRANCH  22  25
ENDBRANCH  17  18
ENDBRANCH  16  17
ENDBRANCH   1  16
TORSDOF 9
ENDMDL
MODEL 3
REMARK VINA RESULT: -7.448729853      2.546      7.330
REMARK  9 active torsions:
REMARK  status: ('A' for Active; 'I' for Inactive)
REMARK    1  A    between atoms: C2_2  and  C3_3 
REMARK    2  A    between atoms: C4_6  and  N2_7 
REMARK    3  A    between atoms: N2_7  and  C5_9 
REMARK    4  A    between atoms: C5_9  and  C6_10 
REMARK    5  A    between atoms: C6_10  and  C7_11 
REMARK    6  A    between atoms: C7_11  and  N3_12 
REMARK    7  A    between atoms: N4_16  and  C12_18 
REMARK    8  A    between atoms: C12_18  and  C15_21 
REMARK    9  A    between atoms: C18_27  and  C19_28 
ROOT
HETATM    1  C5  UNL     1      16.776 -16.588  23.324  1.00  0.00     0.140 C 
ENDROOT
BRANCH   1   2
HETATM    2  N2  UNL     1      16.921 -15.456  24.156  1.00  0.00    -0.226 N 
ATOM      3  H2  UNL     1      16.224 -15.257  24.874  1.00  0.00     0.177 HD
BRANCH   2   4
HETATM    4  C4  UNL     1      17.936 -14.676  24.006  1.00  0.00     0.679 A 
HETATM    5  N1  UNL     1      18.744 -14.101  24.927  1.00  0.00    -0.190 N 
HETATM    6  C3  UNL     1      19.702 -13.358  24.361  1.00  0.00     0.072 A 
ATOM      7  H1  UNL     1      18.636 -14.220  25.934  1.00  0.00     0.184 HD
HETATM    8  C17 UNL     1      19.507 -13.457  23.003  1.00  0.00     0.072 A 
HETATM    9  N5  UNL     1      18.449 -14.247  22.812  1.00  0.00    -0.190 N 
HETATM   10  C18 UNL     1      20.269 -12.852  22.083  1.00  0.00     0.005 C 
ATOM     11  H5  UNL     1      18.072 -14.497  21.897  1.00  0.00     0.184 HD
BRANCH   6  12
HETATM   12  C2  UNL     1      20.640 -12.668  24.996  1.00  0.00     0.001 C 
HETATM   13  C1  UNL     1      20.698 -12.621  26.478  1.00  0.00     0.038 C 
ENDBRANCH   6  12
BRANCH  10  14
HETATM   14  C19 UNL     1      19.912 -13.072  20.657  1.00  0.00     0.025 C 
HETATM   15  C20 UNL     1      20.241 -11.905  19.785  1.00  0.00     0.009 C 
ENDBRANCH  10  14
ENDBRANCH   2   4
ENDBRANCH   1   2
BRANCH   1  16
HETATM   16  C6  UNL     1      15.671 -16.527  22.309  1.00  0.00     0.050 C 
BRANCH  16  17
HETATM   17  C7  UNL     1      16.126 -16.222  20.936  1.00  0.00     0.276 C 
BRANCH  17  18
HETATM   18  N3  UNL     1      15.603 -15.048  20.331  1.00  0.00     0.114 N 
HETATM   19  C8  UNL     1      14.986 -15.282  19.049  1.00  0.00     0.276 C 
HETATM   20  C9  UNL     1      13.560 -14.851  18.996  1.00  0.00     0.058 C 
HETATM   21  C10 UNL     1      13.372 -13.440  19.495  1.00  0.00     0.241 C 
HETATM   22  N4  UNL     1      14.127 -13.140  20.675  1.00  0.00    -0.035 N 
HETATM   23  C11 UNL     1      13.100 -12.904  21.723  1.00  0.00     0.275 C 
HETATM   24  C16 UNL     1      14.844 -14.278  21.227  1.00  0.00     0.508 C 
BRANCH  22  25
HETATM   25  C12 UNL     1      14.861 -11.921  20.625  1.00  0.00     0.136 C 
HETATM   26  C13 UNL     1      14.159 -10.749  21.290  1.00  0.00     0.048 C 
HETATM   27  C14 UNL     1      16.255 -11.964  21.202  1.00  0.00     0.048 C 
BRANCH  25  28
HETATM   28  C15 UNL     1      15.116 -11.455  19.180  1.00  0.00     0.153 C 
HETATM   29 CL1  UNL     1      16.804 -11.970  18.822  1.00  0.00    -0.128 Cl
ENDBRANCH  25  28
ENDBRANCH  22  25
ENDBRANCH  17  18
ENDBRANCH  16  17
ENDBRANCH   1  16
TORSDOF 9
ENDMDL
MODEL 4
REMARK VINA RESULT: -7.271052971      0.935      1.476
REMARK  9 active torsions:
REMARK  status: ('A' for Active; 'I' for Inactive)
REMARK    1  A    between atoms: C2_2  and  C3_3 
REMARK    2  A    between atoms: C4_6  and  N2_7 
REMARK    3  A    between atoms: N2_7  and  C5_9 
REMARK    4  A    between atoms: C5_9  and  C6_10 
REMARK    5  A    between atoms: C6_10  and  C7_11 
REMARK    6  A    between atoms: C7_11  and  N3_12 
REMARK    7  A    between atoms: N4_16  and  C12_18 
REMARK    8  A    between atoms: C12_18  and  C15_21 
REMARK    9  A    between atoms: C18_27  and  C19_28 
ROOT
HETATM    1  C5  UNL     1      17.654 -11.427  20.973  1.00  0.00     0.140 C 
ENDROOT
BRANCH   1   2
HETATM    2  N2  UNL     1      16.562 -10.799  20.336  1.00  0.00    -0.226 N 
ATOM      3  H2  UNL     1      16.725 -10.066  19.645  1.00  0.00     0.177 HD
BRANCH   2   4
HETATM    4  C4  UNL     1      15.357 -11.155  20.628  1.00  0.00     0.679 A 
HETATM    5  N1  UNL     1      14.662 -12.263  20.282  1.00  0.00    -0.190 N 
HETATM    6  C3  UNL     1      13.429 -12.264  20.801  1.00  0.00     0.072 A 
ATOM      7  H1  UNL     1      15.033 -13.010  19.695  1.00  0.00     0.184 HD
HETATM    8  C17 UNL     1      13.319 -11.098  21.523  1.00  0.00     0.072 A 
HETATM    9  N5  UNL     1      14.479 -10.450  21.407  1.00  0.00    -0.190 N 
HETATM   10  C18 UNL     1      12.225 -10.728  22.201  1.00  0.00     0.005 C 
ATOM     11  H5  UNL     1      14.685  -9.550  21.840  1.00  0.00     0.184 HD
BRANCH   6  12
HETATM   12  C2  UNL     1      12.509 -13.205  20.639  1.00  0.00     0.001 C 
HETATM   13  C1  UNL     1      12.701 -14.322  19.680  1.00  0.00     0.038 C 
ENDBRANCH   6  12
BRANCH  10  14
HETATM   14  C19 UNL     1      12.285  -9.432  22.927  1.00  0.00     0.025 C 
HETATM   15  C20 UNL     1      11.561  -9.459  24.233  1.00  0.00     0.009 C 
ENDBRANCH  10  14
ENDBRANCH   2   4
ENDBRANCH   1   2
BRANCH   1  16
HETATM   16  C6  UNL     1      18.704 -12.006  20.070  1.00  0.00     0.050 C 
BRANCH  16  17
HETATM   17  C7  UNL     1      19.912 -12.484  20.775  1.00  0.00     0.276 C 
BRANCH  17  18
HETATM   18  N3  UNL     1      19.712 -13.368  21.868  1.00  0.00     0.114 N 
HETATM   19  C8  UNL     1      19.116 -14.627  21.494  1.00  0.00     0.276 C 
HETATM   20  C9  UNL     1      19.950 -15.805  21.868  1.00  0.00     0.058 C 
HETATM   21  C10 UNL     1      20.385 -15.762  23.312  1.00  0.00     0.241 C 
HETATM   22  N4  UNL     1      20.811 -14.465  23.747  1.00  0.00    -0.035 N 
HETATM   23  C11 UNL     1      22.258 -14.629  24.043  1.00  0.00     0.275 C 
HETATM   24  C16 UNL     1      20.846 -13.465  22.691  1.00  0.00     0.508 C 
BRANCH  22  25
HETATM   25  C12 UNL     1      20.249 -14.030  24.981  1.00  0.00     0.136 C 
HETATM   26  C13 UNL     1      18.746 -14.224  25.077  1.00  0.00     0.048 C 
HETATM   27  C14 UNL     1      20.837 -14.645  26.228  1.00  0.00     0.048 C 
BRANCH  25  28
HETATM   28  C15 UNL     1      20.466 -12.525  25.220  1.00  0.00     0.153 C 
HETATM   29 CL1  UNL     1      20.701 -12.372  26.999  1.00  0.00    -0.128 Cl
ENDBRANCH  25  28
ENDBRANCH  22  25
ENDBRANCH  17  18
ENDBRANCH  16  17
ENDBRANCH   1  16
TORSDOF 9
ENDMDL
MODEL 5
REMARK VINA RESULT: -7.269275110      1.219      1.570
REMARK  9 active torsions:
REMARK  status: ('A' for Active; 'I' for Inactive)
REMARK    1  A    between atoms: C2_2  and  C3_3 
REMARK    2  A    between atoms: C4_6  and  N2_7 
REMARK    3  A    between atoms: N2_7  and  C5_9 
REMARK    4  A    between atoms: C5_9  and  C6_10 
REMARK    5  A    between atoms: C6_10  and  C7_11 
REMARK    6  A    between atoms: C7_11  and  N3_12 
REMARK    7  A    between atoms: N4_16  and  C12_18 
REMARK    8  A    between atoms: C12_18  and  C15_21 
REMARK    9  A    between atoms: C18_27  and  C19_28 
ROOT
HETATM    1  C5  UNL     1      16.910 -11.556  19.182  1.00  0.00     0.140 C 
ENDROOT
BRANCH   1   2
HETATM    2  N2  UNL     1      16.123 -10.731  20.015  1.00  0.00    -0.226 N 
ATOM      3  H2  UNL     1      16.446  -9.794  20.258  1.00  0.00     0.177 HD
BRANCH   2   4
HETATM    4  C4  UNL     1      14.995 -11.164  20.466  1.00  0.00     0.679 A 
HETATM    5  N1  UNL     1      14.356 -12.337  20.249  1.00  0.00    -0.190 N 
HETATM    6  C3  UNL     1      13.198 -12.407  20.915  1.00  0.00     0.072 A 
ATOM      7  H1  UNL     1      14.715 -13.080  19.650  1.00  0.00     0.184 HD
HETATM    8  C17 UNL     1      13.080 -11.221  21.601  1.00  0.00     0.072 A 
HETATM    9  N5  UNL     1      14.162 -10.492  21.319  1.00  0.00    -0.190 N 
HETATM   10  C18 UNL     1      12.048 -10.903  22.393  1.00  0.00     0.005 C 
ATOM     11  H5  UNL     1      14.343  -9.559  21.689  1.00  0.00     0.184 HD
BRANCH   6  12
HETATM   12  C2  UNL     1      12.345 -13.423  20.903  1.00  0.00     0.001 C 
HETATM   13  C1  UNL     1      12.791 -14.813  21.168  1.00  0.00     0.038 C 
ENDBRANCH   6  12
BRANCH  10  14
HETATM   14  C19 UNL     1      12.088  -9.573  23.056  1.00  0.00     0.025 C 
HETATM   15  C20 UNL     1      11.383  -9.555  24.373  1.00  0.00     0.009 C 
ENDBRANCH  10  14
ENDBRANCH   2   4
ENDBRANCH   1   2
BRANCH   1  16
HETATM   16  C6  UNL     1      18.027 -12.302  19.854  1.00  0.00     0.050 C 
BRANCH  16  17
HETATM   17  C7  UNL     1      18.402 -11.765  21.179  1.00  0.00     0.276 C 
BRANCH  17  18
HETATM   18  N3  UNL     1      18.376 -12.672  22.272  1.00  0.00     0.114 N 
HETATM   19  C8  UNL     1      17.070 -13.223  22.537  1.00  0.00     0.276 C 
HETATM   20  C9  UNL     1      17.037 -14.712  22.475  1.00  0.00     0.058 C 
HETATM   21  C10 UNL     1      18.126 -15.342  23.307  1.00  0.00     0.241 C 
HETATM   22  N4  UNL     1      19.394 -14.687  23.189  1.00  0.00    -0.035 N 
HETATM   23  C11 UNL     1      20.273 -15.693  22.539  1.00  0.00     0.275 C 
HETATM   24  C16 UNL     1      19.419 -13.611  22.212  1.00  0.00     0.508 C 
BRANCH  22  25
HETATM   25  C12 UNL     1      20.042 -14.404  24.425  1.00  0.00     0.136 C 
HETATM   26  C13 UNL     1      19.128 -13.800  25.477  1.00  0.00     0.048 C 
HETATM   27  C14 UNL     1      20.740 -15.568  25.087  1.00  0.00     0.048 C 
BRANCH  25  28
HETATM   28  C15 UNL     1      21.182 -13.383  24.264  1.00  0.00     0.153 C 
HETATM   29 CL1  UNL     1      20.869 -12.140  25.528  1.00  0.00    -0.128 Cl
ENDBRANCH  25  28
ENDBRANCH  22  25
ENDBRANCH  17  18
ENDBRANCH  16  17
ENDBRANCH   1  16
TORSDOF 9
ENDMDL
