MODEL 1
REMARK VINA RESULT: -8.452505918      0.000      0.000
REMARK  10 active torsions:
REMARK  status: ('A' for Active; 'I' for Inactive)
REMARK    1  A    between atoms: C2_2  and  C3_3 
REMARK    2  A    between atoms: C4_4  and  C5_5 
REMARK    3  A    between atoms: C5_5  and  C7_7 
REMARK    4  A    between atoms: C7_7  and  N1_8 
REMARK    5  A    between atoms: C7_7  and  C18_30 
REMARK    6  A    between atoms: N1_8  and  C8_10 
REMARK    7  A    between atoms: C9_11  and  O1_12 
REMARK    8  A    between atoms: C12_16  and  O2_17 
REMARK    9  A    between atoms: C13_19  and  N2_20 
REMARK       I    between atoms: N2_20  and  C14_22 
REMARK   10  A    between atoms: C17_27  and  O4_28 
ROOT
HETATM    1  C8  UNL     1      15.044  56.308  37.622  1.00  0.00     0.097 A 
HETATM    2  C9  UNL     1      15.745  56.621  36.491  1.00  0.00     0.095 A 
HETATM    3  C10 UNL     1      16.945  56.070  36.133  1.00  0.00     0.054 A 
HETATM    4  C11 UNL     1      17.551  55.098  36.964  1.00  0.00     0.023 A 
HETATM    5  C12 UNL     1      18.733  54.468  36.737  1.00  0.00     0.111 A 
HETATM    6  C13 UNL     1      19.169  53.553  37.651  1.00  0.00     0.111 A 
HETATM    7  S1  UNL     1      17.873  53.607  38.828  1.00  0.00    -0.066 SA
HETATM    8  C16 UNL     1      16.877  54.766  38.101  1.00  0.00     0.055 A 
HETATM    9  C17 UNL     1      15.645  55.350  38.440  1.00  0.00     0.113 A 
ENDROOT
BRANCH   1  10
HETATM   10  N1  UNL     1      13.781  56.804  37.976  1.00  0.00    -0.370 N 
ATOM     11  H1  UNL     1      13.054  56.135  38.226  1.00  0.00     0.160 HD
BRANCH  10  12
HETATM   12  C7  UNL     1      13.452  58.226  38.007  1.00  0.00     0.190 C 
BRANCH  12  13
HETATM   13  C5  UNL     1      13.071  58.781  39.328  1.00  0.00     0.037 C 
HETATM   14  C6  UNL     1      13.968  59.974  39.710  1.00  0.00     0.017 C 
BRANCH  13  15
HETATM   15  C4  UNL     1      13.244  57.838  40.473  1.00  0.00    -0.024 C 
HETATM   16  C3  UNL     1      14.307  57.780  41.241  1.00  0.00    -0.031 C 
BRANCH  16  17
HETATM   17  C2  UNL     1      14.412  56.802  42.384  1.00  0.00     0.022 C 
HETATM   18  C1  UNL     1      13.165  55.996  42.562  1.00  0.00     0.009 C 
ENDBRANCH  16  17
ENDBRANCH  13  15
ENDBRANCH  12  13
BRANCH  12  19
HETATM   19  C18 UNL     1      12.243  58.333  37.087  1.00  0.00     0.197 C 
HETATM   20  O5  UNL     1      12.071  57.477  36.179  1.00  0.00    -0.646 OA
HETATM   21  O6  UNL     1      11.324  59.327  37.210  1.00  0.00    -0.646 OA
ENDBRANCH  12  19
ENDBRANCH  10  12
ENDBRANCH   1  10
BRANCH   2  22
HETATM   22  O1  UNL     1      15.250  57.586  35.591  1.00  0.00    -0.358 OA
ATOM     23  H1  UNL     1      15.789  57.892  34.871  1.00  0.00     0.217 HD
ENDBRANCH   2  22
BRANCH   9  24
HETATM   24  O4  UNL     1      15.107  54.898  39.627  1.00  0.00    -0.357 OA
ATOM     25  H4  UNL     1      15.442  55.127  40.486  1.00  0.00     0.217 HD
ENDBRANCH   9  24
BRANCH   5  26
HETATM   26  O2  UNL     1      19.551  54.712  35.589  1.00  0.00    -0.357 OA
ATOM     27  H2  UNL     1      20.327  54.206  35.381  1.00  0.00     0.217 HD
ENDBRANCH   5  26
BRANCH   6  28
HETATM   28  N2  UNL     1      20.313  52.729  37.745  1.00  0.00    -0.319 N 
HETATM   29  C14 UNL     1      21.016  52.029  36.784  1.00  0.00     0.218 C 
HETATM   30  C15 UNL     1      22.245  51.203  37.193  1.00  0.00     0.117 C 
HETATM   31  O3  UNL     1      20.791  51.961  35.557  1.00  0.00    -0.274 OA
ATOM     32  H2  UNL     1      20.687  52.636  38.689  1.00  0.00     0.169 HD
ENDBRANCH   6  28
TORSDOF 10
ENDMDL
MODEL 2
REMARK VINA RESULT: -8.451450253      2.706      8.077
REMARK  10 active torsions:
REMARK  status: ('A' for Active; 'I' for Inactive)
REMARK    1  A    between atoms: C2_2  and  C3_3 
REMARK    2  A    between atoms: C4_4  and  C5_5 
REMARK    3  A    between atoms: C5_5  and  C7_7 
REMARK    4  A    between atoms: C7_7  and  N1_8 
REMARK    5  A    between atoms: C7_7  and  C18_30 
REMARK    6  A    between atoms: N1_8  and  C8_10 
REMARK    7  A    between atoms: C9_11  and  O1_12 
REMARK    8  A    between atoms: C12_16  and  O2_17 
REMARK    9  A    between atoms: C13_19  and  N2_20 
REMARK       I    between atoms: N2_20  and  C14_22 
REMARK   10  A    between atoms: C17_27  and  O4_28 
ROOT
HETATM    1  C8  UNL     1      16.299  54.520  38.082  1.00  0.00     0.097 A 
HETATM    2  C9  UNL     1      15.787  54.936  36.884  1.00  0.00     0.095 A 
HETATM    3  C10 UNL     1      14.964  56.015  36.715  1.00  0.00     0.054 A 
HETATM    4  C11 UNL     1      14.582  56.795  37.833  1.00  0.00     0.023 A 
HETATM    5  C12 UNL     1      13.776  57.888  37.816  1.00  0.00     0.111 A 
HETATM    6  C13 UNL     1      13.512  58.520  38.997  1.00  0.00     0.111 A 
HETATM    7  S1  UNL     1      14.426  57.535  40.120  1.00  0.00    -0.066 SA
HETATM    8  C16 UNL     1      15.075  56.403  39.042  1.00  0.00     0.055 A 
HETATM    9  C17 UNL     1      15.919  55.288  39.183  1.00  0.00     0.113 A 
ENDROOT
BRANCH   1  10
HETATM   10  N1  UNL     1      17.199  53.462  38.273  1.00  0.00    -0.370 N 
ATOM     11  H1  UNL     1      16.896  52.667  38.835  1.00  0.00     0.160 HD
BRANCH  10  12
HETATM   12  C7  UNL     1      18.546  53.436  37.711  1.00  0.00     0.190 C 
BRANCH  12  13
HETATM   13  C5  UNL     1      19.150  52.094  37.522  1.00  0.00     0.037 C 
HETATM   14  C6  UNL     1      20.032  52.054  36.259  1.00  0.00     0.017 C 
BRANCH  13  15
HETATM   15  C4  UNL     1      18.166  50.995  37.293  1.00  0.00    -0.024 C 
HETATM   16  C3  UNL     1      17.684  50.655  36.121  1.00  0.00    -0.031 C 
BRANCH  16  17
HETATM   17  C2  UNL     1      16.692  49.529  35.963  1.00  0.00     0.022 C 
HETATM   18  C1  UNL     1      15.758  49.424  37.126  1.00  0.00     0.009 C 
ENDBRANCH  16  17
ENDBRANCH  13  15
ENDBRANCH  12  13
BRANCH  12  19
HETATM   19  C18 UNL     1      19.379  54.184  38.743  1.00  0.00     0.197 C 
HETATM   20  O5  UNL     1      19.196  53.967  39.970  1.00  0.00    -0.646 OA
HETATM   21  O6  UNL     1      20.331  55.087  38.389  1.00  0.00    -0.646 OA
ENDBRANCH  12  19
ENDBRANCH  10  12
ENDBRANCH   1  10
BRANCH   2  22
HETATM   22  O1  UNL     1      16.085  54.233  35.700  1.00  0.00    -0.358 OA
ATOM     23  H1  UNL     1      15.391  53.991  35.098  1.00  0.00     0.217 HD
ENDBRANCH   2  22
BRANCH   9  24
HETATM   24  O4  UNL     1      16.320  55.036  40.479  1.00  0.00    -0.357 OA
ATOM     25  H4  UNL     1      15.726  54.965  41.216  1.00  0.00     0.217 HD
ENDBRANCH   9  24
BRANCH   5  26
HETATM   26  O2  UNL     1      13.187  58.416  36.625  1.00  0.00    -0.357 OA
ATOM     27  H2  UNL     1      13.536  58.264  35.755  1.00  0.00     0.217 HD
ENDBRANCH   5  26
BRANCH   6  28
HETATM   28  N2  UNL     1      12.742  59.650  39.353  1.00  0.00    -0.319 N 
HETATM   29  C14 UNL     1      11.521  60.103  38.895  1.00  0.00     0.218 C 
HETATM   30  C15 UNL     1      10.920  61.391  39.482  1.00  0.00     0.117 C 
HETATM   31  O3  UNL     1      10.784  59.596  38.024  1.00  0.00    -0.274 OA
ATOM     32  H2  UNL     1      13.163  60.233  40.076  1.00  0.00     0.169 HD
ENDBRANCH   6  28
TORSDOF 10
ENDMDL
MODEL 3
REMARK VINA RESULT: -8.321774520      3.001      4.801
REMARK  10 active torsions:
REMARK  status: ('A' for Active; 'I' for Inactive)
REMARK    1  A    between atoms: C2_2  and  C3_3 
REMARK    2  A    between atoms: C4_4  and  C5_5 
REMARK    3  A    between atoms: C5_5  and  C7_7 
REMARK    4  A    between atoms: C7_7  and  N1_8 
REMARK    5  A    between atoms: C7_7  and  C18_30 
REMARK    6  A    between atoms: N1_8  and  C8_10 
REMARK    7  A    between atoms: C9_11  and  O1_12 
REMARK    8  A    between atoms: C12_16  and  O2_17 
REMARK    9  A    between atoms: C13_19  and  N2_20 
REMARK       I    between atoms: N2_20  and  C14_22 
REMARK   10  A    between atoms: C17_27  and  O4_28 
ROOT
HETATM    1  C8  UNL     1      17.515  52.293  37.864  1.00  0.00     0.097 A 
HETATM    2  C9  UNL     1      16.981  51.488  36.896  1.00  0.00     0.095 A 
HETATM    3  C10 UNL     1      17.695  50.867  35.909  1.00  0.00     0.054 A 
HETATM    4  C11 UNL     1      19.099  51.039  35.838  1.00  0.00     0.023 A 
HETATM    5  C12 UNL     1      19.932  50.487  34.918  1.00  0.00     0.111 A 
HETATM    6  C13 UNL     1      21.266  50.764  35.001  1.00  0.00     0.111 A 
HETATM    7  S1  UNL     1      21.308  51.815  36.400  1.00  0.00    -0.066 SA
HETATM    8  C16 UNL     1      19.660  51.839  36.787  1.00  0.00     0.055 A 
HETATM    9  C17 UNL     1      18.899  52.463  37.790  1.00  0.00     0.113 A 
ENDROOT
BRANCH   1  10
HETATM   10  N1  UNL     1      16.817  52.884  38.926  1.00  0.00    -0.370 N 
ATOM     11  H1  UNL     1      16.392  52.272  39.622  1.00  0.00     0.160 HD
BRANCH  10  12
HETATM   12  C7  UNL     1      16.666  54.327  39.091  1.00  0.00     0.190 C 
BRANCH  12  13
HETATM   13  C5  UNL     1      15.689  54.770  40.115  1.00  0.00     0.037 C 
HETATM   14  C6  UNL     1      14.514  53.779  40.227  1.00  0.00     0.017 C 
BRANCH  13  15
HETATM   15  C4  UNL     1      15.018  56.069  39.815  1.00  0.00    -0.024 C 
HETATM   16  C3  UNL     1      14.618  56.930  40.721  1.00  0.00    -0.031 C 
BRANCH  16  17
HETATM   17  C2  UNL     1      13.948  58.229  40.346  1.00  0.00     0.022 C 
HETATM   18  C1  UNL     1      14.143  58.576  38.905  1.00  0.00     0.009 C 
ENDBRANCH  16  17
ENDBRANCH  13  15
ENDBRANCH  12  13
BRANCH  12  19
HETATM   19  C18 UNL     1      16.165  54.792  37.731  1.00  0.00     0.197 C 
HETATM   20  O5  UNL     1      16.800  55.677  37.099  1.00  0.00    -0.646 OA
HETATM   21  O6  UNL     1      15.045  54.278  37.157  1.00  0.00    -0.646 OA
ENDBRANCH  12  19
ENDBRANCH  10  12
ENDBRANCH   1  10
BRANCH   2  22
HETATM   22  O1  UNL     1      15.592  51.252  36.854  1.00  0.00    -0.358 OA
ATOM     23  H1  UNL     1      15.256  50.364  36.889  1.00  0.00     0.217 HD
ENDBRANCH   2  22
BRANCH   9  24
HETATM   24  O4  UNL     1      19.632  53.238  38.665  1.00  0.00    -0.357 OA
ATOM     25  H4  UNL     1      19.958  54.106  38.463  1.00  0.00     0.217 HD
ENDBRANCH   9  24
BRANCH   5  26
HETATM   26  O2  UNL     1      19.488  49.629  33.864  1.00  0.00    -0.357 OA
ATOM     27  H2  UNL     1      19.977  49.487  33.062  1.00  0.00     0.217 HD
ENDBRANCH   5  26
BRANCH   6  28
HETATM   28  N2  UNL     1      22.396  50.380  34.243  1.00  0.00    -0.319 N 
HETATM   29  C14 UNL     1      22.586  50.269  32.880  1.00  0.00     0.218 C 
HETATM   30  C15 UNL     1      23.952  49.819  32.338  1.00  0.00     0.117 C 
HETATM   31  O3  UNL     1      21.767  50.493  31.963  1.00  0.00    -0.274 OA
ATOM     32  H2  UNL     1      23.215  50.143  34.802  1.00  0.00     0.169 HD
ENDBRANCH   6  28
TORSDOF 10
ENDMDL
MODEL 4
REMARK VINA RESULT: -8.262945045      2.720      7.792
REMARK  10 active torsions:
REMARK  status: ('A' for Active; 'I' for Inactive)
REMARK    1  A    between atoms: C2_2  and  C3_3 
REMARK    2  A    between atoms: C4_4  and  C5_5 
REMARK    3  A    between atoms: C5_5  and  C7_7 
REMARK    4  A    between atoms: C7_7  and  N1_8 
REMARK    5  A    between atoms: C7_7  and  C18_30 
REMARK    6  A    between atoms: N1_8  and  C8_10 
REMARK    7  A    between atoms: C9_11  and  O1_12 
REMARK    8  A    between atoms: C12_16  and  O2_17 
REMARK    9  A    between atoms: C13_19  and  N2_20 
REMARK       I    between atoms: N2_20  and  C14_22 
REMARK   10  A    between atoms: C17_27  and  O4_28 
ROOT
HETATM    1  C8  UNL     1      15.427  54.216  38.395  1.00  0.00     0.097 A 
HETATM    2  C9  UNL     1      15.148  54.750  37.166  1.00  0.00     0.095 A 
HETATM    3  C10 UNL     1      14.548  55.960  36.953  1.00  0.00     0.054 A 
HETATM    4  C11 UNL     1      14.164  56.762  38.055  1.00  0.00     0.023 A 
HETATM    5  C12 UNL     1      13.564  57.978  37.996  1.00  0.00     0.111 A 
HETATM    6  C13 UNL     1      13.262  58.612  39.166  1.00  0.00     0.111 A 
HETATM    7  S1  UNL     1      13.846  57.452  40.340  1.00  0.00    -0.066 SA
HETATM    8  C16 UNL     1      14.426  56.256  39.293  1.00  0.00     0.055 A 
HETATM    9  C17 UNL     1      15.045  55.008  39.479  1.00  0.00     0.113 A 
ENDROOT
BRANCH   1  10
HETATM   10  N1  UNL     1      16.103  53.013  38.640  1.00  0.00    -0.370 N 
ATOM     11  H1  UNL     1      15.833  52.191  38.102  1.00  0.00     0.160 HD
BRANCH  10  12
HETATM   12  C7  UNL     1      17.173  52.874  39.623  1.00  0.00     0.190 C 
BRANCH  12  13
HETATM   13  C5  UNL     1      18.526  53.290  39.180  1.00  0.00     0.037 C 
HETATM   14  C6  UNL     1      19.112  54.364  40.116  1.00  0.00     0.017 C 
BRANCH  13  15
HETATM   15  C4  UNL     1      18.570  53.938  37.837  1.00  0.00    -0.024 C 
HETATM   16  C3  UNL     1      18.920  55.184  37.619  1.00  0.00    -0.031 C 
BRANCH  16  17
HETATM   17  C2  UNL     1      18.944  55.774  36.231  1.00  0.00     0.022 C 
HETATM   18  C1  UNL     1      18.173  57.052  36.140  1.00  0.00     0.009 C 
ENDBRANCH  16  17
ENDBRANCH  13  15
ENDBRANCH  12  13
BRANCH  12  19
HETATM   19  C18 UNL     1      17.210  51.378  39.903  1.00  0.00     0.197 C 
HETATM   20  O5  UNL     1      16.420  50.881  40.750  1.00  0.00    -0.646 OA
HETATM   21  O6  UNL     1      18.068  50.542  39.262  1.00  0.00    -0.646 OA
ENDBRANCH  12  19
ENDBRANCH  10  12
ENDBRANCH   1  10
BRANCH   2  22
HETATM   22  O1  UNL     1      15.471  54.039  35.993  1.00  0.00    -0.358 OA
ATOM     23  H1  UNL     1      14.862  54.014  35.265  1.00  0.00     0.217 HD
ENDBRANCH   2  22
BRANCH   9  24
HETATM   24  O4  UNL     1      15.230  54.653  40.800  1.00  0.00    -0.357 OA
ATOM     25  H4  UNL     1      15.860  55.066  41.379  1.00  0.00     0.217 HD
ENDBRANCH   9  24
BRANCH   5  26
HETATM   26  O2  UNL     1      13.228  58.634  36.770  1.00  0.00    -0.357 OA
ATOM     27  H2  UNL     1      12.915  59.530  36.724  1.00  0.00     0.217 HD
ENDBRANCH   5  26
BRANCH   6  28
HETATM   28  N2  UNL     1      12.655  59.849  39.483  1.00  0.00    -0.319 N 
HETATM   29  C14 UNL     1      11.485  60.432  39.039  1.00  0.00     0.218 C 
HETATM   30  C15 UNL     1      11.075  61.814  39.572  1.00  0.00     0.117 C 
HETATM   31  O3  UNL     1      10.658  59.980  38.219  1.00  0.00    -0.274 OA
ATOM     32  H2  UNL     1      13.173  60.409  40.160  1.00  0.00     0.169 HD
ENDBRANCH   6  28
TORSDOF 10
ENDMDL
MODEL 5
REMARK VINA RESULT: -8.255754749      2.588      4.069
REMARK  10 active torsions:
REMARK  status: ('A' for Active; 'I' for Inactive)
REMARK    1  A    between atoms: C2_2  and  C3_3 
REMARK    2  A    between atoms: C4_4  and  C5_5 
REMARK    3  A    between atoms: C5_5  and  C7_7 
REMARK    4  A    between atoms: C7_7  and  N1_8 
REMARK    5  A    between atoms: C7_7  and  C18_30 
REMARK    6  A    between atoms: N1_8  and  C8_10 
REMARK    7  A    between atoms: C9_11  and  O1_12 
REMARK    8  A    between atoms: C12_16  and  O2_17 
REMARK    9  A    between atoms: C13_19  and  N2_20 
REMARK       I    between atoms: N2_20  and  C14_22 
REMARK   10  A    between atoms: C17_27  and  O4_28 
ROOT
HETATM    1  C8  UNL     1      17.864  53.645  38.015  1.00  0.00     0.097 A 
HETATM    2  C9  UNL     1      19.078  53.897  38.592  1.00  0.00     0.095 A 
HETATM    3  C10 UNL     1      20.274  53.398  38.156  1.00  0.00     0.054 A 
HETATM    4  C11 UNL     1      20.314  52.549  37.024  1.00  0.00     0.023 A 
HETATM    5  C12 UNL     1      21.422  51.984  36.480  1.00  0.00     0.111 A 
HETATM    6  C13 UNL     1      21.274  51.186  35.382  1.00  0.00     0.111 A 
HETATM    7  S1  UNL     1      19.541  51.258  35.143  1.00  0.00    -0.066 SA
HETATM    8  C16 UNL     1      19.119  52.277  36.428  1.00  0.00     0.055 A 
HETATM    9  C17 UNL     1      17.906  52.806  36.901  1.00  0.00     0.113 A 
ENDROOT
BRANCH   1  10
HETATM   10  N1  UNL     1      16.635  54.199  38.399  1.00  0.00    -0.370 N 
ATOM     11  H1  UNL     1      15.938  53.582  38.815  1.00  0.00     0.160 HD
BRANCH  10  12
HETATM   12  C7  UNL     1      16.299  55.611  38.236  1.00  0.00     0.190 C 
BRANCH  12  13
HETATM   13  C5  UNL     1      14.971  56.030  38.745  1.00  0.00     0.037 C 
HETATM   14  C6  UNL     1      14.706  57.518  38.449  1.00  0.00     0.017 C 
BRANCH  13  15
HETATM   15  C4  UNL     1      14.814  55.937  40.227  1.00  0.00    -0.024 C 
HETATM   16  C3  UNL     1      14.477  56.937  41.007  1.00  0.00    -0.031 C 
BRANCH  16  17
HETATM   17  C2  UNL     1      14.335  56.771  42.500  1.00  0.00     0.022 C 
HETATM   18  C1  UNL     1      13.179  55.897  42.869  1.00  0.00     0.009 C 
ENDBRANCH  16  17
ENDBRANCH  13  15
ENDBRANCH  12  13
BRANCH  12  19
HETATM   19  C18 UNL     1      16.306  55.807  36.726  1.00  0.00     0.197 C 
HETATM   20  O5  UNL     1      15.469  55.194  36.012  1.00  0.00    -0.646 OA
HETATM   21  O6  UNL     1      17.188  56.635  36.107  1.00  0.00    -0.646 OA
ENDBRANCH  12  19
ENDBRANCH  10  12
ENDBRANCH   1  10
BRANCH   2  22
HETATM   22  O1  UNL     1      19.166  54.718  39.735  1.00  0.00    -0.358 OA
ATOM     23  H1  UNL     1      19.401  54.346  40.576  1.00  0.00     0.217 HD
ENDBRANCH   2  22
BRANCH   9  24
HETATM   24  O4  UNL     1      16.796  52.423  36.177  1.00  0.00    -0.357 OA
ATOM     25  H4  UNL     1      16.614  52.708  35.289  1.00  0.00     0.217 HD
ENDBRANCH   9  24
BRANCH   5  26
HETATM   26  O2  UNL     1      22.742  52.178  36.995  1.00  0.00    -0.357 OA
ATOM     27  H2  UNL     1      23.469  52.492  36.470  1.00  0.00     0.217 HD
ENDBRANCH   5  26
BRANCH   6  28
HETATM   28  N2  UNL     1      22.172  50.454  34.573  1.00  0.00    -0.319 N 
HETATM   29  C14 UNL     1      22.172  50.187  33.219  1.00  0.00     0.218 C 
HETATM   30  C15 UNL     1      23.305  49.344  32.610  1.00  0.00     0.117 C 
HETATM   31  O3  UNL     1      21.341  50.547  32.359  1.00  0.00    -0.274 OA
ATOM     32  H2  UNL     1      22.960  50.052  35.081  1.00  0.00     0.169 HD
ENDBRANCH   6  28
TORSDOF 10
ENDMDL
