MODEL 1
REMARK VINA RESULT: -8.301174260      0.000      0.000
REMARK  9 active torsions:
REMARK  status: ('A' for Active; 'I' for Inactive)
REMARK    1  A    between atoms: O1_2  and  C2_3 
REMARK    2  A    between atoms: C5_6  and  N1_7 
REMARK    3  A    between atoms: N1_7  and  C6_9 
REMARK    4  A    between atoms: C6_9  and  C7_10 
REMARK       I    between atoms: N2_11  and  C8_13 
REMARK    5  A    between atoms: C10_19  and  O2_20 
REMARK    6  A    between atoms: C11_22  and  N5_23 
REMARK    7  A    between atoms: C12_25  and  C13_26 
REMARK    8  A    between atoms: C13_26  and  C14_27 
REMARK    9  A    between atoms: C18_31  and  O3_32 
ROOT
HETATM    1  C2  UNL     1      24.651  48.494  33.492  1.00  0.00     0.081 A 
HETATM    2  C3  UNL     1      25.821  48.416  34.195  1.00  0.00     0.040 A 
HETATM    3  C4  UNL     1      26.073  49.210  35.287  1.00  0.00     0.033 A 
HETATM    4  C5  UNL     1      25.091  50.130  35.690  1.00  0.00     0.042 A 
HETATM    5  C9  UNL     1      23.886  50.236  34.996  1.00  0.00     0.041 A 
HETATM    6  C10 UNL     1      22.890  51.130  35.358  1.00  0.00     0.108 A 
HETATM    7  C11 UNL     1      21.695  51.212  34.639  1.00  0.00     0.101 A 
HETATM    8  C18 UNL     1      21.507  50.389  33.554  1.00  0.00     0.120 A 
HETATM    9  C19 UNL     1      22.492  49.503  33.197  1.00  0.00     0.095 A 
HETATM   10  N6  UNL     1      22.317  48.644  32.076  1.00  0.00    -0.098 NA
HETATM   11  C20 UNL     1      23.689  49.406  33.898  1.00  0.00     0.040 A 
ENDROOT
BRANCH   4  12
HETATM   12  N1  UNL     1      25.375  50.930  36.804  1.00  0.00    -0.384 N 
ATOM     13  H1  UNL     1      25.245  51.941  36.779  1.00  0.00     0.160 HD
BRANCH  12  14
HETATM   14  C6  UNL     1      25.870  50.250  38.018  1.00  0.00     0.164 C 
BRANCH  14  15
HETATM   15  C7  UNL     1      25.491  51.059  39.185  1.00  0.00     0.083 C 
HETATM   16  N2  UNL     1      24.561  51.925  39.084  1.00  0.00    -0.343 N 
HETATM   17  C8  UNL     1      24.200  52.699  40.201  1.00  0.00     0.185 C 
ATOM     18  H2  UNL     1      24.080  52.057  38.194  1.00  0.00     0.167 HD
HETATM   19  N3  UNL     1      24.224  52.195  41.375  1.00  0.00    -0.374 N 
HETATM   20  N4  UNL     1      23.807  54.043  40.019  1.00  0.00    -0.064 NA
ATOM     21  H32 UNL     1      24.508  51.224  41.506  1.00  0.00     0.158 HD
ATOM     22  H31 UNL     1      23.961  52.757  42.185  1.00  0.00     0.158 HD
ENDBRANCH  14  15
ENDBRANCH  12  14
ENDBRANCH   4  12
BRANCH   6  23
HETATM   23  O2  UNL     1      23.034  51.963  36.425  1.00  0.00    -0.357 OA
ATOM     24  H2  UNL     1      22.945  52.904  36.336  1.00  0.00     0.217 HD
ENDBRANCH   6  23
BRANCH   1  25
HETATM   25  O1  UNL     1      24.388  47.708  32.401  1.00  0.00    -0.355 OA
HETATM   26  C1  UNL     1      24.965  46.453  32.229  1.00  0.00     0.210 C 
ENDBRANCH   1  25
BRANCH   7  27
HETATM   27  N5  UNL     1      20.664  52.128  35.003  1.00  0.00    -0.365 N 
HETATM   28  C12 UNL     1      19.685  51.818  35.771  1.00  0.00     0.065 C 
ATOM     29  H5  UNL     1      20.707  53.078  34.634  1.00  0.00     0.165 HD
BRANCH  28  30
HETATM   30  C13 UNL     1      18.669  52.849  36.086  1.00  0.00     0.072 C 
BRANCH  30  31
HETATM   31  C14 UNL     1      18.542  52.938  37.564  1.00  0.00    -0.020 C 
HETATM   32  C15 UNL     1      18.746  54.086  38.187  1.00  0.00    -0.091 C 
HETATM   33  C16 UNL     1      18.618  54.169  39.673  1.00  0.00     0.042 C 
HETATM   34  C17 UNL     1      19.107  55.286  37.373  1.00  0.00     0.042 C 
ENDBRANCH  30  31
ENDBRANCH  28  30
ENDBRANCH   7  27
BRANCH   8  35
HETATM   35  O3  UNL     1      20.350  50.390  32.764  1.00  0.00    -0.357 OA
ATOM     36  H3  UNL     1      20.243  49.866  31.979  1.00  0.00     0.218 HD
ENDBRANCH   8  35
TORSDOF 9
ENDMDL
MODEL 2
REMARK VINA RESULT: -8.262472910      2.753      8.032
REMARK  9 active torsions:
REMARK  status: ('A' for Active; 'I' for Inactive)
REMARK    1  A    between atoms: O1_2  and  C2_3 
REMARK    2  A    between atoms: C5_6  and  N1_7 
REMARK    3  A    between atoms: N1_7  and  C6_9 
REMARK    4  A    between atoms: C6_9  and  C7_10 
REMARK       I    between atoms: N2_11  and  C8_13 
REMARK    5  A    between atoms: C10_19  and  O2_20 
REMARK    6  A    between atoms: C11_22  and  N5_23 
REMARK    7  A    between atoms: C12_25  and  C13_26 
REMARK    8  A    between atoms: C13_26  and  C14_27 
REMARK    9  A    between atoms: C18_31  and  O3_32 
ROOT
HETATM    1  C2  UNL     1      25.281  51.857  39.891  1.00  0.00     0.081 A 
HETATM    2  C3  UNL     1      24.137  52.606  39.858  1.00  0.00     0.040 A 
HETATM    3  C4  UNL     1      23.324  52.651  38.751  1.00  0.00     0.033 A 
HETATM    4  C5  UNL     1      23.686  51.901  37.620  1.00  0.00     0.042 A 
HETATM    5  C9  UNL     1      24.846  51.127  37.619  1.00  0.00     0.041 A 
HETATM    6  C10 UNL     1      25.242  50.373  36.525  1.00  0.00     0.108 A 
HETATM    7  C11 UNL     1      26.412  49.610  36.557  1.00  0.00     0.101 A 
HETATM    8  C18 UNL     1      27.182  49.610  37.695  1.00  0.00     0.120 A 
HETATM    9  C19 UNL     1      26.789  50.355  38.779  1.00  0.00     0.095 A 
HETATM   10  N6  UNL     1      27.573  50.369  39.967  1.00  0.00    -0.098 NA
HETATM   11  C20 UNL     1      25.628  51.122  38.768  1.00  0.00     0.040 A 
ENDROOT
BRANCH   4  12
HETATM   12  N1  UNL     1      22.842  51.969  36.504  1.00  0.00    -0.384 N 
ATOM     13  H1  UNL     1      23.185  52.286  35.597  1.00  0.00     0.160 HD
BRANCH  12  14
HETATM   14  C6  UNL     1      21.435  51.562  36.694  1.00  0.00     0.164 C 
BRANCH  14  15
HETATM   15  C7  UNL     1      21.005  50.824  35.498  1.00  0.00     0.083 C 
HETATM   16  N2  UNL     1      21.753  50.794  34.466  1.00  0.00    -0.343 N 
HETATM   17  C8  UNL     1      21.340  50.088  33.321  1.00  0.00     0.185 C 
ATOM     18  H2  UNL     1      22.649  51.280  34.470  1.00  0.00     0.167 HD
HETATM   19  N3  UNL     1      20.678  49.001  33.433  1.00  0.00    -0.374 N 
HETATM   20  N4  UNL     1      21.663  50.588  32.041  1.00  0.00    -0.064 NA
ATOM     21  H32 UNL     1      20.444  48.640  34.359  1.00  0.00     0.158 HD
ATOM     22  H31 UNL     1      20.379  48.489  32.603  1.00  0.00     0.158 HD
ENDBRANCH  14  15
ENDBRANCH  12  14
ENDBRANCH   4  12
BRANCH   6  23
HETATM   23  O2  UNL     1      24.510  50.345  35.377  1.00  0.00    -0.357 OA
ATOM     24  H2  UNL     1      24.573  49.621  34.766  1.00  0.00     0.217 HD
ENDBRANCH   6  23
BRANCH   1  25
HETATM   25  O1  UNL     1      26.100  51.803  40.987  1.00  0.00    -0.355 OA
HETATM   26  C1  UNL     1      25.604  51.718  42.285  1.00  0.00     0.210 C 
ENDBRANCH   1  25
BRANCH   7  27
HETATM   27  N5  UNL     1      26.827  48.830  35.437  1.00  0.00    -0.365 N 
HETATM   28  C12 UNL     1      26.544  47.588  35.299  1.00  0.00     0.065 C 
ATOM     29  H5  UNL     1      27.378  49.285  34.708  1.00  0.00     0.165 HD
BRANCH  28  30
HETATM   30  C13 UNL     1      27.026  46.873  34.095  1.00  0.00     0.072 C 
BRANCH  30  31
HETATM   31  C14 UNL     1      25.964  45.929  33.661  1.00  0.00    -0.020 C 
HETATM   32  C15 UNL     1      25.472  45.988  32.435  1.00  0.00    -0.091 C 
HETATM   33  C16 UNL     1      24.405  45.036  32.005  1.00  0.00     0.042 C 
HETATM   34  C17 UNL     1      26.007  47.025  31.502  1.00  0.00     0.042 C 
ENDBRANCH  30  31
ENDBRANCH  28  30
ENDBRANCH   7  27
BRANCH   8  35
HETATM   35  O3  UNL     1      28.371  48.884  37.834  1.00  0.00    -0.357 OA
ATOM     36  H3  UNL     1      28.798  48.718  38.667  1.00  0.00     0.218 HD
ENDBRANCH   8  35
TORSDOF 9
ENDMDL
MODEL 3
REMARK VINA RESULT: -8.220625879      2.688      6.228
REMARK  9 active torsions:
REMARK  status: ('A' for Active; 'I' for Inactive)
REMARK    1  A    between atoms: O1_2  and  C2_3 
REMARK    2  A    between atoms: C5_6  and  N1_7 
REMARK    3  A    between atoms: N1_7  and  C6_9 
REMARK    4  A    between atoms: C6_9  and  C7_10 
REMARK       I    between atoms: N2_11  and  C8_13 
REMARK    5  A    between atoms: C10_19  and  O2_20 
REMARK    6  A    between atoms: C11_22  and  N5_23 
REMARK    7  A    between atoms: C12_25  and  C13_26 
REMARK    8  A    between atoms: C13_26  and  C14_27 
REMARK    9  A    between atoms: C18_31  and  O3_32 
ROOT
HETATM    1  C2  UNL     1      26.874  50.606  38.778  1.00  0.00     0.081 A 
HETATM    2  C3  UNL     1      27.664  49.596  38.301  1.00  0.00     0.040 A 
HETATM    3  C4  UNL     1      27.337  48.882  37.174  1.00  0.00     0.033 A 
HETATM    4  C5  UNL     1      26.152  49.205  36.493  1.00  0.00     0.042 A 
HETATM    5  C9  UNL     1      25.323  50.229  36.953  1.00  0.00     0.041 A 
HETATM    6  C10 UNL     1      24.143  50.580  36.313  1.00  0.00     0.108 A 
HETATM    7  C11 UNL     1      23.335  51.609  36.802  1.00  0.00     0.101 A 
HETATM    8  C18 UNL     1      23.718  52.283  37.936  1.00  0.00     0.120 A 
HETATM    9  C19 UNL     1      24.886  51.936  38.568  1.00  0.00     0.095 A 
HETATM   10  N6  UNL     1      25.300  52.621  39.744  1.00  0.00    -0.098 NA
HETATM   11  C20 UNL     1      25.706  50.915  38.099  1.00  0.00     0.040 A 
ENDROOT
BRANCH   4  12
HETATM   12  N1  UNL     1      25.841  48.459  35.349  1.00  0.00    -0.384 N 
ATOM     13  H1  UNL     1      24.885  48.397  35.000  1.00  0.00     0.160 HD
BRANCH  12  14
HETATM   14  C6  UNL     1      26.954  47.765  34.670  1.00  0.00     0.164 C 
BRANCH  14  15
HETATM   15  C7  UNL     1      26.530  46.388  34.385  1.00  0.00     0.083 C 
HETATM   16  N2  UNL     1      26.058  46.091  33.239  1.00  0.00    -0.343 N 
HETATM   17  C8  UNL     1      25.651  44.772  32.967  1.00  0.00     0.185 C 
ATOM     18  H2  UNL     1      25.974  46.809  32.520  1.00  0.00     0.167 HD
HETATM   19  N3  UNL     1      26.288  43.782  33.465  1.00  0.00    -0.374 N 
HETATM   20  N4  UNL     1      24.533  44.545  32.138  1.00  0.00    -0.064 NA
ATOM     21  H32 UNL     1      27.097  43.947  34.065  1.00  0.00     0.158 HD
ATOM     22  H31 UNL     1      25.993  42.826  33.267  1.00  0.00     0.158 HD
ENDBRANCH  14  15
ENDBRANCH  12  14
ENDBRANCH   4  12
BRANCH   6  23
HETATM   23  O2  UNL     1      23.726  49.939  35.188  1.00  0.00    -0.357 OA
ATOM     24  H2  UNL     1      22.981  50.249  34.686  1.00  0.00     0.217 HD
ENDBRANCH   6  23
BRANCH   1  25
HETATM   25  O1  UNL     1      27.188  51.325  39.901  1.00  0.00    -0.355 OA
HETATM   26  C1  UNL     1      28.052  50.841  40.880  1.00  0.00     0.210 C 
ENDBRANCH   1  25
BRANCH   7  27
HETATM   27  N5  UNL     1      22.120  51.979  36.151  1.00  0.00    -0.365 N 
HETATM   28  C12 UNL     1      20.970  51.530  36.497  1.00  0.00     0.065 C 
ATOM     29  H5  UNL     1      22.169  52.633  35.371  1.00  0.00     0.165 HD
BRANCH  28  30
HETATM   30  C13 UNL     1      19.773  51.981  35.751  1.00  0.00     0.072 C 
BRANCH  30  31
HETATM   31  C14 UNL     1      18.820  50.843  35.672  1.00  0.00    -0.020 C 
HETATM   32  C15 UNL     1      17.644  50.907  36.272  1.00  0.00    -0.091 C 
HETATM   33  C16 UNL     1      16.692  49.760  36.189  1.00  0.00     0.042 C 
HETATM   34  C17 UNL     1      17.298  52.147  37.030  1.00  0.00     0.042 C 
ENDBRANCH  30  31
ENDBRANCH  28  30
ENDBRANCH   7  27
BRANCH   8  35
HETATM   35  O3  UNL     1      22.983  53.327  38.511  1.00  0.00    -0.357 OA
ATOM     36  H3  UNL     1      22.041  53.424  38.424  1.00  0.00     0.218 HD
ENDBRANCH   8  35
TORSDOF 9
ENDMDL
MODEL 4
REMARK VINA RESULT: -8.178230613      3.251      7.415
REMARK  9 active torsions:
REMARK  status: ('A' for Active; 'I' for Inactive)
REMARK    1  A    between atoms: O1_2  and  C2_3 
REMARK    2  A    between atoms: C5_6  and  N1_7 
REMARK    3  A    between atoms: N1_7  and  C6_9 
REMARK    4  A    between atoms: C6_9  and  C7_10 
REMARK       I    between atoms: N2_11  and  C8_13 
REMARK    5  A    between atoms: C10_19  and  O2_20 
REMARK    6  A    between atoms: C11_22  and  N5_23 
REMARK    7  A    between atoms: C12_25  and  C13_26 
REMARK    8  A    between atoms: C13_26  and  C14_27 
REMARK    9  A    between atoms: C18_31  and  O3_32 
ROOT
HETATM    1  C2  UNL     1      16.999  53.284  39.174  1.00  0.00     0.081 A 
HETATM    2  C3  UNL     1      17.496  54.327  39.905  1.00  0.00     0.040 A 
HETATM    3  C4  UNL     1      18.801  54.742  39.793  1.00  0.00     0.033 A 
HETATM    4  C5  UNL     1      19.646  54.070  38.895  1.00  0.00     0.042 A 
HETATM    5  C9  UNL     1      19.172  53.002  38.134  1.00  0.00     0.041 A 
HETATM    6  C10 UNL     1      19.971  52.308  37.237  1.00  0.00     0.108 A 
HETATM    7  C11 UNL     1      19.464  51.241  36.492  1.00  0.00     0.101 A 
HETATM    8  C18 UNL     1      18.150  50.874  36.653  1.00  0.00     0.120 A 
HETATM    9  C19 UNL     1      17.358  51.561  37.540  1.00  0.00     0.095 A 
HETATM   10  N6  UNL     1      15.995  51.196  37.721  1.00  0.00    -0.098 NA
HETATM   11  C20 UNL     1      17.842  52.627  38.292  1.00  0.00     0.040 A 
ENDROOT
BRANCH   4  12
HETATM   12  N1  UNL     1      20.972  54.511  38.804  1.00  0.00    -0.384 N 
ATOM     13  H1  UNL     1      21.335  54.930  37.947  1.00  0.00     0.160 HD
BRANCH  12  14
HETATM   14  C6  UNL     1      21.825  54.345  39.998  1.00  0.00     0.164 C 
BRANCH  14  15
HETATM   15  C7  UNL     1      22.279  55.676  40.426  1.00  0.00     0.083 C 
HETATM   16  N2  UNL     1      23.194  55.783  41.307  1.00  0.00    -0.343 N 
HETATM   17  C8  UNL     1      23.627  57.057  41.717  1.00  0.00     0.185 C 
ATOM     18  H2  UNL     1      23.611  54.947  41.715  1.00  0.00     0.167 HD
HETATM   19  N3  UNL     1      23.688  58.021  40.880  1.00  0.00    -0.374 N 
HETATM   20  N4  UNL     1      23.998  57.267  43.062  1.00  0.00    -0.064 NA
ATOM     21  H32 UNL     1      23.420  57.869  39.908  1.00  0.00     0.158 HD
ATOM     22  H31 UNL     1      24.003  58.945  41.178  1.00  0.00     0.158 HD
ENDBRANCH  14  15
ENDBRANCH  12  14
ENDBRANCH   4  12
BRANCH   6  23
HETATM   23  O2  UNL     1      21.278  52.638  37.047  1.00  0.00    -0.357 OA
ATOM     24  H2  UNL     1      21.591  52.962  36.211  1.00  0.00     0.217 HD
ENDBRANCH   6  23
BRANCH   1  25
HETATM   25  O1  UNL     1      15.700  52.859  39.276  1.00  0.00    -0.355 OA
HETATM   26  C1  UNL     1      14.721  53.605  39.926  1.00  0.00     0.210 C 
ENDBRANCH   1  25
BRANCH   7  27
HETATM   27  N5  UNL     1      20.278  50.523  35.566  1.00  0.00    -0.365 N 
HETATM   28  C12 UNL     1      20.242  50.715  34.300  1.00  0.00     0.065 C 
ATOM     29  H5  UNL     1      20.921  49.820  35.931  1.00  0.00     0.165 HD
BRANCH  28  30
HETATM   30  C13 UNL     1      21.132  49.913  33.429  1.00  0.00     0.072 C 
BRANCH  30  31
HETATM   31  C14 UNL     1      21.882  50.845  32.548  1.00  0.00    -0.020 C 
HETATM   32  C15 UNL     1      23.135  50.591  32.213  1.00  0.00    -0.091 C 
HETATM   33  C16 UNL     1      23.884  51.533  31.328  1.00  0.00     0.042 C 
HETATM   34  C17 UNL     1      23.777  49.349  32.740  1.00  0.00     0.042 C 
ENDBRANCH  30  31
ENDBRANCH  28  30
ENDBRANCH   7  27
BRANCH   8  35
HETATM   35  O3  UNL     1      17.542  49.821  35.959  1.00  0.00    -0.357 OA
ATOM     36  H3  UNL     1      16.759  49.372  36.256  1.00  0.00     0.218 HD
ENDBRANCH   8  35
TORSDOF 9
ENDMDL
MODEL 5
REMARK VINA RESULT: -8.174907432      3.683      5.739
REMARK  9 active torsions:
REMARK  status: ('A' for Active; 'I' for Inactive)
REMARK    1  A    between atoms: O1_2  and  C2_3 
REMARK    2  A    between atoms: C5_6  and  N1_7 
REMARK    3  A    between atoms: N1_7  and  C6_9 
REMARK    4  A    between atoms: C6_9  and  C7_10 
REMARK       I    between atoms: N2_11  and  C8_13 
REMARK    5  A    between atoms: C10_19  and  O2_20 
REMARK    6  A    between atoms: C11_22  and  N5_23 
REMARK    7  A    between atoms: C12_25  and  C13_26 
REMARK    8  A    between atoms: C13_26  and  C14_27 
REMARK    9  A    between atoms: C18_31  and  O3_32 
ROOT
HETATM    1  C2  UNL     1      20.866  51.559  36.593  1.00  0.00     0.081 A 
HETATM    2  C3  UNL     1      22.119  51.889  37.029  1.00  0.00     0.040 A 
HETATM    3  C4  UNL     1      22.336  52.904  37.930  1.00  0.00     0.033 A 
HETATM    4  C5  UNL     1      21.230  53.620  38.415  1.00  0.00     0.042 A 
HETATM    5  C9  UNL     1      19.938  53.310  37.990  1.00  0.00     0.041 A 
HETATM    6  C10 UNL     1      18.818  53.992  38.441  1.00  0.00     0.108 A 
HETATM    7  C11 UNL     1      17.538  53.657  37.993  1.00  0.00     0.101 A 
HETATM    8  C18 UNL     1      17.390  52.632  37.089  1.00  0.00     0.120 A 
HETATM    9  C19 UNL     1      18.499  51.957  36.644  1.00  0.00     0.095 A 
HETATM   10  N6  UNL     1      18.367  50.893  35.707  1.00  0.00    -0.098 NA
HETATM   11  C20 UNL     1      19.782  52.274  37.077  1.00  0.00     0.040 A 
ENDROOT
BRANCH   4  12
HETATM   12  N1  UNL     1      21.479  54.652  39.330  1.00  0.00    -0.384 N 
ATOM     13  H1  UNL     1      20.842  55.442  39.425  1.00  0.00     0.160 HD
BRANCH  12  14
HETATM   14  C6  UNL     1      22.703  54.548  40.150  1.00  0.00     0.164 C 
BRANCH  14  15
HETATM   15  C7  UNL     1      23.076  55.899  40.591  1.00  0.00     0.083 C 
HETATM   16  N2  UNL     1      23.737  56.056  41.670  1.00  0.00    -0.343 N 
HETATM   17  C8  UNL     1      24.093  57.350  42.091  1.00  0.00     0.185 C 
ATOM     18  H2  UNL     1      24.008  55.246  42.226  1.00  0.00     0.167 HD
HETATM   19  N3  UNL     1      24.399  58.250  41.236  1.00  0.00    -0.374 N 
HETATM   20  N4  UNL     1      24.113  57.653  43.470  1.00  0.00    -0.064 NA
ATOM     21  H32 UNL     1      24.384  58.031  40.240  1.00  0.00     0.158 HD
ATOM     22  H31 UNL     1      24.657  59.188  41.543  1.00  0.00     0.158 HD
ENDBRANCH  14  15
ENDBRANCH  12  14
ENDBRANCH   4  12
BRANCH   6  23
HETATM   23  O2  UNL     1      18.918  55.013  39.336  1.00  0.00    -0.357 OA
ATOM     24  H2  UNL     1      18.195  55.608  39.494  1.00  0.00     0.217 HD
ENDBRANCH   6  23
BRANCH   1  25
HETATM   25  O1  UNL     1      20.636  50.551  35.694  1.00  0.00    -0.355 OA
HETATM   26  C1  UNL     1      21.480  50.307  34.614  1.00  0.00     0.210 C 
ENDBRANCH   1  25
BRANCH   7  27
HETATM   27  N5  UNL     1      16.379  54.351  38.452  1.00  0.00    -0.365 N 
HETATM   28  C12 UNL     1      15.980  55.463  37.954  1.00  0.00     0.065 C 
ATOM     29  H5  UNL     1      15.840  53.942  39.215  1.00  0.00     0.165 HD
BRANCH  28  30
HETATM   30  C13 UNL     1      14.762  56.099  38.506  1.00  0.00     0.072 C 
BRANCH  30  31
HETATM   31  C14 UNL     1      14.772  55.915  39.981  1.00  0.00    -0.020 C 
HETATM   32  C15 UNL     1      14.440  56.910  40.785  1.00  0.00    -0.091 C 
HETATM   33  C16 UNL     1      14.452  56.719  42.266  1.00  0.00     0.042 C 
HETATM   34  C17 UNL     1      14.057  58.221  40.176  1.00  0.00     0.042 C 
ENDBRANCH  30  31
ENDBRANCH  28  30
ENDBRANCH   7  27
BRANCH   8  35
HETATM   35  O3  UNL     1      16.155  52.216  36.575  1.00  0.00    -0.357 OA
ATOM     36  H3  UNL     1      15.976  52.107  35.648  1.00  0.00     0.218 HD
ENDBRANCH   8  35
TORSDOF 9
ENDMDL
