MODEL 1
REMARK VINA RESULT: -7.734161947      0.000      0.000
REMARK  15 active torsions:
REMARK  status: ('A' for Active; 'I' for Inactive)
REMARK    1  A    between atoms: C2_2  and  C5_5 
REMARK    2  A    between atoms: C6_6  and  O1_7 
REMARK    3  A    between atoms: C7_9  and  O2_10 
REMARK    4  A    between atoms: C8_12  and  C9_13 
REMARK    5  A    between atoms: C10_14  and  C11_15 
REMARK    6  A    between atoms: C11_15  and  C12_16 
REMARK    7  A    between atoms: C12_16  and  C13_17 
REMARK    8  A    between atoms: C13_17  and  C14_18 
REMARK    9  A    between atoms: C14_18  and  C15_19 
REMARK   10  A    between atoms: C15_19  and  C16_20 
REMARK   11  A    between atoms: C16_20  and  O3_26 
REMARK   12  A    between atoms: N1_21  and  N2_23 
REMARK   13  A    between atoms: O3_26  and  C17_27 
REMARK   14  A    between atoms: C20_31  and  O4_32 
REMARK   15  A    between atoms: C21_34  and  O5_35 
ROOT
HETATM    1  C17 UNL     1      19.065  55.652  37.145  1.00  0.00     0.154 C 
HETATM    2  C18 UNL     1      18.838  56.727  36.409  1.00  0.00     0.118 C 
HETATM    3  C19 UNL     1      17.611  56.806  35.675  1.00  0.00     0.089 C 
HETATM    4  N3  UNL     1      16.611  56.871  35.057  1.00  0.00    -0.192 NA
ENDROOT
BRANCH   1   5
HETATM    5  O3  UNL     1      18.175  54.622  37.229  1.00  0.00    -0.308 OA
BRANCH   5   6
HETATM    6  C16 UNL     1      18.392  53.344  36.844  1.00  0.00     0.137 C 
HETATM    7  N1  UNL     1      17.877  52.928  35.714  1.00  0.00    -0.290 N 
ATOM      8  H1  UNL     1      18.061  51.959  35.454  1.00  0.00     0.188 HD
BRANCH   6   9
HETATM    9  C15 UNL     1      19.204  52.349  37.640  1.00  0.00     0.086 C 
BRANCH   9  10
HETATM   10  C14 UNL     1      18.692  50.977  37.469  1.00  0.00     0.008 C 
BRANCH  10  11
HETATM   11  C13 UNL     1      17.774  50.376  38.451  1.00  0.00     0.001 C 
BRANCH  11  12
HETATM   12  C12 UNL     1      16.479  50.996  38.791  1.00  0.00     0.004 C 
BRANCH  12  13
HETATM   13  C11 UNL     1      16.268  51.620  40.113  1.00  0.00     0.027 C 
BRANCH  13  14
HETATM   14  C10 UNL     1      15.276  52.776  39.845  1.00  0.00    -0.026 C 
HETATM   15  C9  UNL     1      15.770  53.885  39.445  1.00  0.00     0.013 C 
BRANCH  15  16
HETATM   16  C8  UNL     1      15.068  55.102  39.131  1.00  0.00     0.035 A 
HETATM   17  C7  UNL     1      14.740  55.352  37.767  1.00  0.00     0.112 A 
HETATM   18  C6  UNL     1      14.084  56.501  37.414  1.00  0.00     0.109 A 
HETATM   19  C5  UNL     1      13.718  57.454  38.352  1.00  0.00     0.021 A 
HETATM   20  C21 UNL     1      14.040  57.200  39.660  1.00  0.00     0.109 A 
HETATM   21  C20 UNL     1      14.703  56.050  40.060  1.00  0.00     0.112 A 
BRANCH  17  22
HETATM   22  O2  UNL     1      15.107  54.404  36.855  1.00  0.00    -0.357 OA
ATOM     23  H2  UNL     1      15.973  54.015  36.841  1.00  0.00     0.217 HD
ENDBRANCH  17  22
BRANCH  18  24
HETATM   24  O1  UNL     1      13.780  56.705  36.062  1.00  0.00    -0.357 OA
ATOM     25  H1  UNL     1      14.192  56.162  35.400  1.00  0.00     0.217 HD
ENDBRANCH  18  24
BRANCH  19  26
HETATM   26  C2  UNL     1      13.041  58.643  37.895  1.00  0.00    -0.018 C 
HETATM   27  C1  UNL     1      13.563  59.067  36.505  1.00  0.00     0.019 C 
HETATM   28  C3  UNL     1      11.560  58.292  37.683  1.00  0.00     0.019 C 
HETATM   29  C4  UNL     1      13.072  59.858  38.736  1.00  0.00     0.019 C 
ENDBRANCH  19  26
BRANCH  20  30
HETATM   30  O5  UNL     1      13.671  58.150  40.565  1.00  0.00    -0.357 OA
ATOM     31  H5  UNL     1      13.014  57.891  41.200  1.00  0.00     0.217 HD
ENDBRANCH  20  30
BRANCH  21  32
HETATM   32  O4  UNL     1      14.994  55.863  41.388  1.00  0.00    -0.357 OA
ATOM     33  H4  UNL     1      15.658  55.236  41.650  1.00  0.00     0.217 HD
ENDBRANCH  21  32
ENDBRANCH  15  16
ENDBRANCH  13  14
ENDBRANCH  12  13
ENDBRANCH  11  12
ENDBRANCH  10  11
ENDBRANCH   9  10
ENDBRANCH   6   9
BRANCH   7  34
HETATM   34  N2  UNL     1      17.112  53.667  34.847  1.00  0.00    -0.343 N 
ATOM     35  H22 UNL     1      16.917  54.626  35.136  1.00  0.00     0.176 HD
ATOM     36  H21 UNL     1      16.729  53.350  33.957  1.00  0.00     0.176 HD
ENDBRANCH   7  34
ENDBRANCH   5   6
ENDBRANCH   1   5
TORSDOF 15
ENDMDL
MODEL 2
REMARK VINA RESULT: -7.679959490      1.068      2.334
REMARK  15 active torsions:
REMARK  status: ('A' for Active; 'I' for Inactive)
REMARK    1  A    between atoms: C2_2  and  C5_5 
REMARK    2  A    between atoms: C6_6  and  O1_7 
REMARK    3  A    between atoms: C7_9  and  O2_10 
REMARK    4  A    between atoms: C8_12  and  C9_13 
REMARK    5  A    between atoms: C10_14  and  C11_15 
REMARK    6  A    between atoms: C11_15  and  C12_16 
REMARK    7  A    between atoms: C12_16  and  C13_17 
REMARK    8  A    between atoms: C13_17  and  C14_18 
REMARK    9  A    between atoms: C14_18  and  C15_19 
REMARK   10  A    between atoms: C15_19  and  C16_20 
REMARK   11  A    between atoms: C16_20  and  O3_26 
REMARK   12  A    between atoms: N1_21  and  N2_23 
REMARK   13  A    between atoms: O3_26  and  C17_27 
REMARK   14  A    between atoms: C20_31  and  O4_32 
REMARK   15  A    between atoms: C21_34  and  O5_35 
ROOT
HETATM    1  C17 UNL     1      19.271  53.872  37.854  1.00  0.00     0.154 C 
HETATM    2  C18 UNL     1      19.188  55.177  38.053  1.00  0.00     0.118 C 
HETATM    3  C19 UNL     1      19.149  56.041  36.912  1.00  0.00     0.089 C 
HETATM    4  N3  UNL     1      19.132  56.758  35.978  1.00  0.00    -0.192 NA
ENDROOT
BRANCH   1   5
HETATM    5  O3  UNL     1      19.321  53.324  36.606  1.00  0.00    -0.308 OA
BRANCH   5   6
HETATM    6  C16 UNL     1      18.409  52.485  36.064  1.00  0.00     0.137 C 
HETATM    7  N1  UNL     1      17.491  52.976  35.270  1.00  0.00    -0.290 N 
ATOM      8  H1  UNL     1      16.819  52.316  34.879  1.00  0.00     0.188 HD
BRANCH   6   9
HETATM    9  C15 UNL     1      18.377  50.996  36.318  1.00  0.00     0.086 C 
BRANCH   9  10
HETATM   10  C14 UNL     1      17.004  50.522  36.574  1.00  0.00     0.008 C 
BRANCH  10  11
HETATM   11  C13 UNL     1      16.560  50.167  37.931  1.00  0.00     0.001 C 
BRANCH  11  12
HETATM   12  C12 UNL     1      17.332  50.544  39.131  1.00  0.00     0.004 C 
BRANCH  12  13
HETATM   13  C11 UNL     1      16.658  51.136  40.304  1.00  0.00     0.027 C 
BRANCH  13  14
HETATM   14  C10 UNL     1      15.713  52.207  39.711  1.00  0.00    -0.026 C 
HETATM   15  C9  UNL     1      16.186  53.384  39.567  1.00  0.00     0.013 C 
BRANCH  15  16
HETATM   16  C8  UNL     1      15.516  54.548  39.044  1.00  0.00     0.035 A 
HETATM   17  C7  UNL     1      15.278  55.637  39.931  1.00  0.00     0.112 A 
HETATM   18  C6  UNL     1      14.634  56.760  39.486  1.00  0.00     0.109 A 
HETATM   19  C5  UNL     1      14.192  56.883  38.178  1.00  0.00     0.021 A 
HETATM   20  C21 UNL     1      14.427  55.827  37.336  1.00  0.00     0.109 A 
HETATM   21  C20 UNL     1      15.077  54.671  37.746  1.00  0.00     0.112 A 
BRANCH  17  22
HETATM   22  O2  UNL     1      15.720  55.502  41.215  1.00  0.00    -0.357 OA
ATOM     23  H2  UNL     1      16.340  56.103  41.610  1.00  0.00     0.217 HD
ENDBRANCH  17  22
BRANCH  18  24
HETATM   24  O1  UNL     1      14.422  57.808  40.392  1.00  0.00    -0.357 OA
ATOM     25  H1  UNL     1      14.993  57.902  41.145  1.00  0.00     0.217 HD
ENDBRANCH  18  24
BRANCH  19  26
HETATM   26  C2  UNL     1      13.509  58.094  37.794  1.00  0.00    -0.018 C 
HETATM   27  C1  UNL     1      13.997  58.580  36.412  1.00  0.00     0.019 C 
HETATM   28  C3  UNL     1      12.021  57.761  37.606  1.00  0.00     0.019 C 
HETATM   29  C4  UNL     1      13.569  59.270  38.689  1.00  0.00     0.019 C 
ENDBRANCH  19  26
BRANCH  20  30
HETATM   30  O5  UNL     1      13.985  55.968  36.055  1.00  0.00    -0.357 OA
ATOM     31  H5  UNL     1      14.652  55.973  35.379  1.00  0.00     0.217 HD
ENDBRANCH  20  30
BRANCH  21  32
HETATM   32  O4  UNL     1      15.277  53.653  36.848  1.00  0.00    -0.357 OA
ATOM     33  H4  UNL     1      15.352  53.840  35.919  1.00  0.00     0.217 HD
ENDBRANCH  21  32
ENDBRANCH  15  16
ENDBRANCH  13  14
ENDBRANCH  12  13
ENDBRANCH  11  12
ENDBRANCH  10  11
ENDBRANCH   9  10
ENDBRANCH   6   9
BRANCH   7  34
HETATM   34  N2  UNL     1      17.343  54.293  34.912  1.00  0.00    -0.343 N 
ATOM     35  H22 UNL     1      17.828  54.969  35.503  1.00  0.00     0.176 HD
ATOM     36  H21 UNL     1      16.803  54.649  34.124  1.00  0.00     0.176 HD
ENDBRANCH   7  34
ENDBRANCH   5   6
ENDBRANCH   1   5
TORSDOF 15
ENDMDL
MODEL 3
REMARK VINA RESULT: -7.586671110      2.089      2.797
REMARK  15 active torsions:
REMARK  status: ('A' for Active; 'I' for Inactive)
REMARK    1  A    between atoms: C2_2  and  C5_5 
REMARK    2  A    between atoms: C6_6  and  O1_7 
REMARK    3  A    between atoms: C7_9  and  O2_10 
REMARK    4  A    between atoms: C8_12  and  C9_13 
REMARK    5  A    between atoms: C10_14  and  C11_15 
REMARK    6  A    between atoms: C11_15  and  C12_16 
REMARK    7  A    between atoms: C12_16  and  C13_17 
REMARK    8  A    between atoms: C13_17  and  C14_18 
REMARK    9  A    between atoms: C14_18  and  C15_19 
REMARK   10  A    between atoms: C15_19  and  C16_20 
REMARK   11  A    between atoms: C16_20  and  O3_26 
REMARK   12  A    between atoms: N1_21  and  N2_23 
REMARK   13  A    between atoms: O3_26  and  C17_27 
REMARK   14  A    between atoms: C20_31  and  O4_32 
REMARK   15  A    between atoms: C21_34  and  O5_35 
ROOT
HETATM    1  C17 UNL     1      18.638  54.220  39.064  1.00  0.00     0.154 C 
HETATM    2  C18 UNL     1      19.345  54.375  40.171  1.00  0.00     0.118 C 
HETATM    3  C19 UNL     1      20.569  55.115  40.102  1.00  0.00     0.089 C 
HETATM    4  N3  UNL     1      21.584  55.710  40.049  1.00  0.00    -0.192 NA
ENDROOT
BRANCH   1   5
HETATM    5  O3  UNL     1      19.033  54.738  37.865  1.00  0.00    -0.308 OA
BRANCH   5   6
HETATM    6  C16 UNL     1      19.116  54.068  36.694  1.00  0.00     0.137 C 
HETATM    7  N1  UNL     1      18.680  54.646  35.603  1.00  0.00    -0.290 N 
ATOM      8  H1  UNL     1      18.758  54.112  34.737  1.00  0.00     0.188 HD
BRANCH   6   9
HETATM    9  C15 UNL     1      19.686  52.675  36.557  1.00  0.00     0.086 C 
BRANCH   9  10
HETATM   10  C14 UNL     1      18.734  51.766  35.890  1.00  0.00     0.008 C 
BRANCH  10  11
HETATM   11  C13 UNL     1      18.192  50.586  36.583  1.00  0.00     0.001 C 
BRANCH  11  12
HETATM   12  C12 UNL     1      16.938  49.936  36.155  1.00  0.00     0.004 C 
BRANCH  12  13
HETATM   13  C11 UNL     1      15.864  49.659  37.130  1.00  0.00     0.027 C 
BRANCH  13  14
HETATM   14  C10 UNL     1      15.147  51.017  37.316  1.00  0.00    -0.026 C 
HETATM   15  C9  UNL     1      15.799  51.942  37.909  1.00  0.00     0.013 C 
BRANCH  15  16
HETATM   16  C8  UNL     1      15.360  53.282  38.204  1.00  0.00     0.035 A 
HETATM   17  C7  UNL     1      15.409  54.247  37.158  1.00  0.00     0.112 A 
HETATM   18  C6  UNL     1      15.015  55.537  37.391  1.00  0.00     0.109 A 
HETATM   19  C5  UNL     1      14.561  55.953  38.633  1.00  0.00     0.021 A 
HETATM   20  C21 UNL     1      14.520  55.014  39.630  1.00  0.00     0.109 A 
HETATM   21  C20 UNL     1      14.909  53.696  39.437  1.00  0.00     0.112 A 
BRANCH  17  22
HETATM   22  O2  UNL     1      15.858  53.823  35.940  1.00  0.00    -0.357 OA
ATOM     23  H2  UNL     1      16.735  53.484  35.808  1.00  0.00     0.217 HD
ENDBRANCH  17  22
BRANCH  18  24
HETATM   24  O1  UNL     1      15.078  56.454  36.332  1.00  0.00    -0.357 OA
ATOM     25  H1  UNL     1      15.180  56.138  35.442  1.00  0.00     0.217 HD
ENDBRANCH  18  24
BRANCH  19  26
HETATM   26  C2  UNL     1      14.177  57.334  38.797  1.00  0.00    -0.018 C 
HETATM   27  C1  UNL     1      15.005  58.245  37.865  1.00  0.00     0.019 C 
HETATM   28  C3  UNL     1      12.723  57.481  38.323  1.00  0.00     0.019 C 
HETATM   29  C4  UNL     1      14.248  57.946  40.142  1.00  0.00     0.019 C 
ENDBRANCH  19  26
BRANCH  20  30
HETATM   30  O5  UNL     1      14.070  55.443  40.843  1.00  0.00    -0.357 OA
ATOM     31  H5  UNL     1      13.796  54.767  41.452  1.00  0.00     0.217 HD
ENDBRANCH  20  30
BRANCH  21  32
HETATM   32  O4  UNL     1      14.842  52.810  40.482  1.00  0.00    -0.357 OA
ATOM     33  H4  UNL     1      14.099  52.823  41.075  1.00  0.00     0.217 HD
ENDBRANCH  21  32
ENDBRANCH  15  16
ENDBRANCH  13  14
ENDBRANCH  12  13
ENDBRANCH  11  12
ENDBRANCH  10  11
ENDBRANCH   9  10
ENDBRANCH   6   9
BRANCH   7  34
HETATM   34  N2  UNL     1      18.130  55.900  35.509  1.00  0.00    -0.343 N 
ATOM     35  H22 UNL     1      18.604  56.545  34.878  1.00  0.00     0.176 HD
ATOM     36  H21 UNL     1      17.305  56.236  36.006  1.00  0.00     0.176 HD
ENDBRANCH   7  34
ENDBRANCH   5   6
ENDBRANCH   1   5
TORSDOF 15
ENDMDL
MODEL 4
REMARK VINA RESULT: -7.497246330      2.689      6.853
REMARK  15 active torsions:
REMARK  status: ('A' for Active; 'I' for Inactive)
REMARK    1  A    between atoms: C2_2  and  C5_5 
REMARK    2  A    between atoms: C6_6  and  O1_7 
REMARK    3  A    between atoms: C7_9  and  O2_10 
REMARK    4  A    between atoms: C8_12  and  C9_13 
REMARK    5  A    between atoms: C10_14  and  C11_15 
REMARK    6  A    between atoms: C11_15  and  C12_16 
REMARK    7  A    between atoms: C12_16  and  C13_17 
REMARK    8  A    between atoms: C13_17  and  C14_18 
REMARK    9  A    between atoms: C14_18  and  C15_19 
REMARK   10  A    between atoms: C15_19  and  C16_20 
REMARK   11  A    between atoms: C16_20  and  O3_26 
REMARK   12  A    between atoms: N1_21  and  N2_23 
REMARK   13  A    between atoms: O3_26  and  C17_27 
REMARK   14  A    between atoms: C20_31  and  O4_32 
REMARK   15  A    between atoms: C21_34  and  O5_35 
ROOT
HETATM    1  C17 UNL     1      11.630  59.677  38.283  1.00  0.00     0.154 C 
HETATM    2  C18 UNL     1      11.561  60.744  39.060  1.00  0.00     0.118 C 
HETATM    3  C19 UNL     1      12.751  61.512  39.273  1.00  0.00     0.089 C 
HETATM    4  N3  UNL     1      13.728  62.140  39.465  1.00  0.00    -0.192 NA
ENDROOT
BRANCH   1   5
HETATM    5  O3  UNL     1      12.789  59.285  37.680  1.00  0.00    -0.308 OA
BRANCH   5   6
HETATM    6  C16 UNL     1      13.572  58.246  38.052  1.00  0.00     0.137 C 
HETATM    7  N1  UNL     1      13.555  57.152  37.332  1.00  0.00    -0.290 N 
ATOM      8  H1  UNL     1      14.157  56.389  37.640  1.00  0.00     0.188 HD
BRANCH   6   9
HETATM    9  C15 UNL     1      14.479  58.263  39.260  1.00  0.00     0.086 C 
BRANCH   9  10
HETATM   10  C14 UNL     1      13.712  58.110  40.511  1.00  0.00     0.008 C 
BRANCH  10  11
HETATM   11  C13 UNL     1      14.164  57.202  41.578  1.00  0.00     0.001 C 
BRANCH  11  12
HETATM   12  C12 UNL     1      13.221  56.371  42.350  1.00  0.00     0.004 C 
BRANCH  12  13
HETATM   13  C11 UNL     1      12.946  54.976  41.950  1.00  0.00     0.027 C 
BRANCH  13  14
HETATM   14  C10 UNL     1      14.153  54.578  41.069  1.00  0.00    -0.026 C 
HETATM   15  C9  UNL     1      14.065  53.478  40.425  1.00  0.00     0.013 C 
BRANCH  15  16
HETATM   16  C8  UNL     1      15.043  52.889  39.546  1.00  0.00     0.035 A 
HETATM   17  C7  UNL     1      15.250  53.495  38.274  1.00  0.00     0.112 A 
HETATM   18  C6  UNL     1      16.158  52.966  37.397  1.00  0.00     0.109 A 
HETATM   19  C5  UNL     1      16.901  51.837  37.704  1.00  0.00     0.021 A 
HETATM   20  C21 UNL     1      16.691  51.263  38.931  1.00  0.00     0.109 A 
HETATM   21  C20 UNL     1      15.782  51.768  39.849  1.00  0.00     0.112 A 
BRANCH  17  22
HETATM   22  O2  UNL     1      14.511  54.606  37.987  1.00  0.00    -0.357 OA
ATOM     23  H2  UNL     1      14.906  55.443  37.772  1.00  0.00     0.217 HD
ENDBRANCH  17  22
BRANCH  18  24
HETATM   24  O1  UNL     1      16.331  53.595  36.157  1.00  0.00    -0.357 OA
ATOM     25  H1  UNL     1      15.592  53.683  35.567  1.00  0.00     0.217 HD
ENDBRANCH  18  24
BRANCH  19  26
HETATM   26  C2  UNL     1      17.828  51.335  36.718  1.00  0.00    -0.018 C 
HETATM   27  C1  UNL     1      18.199  52.441  35.706  1.00  0.00     0.019 C 
HETATM   28  C3  UNL     1      19.140  50.986  37.437  1.00  0.00     0.019 C 
HETATM   29  C4  UNL     1      17.456  50.150  35.916  1.00  0.00     0.019 C 
ENDBRANCH  19  26
BRANCH  20  30
HETATM   30  O5  UNL     1      17.432  50.155  39.212  1.00  0.00    -0.357 OA
ATOM     31  H5  UNL     1      18.240  50.054  38.723  1.00  0.00     0.217 HD
ENDBRANCH  20  30
BRANCH  21  32
HETATM   32  O4  UNL     1      15.623  51.141  41.059  1.00  0.00    -0.357 OA
ATOM     33  H4  UNL     1      16.089  51.454  41.826  1.00  0.00     0.217 HD
ENDBRANCH  21  32
ENDBRANCH  15  16
ENDBRANCH  13  14
ENDBRANCH  12  13
ENDBRANCH  11  12
ENDBRANCH  10  11
ENDBRANCH   9  10
ENDBRANCH   6   9
BRANCH   7  34
HETATM   34  N2  UNL     1      12.806  56.932  36.203  1.00  0.00    -0.343 N 
ATOM     35  H22 UNL     1      12.060  56.242  36.295  1.00  0.00     0.176 HD
ATOM     36  H21 UNL     1      12.927  57.387  35.299  1.00  0.00     0.176 HD
ENDBRANCH   7  34
ENDBRANCH   5   6
ENDBRANCH   1   5
TORSDOF 15
ENDMDL
MODEL 5
REMARK VINA RESULT: -7.389785759      1.122      2.477
REMARK  15 active torsions:
REMARK  status: ('A' for Active; 'I' for Inactive)
REMARK    1  A    between atoms: C2_2  and  C5_5 
REMARK    2  A    between atoms: C6_6  and  O1_7 
REMARK    3  A    between atoms: C7_9  and  O2_10 
REMARK    4  A    between atoms: C8_12  and  C9_13 
REMARK    5  A    between atoms: C10_14  and  C11_15 
REMARK    6  A    between atoms: C11_15  and  C12_16 
REMARK    7  A    between atoms: C12_16  and  C13_17 
REMARK    8  A    between atoms: C13_17  and  C14_18 
REMARK    9  A    between atoms: C14_18  and  C15_19 
REMARK   10  A    between atoms: C15_19  and  C16_20 
REMARK   11  A    between atoms: C16_20  and  O3_26 
REMARK   12  A    between atoms: N1_21  and  N2_23 
REMARK   13  A    between atoms: O3_26  and  C17_27 
REMARK   14  A    between atoms: C20_31  and  O4_32 
REMARK   15  A    between atoms: C21_34  and  O5_35 
ROOT
HETATM    1  C17 UNL     1      19.451  54.281  37.424  1.00  0.00     0.154 C 
HETATM    2  C18 UNL     1      18.772  55.409  37.542  1.00  0.00     0.118 C 
HETATM    3  C19 UNL     1      18.249  56.019  36.357  1.00  0.00     0.089 C 
HETATM    4  N3  UNL     1      17.828  56.533  35.385  1.00  0.00    -0.192 NA
ENDROOT
BRANCH   1   5
HETATM    5  O3  UNL     1      19.668  53.680  36.219  1.00  0.00    -0.308 OA
BRANCH   5   6
HETATM    6  C16 UNL     1      19.053  52.568  35.757  1.00  0.00     0.137 C 
HETATM    7  N1  UNL     1      19.715  51.760  34.968  1.00  0.00    -0.290 N 
ATOM      8  H1  UNL     1      19.221  50.931  34.639  1.00  0.00     0.188 HD
BRANCH   6   9
HETATM    9  C15 UNL     1      17.630  52.188  36.098  1.00  0.00     0.086 C 
BRANCH   9  10
HETATM   10  C14 UNL     1      17.575  50.914  36.839  1.00  0.00     0.008 C 
BRANCH  10  11
HETATM   11  C13 UNL     1      18.054  50.817  38.227  1.00  0.00     0.001 C 
BRANCH  11  12
HETATM   12  C12 UNL     1      17.618  51.762  39.273  1.00  0.00     0.004 C 
BRANCH  12  13
HETATM   13  C11 UNL     1      16.380  51.517  40.039  1.00  0.00     0.027 C 
BRANCH  13  14
HETATM   14  C10 UNL     1      15.399  52.611  39.555  1.00  0.00    -0.026 C 
HETATM   15  C9  UNL     1      15.882  53.778  39.358  1.00  0.00     0.013 C 
BRANCH  15  16
HETATM   16  C8  UNL     1      15.185  54.958  38.913  1.00  0.00     0.035 A 
HETATM   17  C7  UNL     1      14.854  55.946  39.884  1.00  0.00     0.112 A 
HETATM   18  C6  UNL     1      14.181  57.079  39.515  1.00  0.00     0.109 A 
HETATM   19  C5  UNL     1      13.798  57.309  38.202  1.00  0.00     0.021 A 
HETATM   20  C21 UNL     1      14.122  56.350  37.278  1.00  0.00     0.109 A 
HETATM   21  C20 UNL     1      14.804  55.188  37.610  1.00  0.00     0.112 A 
BRANCH  17  22
HETATM   22  O2  UNL     1      15.238  55.705  41.172  1.00  0.00    -0.357 OA
ATOM     23  H2  UNL     1      16.039  55.244  41.390  1.00  0.00     0.217 HD
ENDBRANCH  17  22
BRANCH  18  24
HETATM   24  O1  UNL     1      13.877  58.025  40.502  1.00  0.00    -0.357 OA
ATOM     25  H1  UNL     1      14.565  58.582  40.848  1.00  0.00     0.217 HD
ENDBRANCH  18  24
BRANCH  19  26
HETATM   26  C2  UNL     1      13.080  58.523  37.899  1.00  0.00    -0.018 C 
HETATM   27  C1  UNL     1      13.404  59.621  38.934  1.00  0.00     0.019 C 
HETATM   28  C3  UNL     1      13.603  59.060  36.558  1.00  0.00     0.019 C 
HETATM   29  C4  UNL     1      11.605  58.480  37.790  1.00  0.00     0.019 C 
ENDBRANCH  19  26
BRANCH  20  30
HETATM   30  O5  UNL     1      13.737  56.595  35.995  1.00  0.00    -0.357 OA
ATOM     31  H5  UNL     1      13.943  55.921  35.358  1.00  0.00     0.217 HD
ENDBRANCH  20  30
BRANCH  21  32
HETATM   32  O4  UNL     1      15.095  54.270  36.632  1.00  0.00    -0.357 OA
ATOM     33  H4  UNL     1      15.859  53.711  36.712  1.00  0.00     0.217 HD
ENDBRANCH  21  32
ENDBRANCH  15  16
ENDBRANCH  13  14
ENDBRANCH  12  13
ENDBRANCH  11  12
ENDBRANCH  10  11
ENDBRANCH   9  10
ENDBRANCH   6   9
BRANCH   7  34
HETATM   34  N2  UNL     1      21.009  51.920  34.539  1.00  0.00    -0.343 N 
ATOM     35  H22 UNL     1      21.504  52.727  34.919  1.00  0.00     0.176 HD
ATOM     36  H21 UNL     1      21.509  51.315  33.888  1.00  0.00     0.176 HD
ENDBRANCH   7  34
ENDBRANCH   5   6
ENDBRANCH   1   5
TORSDOF 15
ENDMDL
