MODEL 1
REMARK VINA RESULT: -8.733768454      0.000      0.000
REMARK  14 active torsions:
REMARK  status: ('A' for Active; 'I' for Inactive)
REMARK    1  A    between atoms: C2_2  and  C9_17 
REMARK    2  A    between atoms: C3_3  and  C4_4 
REMARK    3  A    between atoms: C4_4  and  O1_5 
REMARK    4  A    between atoms: C5_7  and  C6_8 
REMARK    5  A    between atoms: C6_8  and  C7_9 
REMARK    6  A    between atoms: C7_9  and  N1_10 
REMARK    7  A    between atoms: C7_9  and  C8_13 
REMARK    8  A    between atoms: C9_17  and  C10_18 
REMARK    9  A    between atoms: C10_18  and  C11_19 
REMARK   10  A    between atoms: C12_20  and  C14_22 
REMARK   11  A    between atoms: C16_24  and  O2_25 
REMARK   12  A    between atoms: C17_27  and  O3_28 
REMARK   13  A    between atoms: C18_30  and  C19_31 
REMARK   14  A    between atoms: C20_34  and  O6_35 
ROOT
HETATM    1  C10 UNL     1      16.415  54.636  38.935  1.00  0.00     0.032 C 
ENDROOT
BRANCH   1   2
HETATM    2  C9  UNL     1      15.661  54.899  40.186  1.00  0.00     0.037 C 
BRANCH   2   3
HETATM    3  C2  UNL     1      14.877  56.178  40.118  1.00  0.00    -0.081 C 
HETATM    4  C1  UNL     1      14.356  56.590  41.473  1.00  0.00     0.043 C 
HETATM    5  C3  UNL     1      14.718  56.801  39.012  1.00  0.00     0.038 C 
BRANCH   5   6
HETATM    6  C4  UNL     1      14.067  58.019  38.576  1.00  0.00     0.066 C 
HETATM    7  C5  UNL     1      13.599  59.059  39.402  1.00  0.00     0.039 C 
BRANCH   6   8
HETATM    8  O1  UNL     1      13.908  58.150  37.291  1.00  0.00    -0.361 OA
ATOM      9  H1  UNL     1      13.013  58.258  36.993  1.00  0.00     0.217 HD
ENDBRANCH   6   8
BRANCH   7  10
HETATM   10  C6  UNL     1      13.009  60.178  39.117  1.00  0.00     0.033 C 
BRANCH  10  11
HETATM   11  C7  UNL     1      11.653  60.562  38.906  1.00  0.00     0.040 C 
BRANCH  11  12
HETATM   12  N1  UNL     1      10.985  61.449  39.510  1.00  0.00    -0.398 N 
ATOM     13  H12 UNL     1      10.598  61.137  40.400  1.00  0.00     0.156 HD
ATOM     14  H11 UNL     1      10.796  62.408  39.219  1.00  0.00     0.156 HD
ENDBRANCH  11  12
BRANCH  11  15
HETATM   15  C8  UNL     1      10.880  59.847  37.841  1.00  0.00     0.109 C 
HETATM   16  N2  UNL     1      11.283  59.786  36.655  1.00  0.00    -0.406 N 
ATOM     17  H22 UNL     1      12.167  60.243  36.426  1.00  0.00     0.155 HD
ATOM     18  H21 UNL     1      10.758  59.299  35.930  1.00  0.00     0.155 HD
ENDBRANCH  11  15
ENDBRANCH  10  11
ENDBRANCH   7  10
ENDBRANCH   5   6
ENDBRANCH   2   3
ENDBRANCH   1   2
BRANCH   1  19
HETATM   19  C11 UNL     1      17.852  54.346  39.211  1.00  0.00    -0.019 C 
HETATM   20  C12 UNL     1      18.820  54.786  38.455  1.00  0.00    -0.053 C 
HETATM   21  C13 UNL     1      18.517  55.614  37.267  1.00  0.00     0.049 C 
BRANCH  20  22
HETATM   22  C14 UNL     1      20.229  54.479  38.786  1.00  0.00     0.007 A 
HETATM   23  C15 UNL     1      20.831  55.158  39.810  1.00  0.00     0.054 A 
HETATM   24  C16 UNL     1      22.128  54.901  40.196  1.00  0.00     0.100 A 
HETATM   25  C17 UNL     1      22.858  53.904  39.509  1.00  0.00     0.118 A 
HETATM   26  C18 UNL     1      22.291  53.200  38.476  1.00  0.00     0.110 A 
HETATM   27  C20 UNL     1      20.956  53.503  38.122  1.00  0.00     0.096 A 
BRANCH  24  28
HETATM   28  O2  UNL     1      22.763  55.563  41.220  1.00  0.00    -0.358 OA
ATOM     29  H2  UNL     1      23.005  55.153  42.041  1.00  0.00     0.217 HD
ENDBRANCH  24  28
BRANCH  25  30
HETATM   30  O3  UNL     1      24.140  53.705  39.947  1.00  0.00    -0.357 OA
ATOM     31  H3  UNL     1      24.824  53.942  39.331  1.00  0.00     0.218 HD
ENDBRANCH  25  30
BRANCH  26  32
HETATM   32  C19 UNL     1      22.999  52.169  37.741  1.00  0.00     0.215 C 
HETATM   33  O4  UNL     1      23.956  52.542  36.985  1.00  0.00    -0.644 OA
HETATM   34  O5  UNL     1      22.704  50.841  37.811  1.00  0.00    -0.644 OA
ENDBRANCH  26  32
BRANCH  27  35
HETATM   35  O6  UNL     1      20.417  52.827  37.138  1.00  0.00    -0.359 OA
ATOM     36  H6  UNL     1      20.914  52.644  36.348  1.00  0.00     0.217 HD
ENDBRANCH  27  35
ENDBRANCH  20  22
ENDBRANCH   1  19
TORSDOF 14
ENDMDL
MODEL 2
REMARK VINA RESULT: -8.671364356      2.455      3.828
REMARK  14 active torsions:
REMARK  status: ('A' for Active; 'I' for Inactive)
REMARK    1  A    between atoms: C2_2  and  C9_17 
REMARK    2  A    between atoms: C3_3  and  C4_4 
REMARK    3  A    between atoms: C4_4  and  O1_5 
REMARK    4  A    between atoms: C5_7  and  C6_8 
REMARK    5  A    between atoms: C6_8  and  C7_9 
REMARK    6  A    between atoms: C7_9  and  N1_10 
REMARK    7  A    between atoms: C7_9  and  C8_13 
REMARK    8  A    between atoms: C9_17  and  C10_18 
REMARK    9  A    between atoms: C10_18  and  C11_19 
REMARK   10  A    between atoms: C12_20  and  C14_22 
REMARK   11  A    between atoms: C16_24  and  O2_25 
REMARK   12  A    between atoms: C17_27  and  O3_28 
REMARK   13  A    between atoms: C18_30  and  C19_31 
REMARK   14  A    between atoms: C20_34  and  O6_35 
ROOT
HETATM    1  C10 UNL     1      15.829  52.075  37.633  1.00  0.00     0.032 C 
ENDROOT
BRANCH   1   2
HETATM    2  C9  UNL     1      15.818  52.505  39.054  1.00  0.00     0.037 C 
BRANCH   2   3
HETATM    3  C2  UNL     1      16.056  53.980  39.203  1.00  0.00    -0.081 C 
HETATM    4  C1  UNL     1      17.467  54.280  39.645  1.00  0.00     0.043 C 
HETATM    5  C3  UNL     1      15.131  54.830  38.955  1.00  0.00     0.038 C 
BRANCH   5   6
HETATM    6  C4  UNL     1      14.997  56.271  38.970  1.00  0.00     0.066 C 
HETATM    7  C5  UNL     1      14.413  57.047  39.990  1.00  0.00     0.039 C 
BRANCH   6   8
HETATM    8  O1  UNL     1      15.471  56.897  37.931  1.00  0.00    -0.361 OA
ATOM      9  H1  UNL     1      16.415  56.878  37.830  1.00  0.00     0.217 HD
ENDBRANCH   6   8
BRANCH   7  10
HETATM   10  C6  UNL     1      14.245  58.328  40.100  1.00  0.00     0.033 C 
BRANCH  10  11
HETATM   11  C7  UNL     1      13.524  59.305  39.353  1.00  0.00     0.040 C 
BRANCH  11  12
HETATM   12  N1  UNL     1      13.544  60.562  39.480  1.00  0.00    -0.398 N 
ATOM     13  H12 UNL     1      12.664  60.954  39.814  1.00  0.00     0.156 HD
ATOM     14  H11 UNL     1      14.312  61.206  39.294  1.00  0.00     0.156 HD
ENDBRANCH  11  12
BRANCH  11  15
HETATM   15  C8  UNL     1      12.613  58.822  38.267  1.00  0.00     0.109 C 
HETATM   16  N2  UNL     1      13.002  58.691  37.082  1.00  0.00    -0.406 N 
ATOM     17  H22 UNL     1      13.972  58.924  36.868  1.00  0.00     0.155 HD
ATOM     18  H21 UNL     1      12.381  58.363  36.343  1.00  0.00     0.155 HD
ENDBRANCH  11  15
ENDBRANCH  10  11
ENDBRANCH   7  10
ENDBRANCH   5   6
ENDBRANCH   2   3
ENDBRANCH   1   2
BRANCH   1  19
HETATM   19  C11 UNL     1      17.179  51.599  37.214  1.00  0.00    -0.019 C 
HETATM   20  C12 UNL     1      17.950  52.278  36.410  1.00  0.00    -0.053 C 
HETATM   21  C13 UNL     1      17.500  53.582  35.874  1.00  0.00     0.049 C 
BRANCH  20  22
HETATM   22  C14 UNL     1      19.286  51.764  36.039  1.00  0.00     0.007 A 
HETATM   23  C15 UNL     1      19.426  51.065  34.871  1.00  0.00     0.054 A 
HETATM   24  C16 UNL     1      20.645  50.587  34.446  1.00  0.00     0.100 A 
HETATM   25  C17 UNL     1      21.788  50.827  35.243  1.00  0.00     0.118 A 
HETATM   26  C18 UNL     1      21.691  51.523  36.423  1.00  0.00     0.110 A 
HETATM   27  C20 UNL     1      20.414  51.992  36.812  1.00  0.00     0.096 A 
BRANCH  24  28
HETATM   28  O2  UNL     1      20.821  49.882  33.278  1.00  0.00    -0.358 OA
ATOM     29  H2  UNL     1      21.128  48.984  33.247  1.00  0.00     0.217 HD
ENDBRANCH  24  28
BRANCH  25  30
HETATM   30  O3  UNL     1      22.963  50.321  34.758  1.00  0.00    -0.357 OA
ATOM     31  H3  UNL     1      23.731  50.863  34.898  1.00  0.00     0.218 HD
ENDBRANCH  25  30
BRANCH  26  32
HETATM   32  C19 UNL     1      22.832  51.794  37.276  1.00  0.00     0.215 C 
HETATM   33  O4  UNL     1      23.772  52.505  36.787  1.00  0.00    -0.644 OA
HETATM   34  O5  UNL     1      22.958  51.338  38.553  1.00  0.00    -0.644 OA
ENDBRANCH  26  32
BRANCH  27  35
HETATM   35  O6  UNL     1      20.327  52.659  37.936  1.00  0.00    -0.359 OA
ATOM     36  H6  UNL     1      20.331  53.610  37.935  1.00  0.00     0.217 HD
ENDBRANCH  27  35
ENDBRANCH  20  22
ENDBRANCH   1  19
TORSDOF 14
ENDMDL
MODEL 3
REMARK VINA RESULT: -8.650642289      2.642      3.955
REMARK  14 active torsions:
REMARK  status: ('A' for Active; 'I' for Inactive)
REMARK    1  A    between atoms: C2_2  and  C9_17 
REMARK    2  A    between atoms: C3_3  and  C4_4 
REMARK    3  A    between atoms: C4_4  and  O1_5 
REMARK    4  A    between atoms: C5_7  and  C6_8 
REMARK    5  A    between atoms: C6_8  and  C7_9 
REMARK    6  A    between atoms: C7_9  and  N1_10 
REMARK    7  A    between atoms: C7_9  and  C8_13 
REMARK    8  A    between atoms: C9_17  and  C10_18 
REMARK    9  A    between atoms: C10_18  and  C11_19 
REMARK   10  A    between atoms: C12_20  and  C14_22 
REMARK   11  A    between atoms: C16_24  and  O2_25 
REMARK   12  A    between atoms: C17_27  and  O3_28 
REMARK   13  A    between atoms: C18_30  and  C19_31 
REMARK   14  A    between atoms: C20_34  and  O6_35 
ROOT
HETATM    1  C10 UNL     1      16.027  53.199  36.895  1.00  0.00     0.032 C 
ENDROOT
BRANCH   1   2
HETATM    2  C9  UNL     1      15.599  54.544  36.432  1.00  0.00     0.037 C 
BRANCH   2   3
HETATM    3  C2  UNL     1      14.895  55.317  37.509  1.00  0.00    -0.081 C 
HETATM    4  C1  UNL     1      15.042  54.662  38.860  1.00  0.00     0.043 C 
HETATM    5  C3  UNL     1      14.273  56.405  37.246  1.00  0.00     0.038 C 
BRANCH   5   6
HETATM    6  C4  UNL     1      13.522  57.392  37.992  1.00  0.00     0.066 C 
HETATM    7  C5  UNL     1      14.042  58.308  38.927  1.00  0.00     0.039 C 
BRANCH   6   8
HETATM    8  O1  UNL     1      12.241  57.424  37.765  1.00  0.00    -0.361 OA
ATOM      9  H1  UNL     1      11.682  57.323  38.525  1.00  0.00     0.217 HD
ENDBRANCH   6   8
BRANCH   7  10
HETATM   10  C6  UNL     1      13.464  59.222  39.642  1.00  0.00     0.033 C 
BRANCH  10  11
HETATM   11  C7  UNL     1      12.882  60.490  39.353  1.00  0.00     0.040 C 
BRANCH  11  12
HETATM   12  N1  UNL     1      13.448  61.618  39.290  1.00  0.00    -0.398 N 
ATOM     13  H12 UNL     1      13.125  62.197  38.515  1.00  0.00     0.156 HD
ATOM     14  H11 UNL     1      14.165  62.003  39.904  1.00  0.00     0.156 HD
ENDBRANCH  11  12
BRANCH  11  15
HETATM   15  C8  UNL     1      11.409  60.539  39.084  1.00  0.00     0.109 C 
HETATM   16  N2  UNL     1      10.902  60.019  38.062  1.00  0.00    -0.406 N 
ATOM     17  H22 UNL     1      11.526  59.553  37.403  1.00  0.00     0.155 HD
ATOM     18  H21 UNL     1       9.900  60.052  37.880  1.00  0.00     0.155 HD
ENDBRANCH  11  15
ENDBRANCH  10  11
ENDBRANCH   7  10
ENDBRANCH   5   6
ENDBRANCH   2   3
ENDBRANCH   1   2
BRANCH   1  19
HETATM   19  C11 UNL     1      17.404  52.870  36.427  1.00  0.00    -0.019 C 
HETATM   20  C12 UNL     1      17.882  51.656  36.436  1.00  0.00    -0.053 C 
HETATM   21  C13 UNL     1      17.050  50.533  36.923  1.00  0.00     0.049 C 
BRANCH  20  22
HETATM   22  C14 UNL     1      19.251  51.385  35.945  1.00  0.00     0.007 A 
HETATM   23  C15 UNL     1      19.419  50.962  34.655  1.00  0.00     0.054 A 
HETATM   24  C16 UNL     1      20.665  50.724  34.119  1.00  0.00     0.100 A 
HETATM   25  C17 UNL     1      21.806  50.923  34.931  1.00  0.00     0.118 A 
HETATM   26  C18 UNL     1      21.681  51.346  36.231  1.00  0.00     0.110 A 
HETATM   27  C20 UNL     1      20.377  51.577  36.730  1.00  0.00     0.096 A 
BRANCH  24  28
HETATM   28  O2  UNL     1      20.870  50.300  32.828  1.00  0.00    -0.358 OA
ATOM     29  H2  UNL     1      20.846  50.877  32.074  1.00  0.00     0.217 HD
ENDBRANCH  24  28
BRANCH  25  30
HETATM   30  O3  UNL     1      23.009  50.665  34.332  1.00  0.00    -0.357 OA
ATOM     31  H3  UNL     1      23.365  49.797  34.484  1.00  0.00     0.218 HD
ENDBRANCH  25  30
BRANCH  26  32
HETATM   32  C19 UNL     1      22.819  51.564  37.103  1.00  0.00     0.215 C 
HETATM   33  O4  UNL     1      22.853  50.905  38.195  1.00  0.00    -0.644 OA
HETATM   34  O5  UNL     1      23.841  52.420  36.828  1.00  0.00    -0.644 OA
ENDBRANCH  26  32
BRANCH  27  35
HETATM   35  O6  UNL     1      20.263  51.984  37.970  1.00  0.00    -0.359 OA
ATOM     36  H6  UNL     1      20.683  51.507  38.676  1.00  0.00     0.217 HD
ENDBRANCH  27  35
ENDBRANCH  20  22
ENDBRANCH   1  19
TORSDOF 14
ENDMDL
MODEL 4
REMARK VINA RESULT: -8.638772118      1.704      3.062
REMARK  14 active torsions:
REMARK  status: ('A' for Active; 'I' for Inactive)
REMARK    1  A    between atoms: C2_2  and  C9_17 
REMARK    2  A    between atoms: C3_3  and  C4_4 
REMARK    3  A    between atoms: C4_4  and  O1_5 
REMARK    4  A    between atoms: C5_7  and  C6_8 
REMARK    5  A    between atoms: C6_8  and  C7_9 
REMARK    6  A    between atoms: C7_9  and  N1_10 
REMARK    7  A    between atoms: C7_9  and  C8_13 
REMARK    8  A    between atoms: C9_17  and  C10_18 
REMARK    9  A    between atoms: C10_18  and  C11_19 
REMARK   10  A    between atoms: C12_20  and  C14_22 
REMARK   11  A    between atoms: C16_24  and  O2_25 
REMARK   12  A    between atoms: C17_27  and  O3_28 
REMARK   13  A    between atoms: C18_30  and  C19_31 
REMARK   14  A    between atoms: C20_34  and  O6_35 
ROOT
HETATM    1  C10 UNL     1      17.132  54.658  39.762  1.00  0.00     0.032 C 
ENDROOT
BRANCH   1   2
HETATM    2  C9  UNL     1      15.685  54.330  39.790  1.00  0.00     0.037 C 
BRANCH   2   3
HETATM    3  C2  UNL     1      14.823  55.559  39.764  1.00  0.00    -0.081 C 
HETATM    4  C1  UNL     1      13.780  55.536  40.855  1.00  0.00     0.043 C 
HETATM    5  C3  UNL     1      15.012  56.485  38.901  1.00  0.00     0.038 C 
BRANCH   5   6
HETATM    6  C4  UNL     1      14.419  57.768  38.591  1.00  0.00     0.066 C 
HETATM    7  C5  UNL     1      13.910  58.701  39.515  1.00  0.00     0.039 C 
BRANCH   6   8
HETATM    8  O1  UNL     1      14.359  58.076  37.327  1.00  0.00    -0.361 OA
ATOM      9  H1  UNL     1      13.935  58.900  37.121  1.00  0.00     0.217 HD
ENDBRANCH   6   8
BRANCH   7  10
HETATM   10  C6  UNL     1      13.364  59.864  39.344  1.00  0.00     0.033 C 
BRANCH  10  11
HETATM   11  C7  UNL     1      12.055  60.308  38.999  1.00  0.00     0.040 C 
BRANCH  11  12
HETATM   12  N1  UNL     1      11.381  61.244  39.517  1.00  0.00    -0.398 N 
ATOM     13  H12 UNL     1      11.944  61.912  40.042  1.00  0.00     0.156 HD
ATOM     14  H11 UNL     1      10.375  61.401  39.471  1.00  0.00     0.156 HD
ENDBRANCH  11  12
BRANCH  11  15
HETATM   15  C8  UNL     1      11.347  59.601  37.884  1.00  0.00     0.109 C 
HETATM   16  N2  UNL     1      11.768  59.632  36.704  1.00  0.00    -0.406 N 
ATOM     17  H22 UNL     1      12.620  60.160  36.514  1.00  0.00     0.155 HD
ATOM     18  H21 UNL     1      11.286  59.151  35.946  1.00  0.00     0.155 HD
ENDBRANCH  11  15
ENDBRANCH  10  11
ENDBRANCH   7  10
ENDBRANCH   5   6
ENDBRANCH   2   3
ENDBRANCH   1   2
BRANCH   1  19
HETATM   19  C11 UNL     1      17.917  53.619  39.036  1.00  0.00    -0.019 C 
HETATM   20  C12 UNL     1      18.588  53.874  37.946  1.00  0.00    -0.053 C 
HETATM   21  C13 UNL     1      18.596  55.241  37.380  1.00  0.00     0.049 C 
BRANCH  20  22
HETATM   22  C14 UNL     1      19.363  52.807  37.275  1.00  0.00     0.007 A 
HETATM   23  C15 UNL     1      18.724  51.987  36.385  1.00  0.00     0.054 A 
HETATM   24  C16 UNL     1      19.388  50.995  35.698  1.00  0.00     0.100 A 
HETATM   25  C17 UNL     1      20.774  50.821  35.920  1.00  0.00     0.118 A 
HETATM   26  C18 UNL     1      21.451  51.623  36.805  1.00  0.00     0.110 A 
HETATM   27  C20 UNL     1      20.721  52.627  37.484  1.00  0.00     0.096 A 
BRANCH  24  28
HETATM   28  O2  UNL     1      18.779  50.154  34.797  1.00  0.00    -0.358 OA
ATOM     29  H2  UNL     1      19.209  49.405  34.402  1.00  0.00     0.217 HD
ENDBRANCH  24  28
BRANCH  25  30
HETATM   30  O3  UNL     1      21.366  49.817  35.203  1.00  0.00    -0.357 OA
ATOM     31  H3  UNL     1      21.219  48.938  35.533  1.00  0.00     0.218 HD
ENDBRANCH  25  30
BRANCH  26  32
HETATM   32  C19 UNL     1      22.871  51.484  37.069  1.00  0.00     0.215 C 
HETATM   33  O4  UNL     1      23.266  50.384  37.579  1.00  0.00    -0.644 OA
HETATM   34  O5  UNL     1      23.796  52.448  36.806  1.00  0.00    -0.644 OA
ENDBRANCH  26  32
BRANCH  27  35
HETATM   35  O6  UNL     1      21.372  53.392  38.324  1.00  0.00    -0.359 OA
ATOM     36  H6  UNL     1      22.265  53.184  38.574  1.00  0.00     0.217 HD
ENDBRANCH  27  35
ENDBRANCH  20  22
ENDBRANCH   1  19
TORSDOF 14
ENDMDL
MODEL 5
REMARK VINA RESULT: -8.632851874      2.563      4.133
REMARK  14 active torsions:
REMARK  status: ('A' for Active; 'I' for Inactive)
REMARK    1  A    between atoms: C2_2  and  C9_17 
REMARK    2  A    between atoms: C3_3  and  C4_4 
REMARK    3  A    between atoms: C4_4  and  O1_5 
REMARK    4  A    between atoms: C5_7  and  C6_8 
REMARK    5  A    between atoms: C6_8  and  C7_9 
REMARK    6  A    between atoms: C7_9  and  N1_10 
REMARK    7  A    between atoms: C7_9  and  C8_13 
REMARK    8  A    between atoms: C9_17  and  C10_18 
REMARK    9  A    between atoms: C10_18  and  C11_19 
REMARK   10  A    between atoms: C12_20  and  C14_22 
REMARK   11  A    between atoms: C16_24  and  O2_25 
REMARK   12  A    between atoms: C17_27  and  O3_28 
REMARK   13  A    between atoms: C18_30  and  C19_31 
REMARK   14  A    between atoms: C20_34  and  O6_35 
ROOT
HETATM    1  C10 UNL     1      14.785  54.182  40.164  1.00  0.00     0.032 C 
ENDROOT
BRANCH   1   2
HETATM    2  C9  UNL     1      15.405  55.415  40.710  1.00  0.00     0.037 C 
BRANCH   2   3
HETATM    3  C2  UNL     1      14.523  56.619  40.539  1.00  0.00    -0.081 C 
HETATM    4  C1  UNL     1      13.754  56.935  41.798  1.00  0.00     0.043 C 
HETATM    5  C3  UNL     1      14.486  57.262  39.433  1.00  0.00     0.038 C 
BRANCH   5   6
HETATM    6  C4  UNL     1      13.801  58.430  38.920  1.00  0.00     0.066 C 
HETATM    7  C5  UNL     1      12.987  58.486  37.772  1.00  0.00     0.039 C 
BRANCH   6   8
HETATM    8  O1  UNL     1      13.961  59.528  39.600  1.00  0.00    -0.361 OA
ATOM      9  H1  UNL     1      13.190  59.856  40.047  1.00  0.00     0.217 HD
ENDBRANCH   6   8
BRANCH   7  10
HETATM   10  C6  UNL     1      12.336  59.468  37.232  1.00  0.00     0.033 C 
BRANCH  10  11
HETATM   11  C7  UNL     1      11.032  60.014  37.411  1.00  0.00     0.040 C 
BRANCH  11  12
HETATM   12  N1  UNL     1      10.157  60.262  36.533  1.00  0.00    -0.398 N 
ATOM     13  H12 UNL     1      10.138  59.585  35.771  1.00  0.00     0.156 HD
ATOM     14  H11 UNL     1       9.492  61.034  36.501  1.00  0.00     0.156 HD
ENDBRANCH  11  12
BRANCH  11  15
HETATM   15  C8  UNL     1      10.600  60.354  38.804  1.00  0.00     0.109 C 
HETATM   16  N2  UNL     1      11.257  61.135  39.532  1.00  0.00    -0.406 N 
ATOM     17  H22 UNL     1      12.110  61.543  39.148  1.00  0.00     0.155 HD
ATOM     18  H21 UNL     1      10.963  61.366  40.480  1.00  0.00     0.155 HD
ENDBRANCH  11  15
ENDBRANCH  10  11
ENDBRANCH   7  10
ENDBRANCH   5   6
ENDBRANCH   2   3
ENDBRANCH   1   2
BRANCH   1  19
HETATM   19  C11 UNL     1      15.642  53.552  39.119  1.00  0.00    -0.019 C 
HETATM   20  C12 UNL     1      16.214  52.390  39.280  1.00  0.00    -0.053 C 
HETATM   21  C13 UNL     1      16.022  51.636  40.539  1.00  0.00     0.049 C 
BRANCH  20  22
HETATM   22  C14 UNL     1      17.042  51.806  38.204  1.00  0.00     0.007 A 
HETATM   23  C15 UNL     1      16.451  50.978  37.289  1.00  0.00     0.054 A 
HETATM   24  C16 UNL     1      17.152  50.426  36.240  1.00  0.00     0.100 A 
HETATM   25  C17 UNL     1      18.527  50.725  36.107  1.00  0.00     0.118 A 
HETATM   26  C18 UNL     1      19.159  51.551  37.003  1.00  0.00     0.110 A 
HETATM   27  C20 UNL     1      18.391  52.092  38.061  1.00  0.00     0.096 A 
BRANCH  24  28
HETATM   28  O2  UNL     1      16.589  49.591  35.303  1.00  0.00    -0.358 OA
ATOM     29  H2  UNL     1      16.959  48.752  35.056  1.00  0.00     0.217 HD
ENDBRANCH  24  28
BRANCH  25  30
HETATM   30  O3  UNL     1      19.158  50.140  35.042  1.00  0.00    -0.357 OA
ATOM     31  H3  UNL     1      19.585  50.739  34.440  1.00  0.00     0.218 HD
ENDBRANCH  25  30
BRANCH  26  32
HETATM   32  C19 UNL     1      20.567  51.888  36.910  1.00  0.00     0.215 C 
HETATM   33  O4  UNL     1      20.975  52.396  35.813  1.00  0.00    -0.644 OA
HETATM   34  O5  UNL     1      21.468  51.694  37.912  1.00  0.00    -0.644 OA
ENDBRANCH  26  32
BRANCH  27  35
HETATM   35  O6  UNL     1      18.997  52.882  38.912  1.00  0.00    -0.359 OA
ATOM     36  H6  UNL     1      18.901  53.826  38.848  1.00  0.00     0.217 HD
ENDBRANCH  27  35
ENDBRANCH  20  22
ENDBRANCH   1  19
TORSDOF 14
ENDMDL
