MODEL 1
REMARK VINA RESULT: -8.370708166      0.000      0.000
REMARK  12 active torsions:
REMARK  status: ('A' for Active; 'I' for Inactive)
REMARK    1  A    between atoms: C2_2  and  C3_3 
REMARK    2  A    between atoms: N1_4  and  C4_6 
REMARK    3  A    between atoms: C6_8  and  N2_9 
REMARK    4  A    between atoms: N2_9  and  C7_11 
REMARK    5  A    between atoms: C7_11  and  C8_12 
REMARK    6  A    between atoms: C8_12  and  O1_13 
REMARK    7  A    between atoms: C10_16  and  O2_17 
REMARK    8  A    between atoms: N3_19  and  C11_20 
REMARK    9  A    between atoms: C11_20  and  C12_21 
REMARK   10  A    between atoms: C12_21  and  C13_22 
REMARK   11  A    between atoms: C19_28  and  O3_29 
REMARK   12  A    between atoms: C21_32  and  O4_33 
ROOT
HETATM    1  C4  UNL     1      18.795  52.674  36.031  1.00  0.00     0.068 A 
HETATM    2  C5  UNL     1      18.095  51.677  36.660  1.00  0.00     0.062 A 
HETATM    3  C6  UNL     1      17.021  51.945  37.519  1.00  0.00     0.046 A 
HETATM    4  C9  UNL     1      16.657  53.257  37.740  1.00  0.00     0.059 A 
HETATM    5  C10 UNL     1      15.699  53.897  38.484  1.00  0.00     0.158 A 
HETATM    6  N3  UNL     1      15.768  55.227  38.349  1.00  0.00    -0.307 N 
HETATM    7  C19 UNL     1      16.784  55.470  37.508  1.00  0.00     0.158 A 
HETATM    8  C20 UNL     1      17.354  54.282  37.112  1.00  0.00     0.067 A 
HETATM    9  C21 UNL     1      18.413  53.972  36.266  1.00  0.00     0.108 A 
ENDROOT
BRANCH   6  10
HETATM   10  C11 UNL     1      14.896  56.215  39.003  1.00  0.00     0.133 C 
BRANCH  10  11
HETATM   11  C12 UNL     1      13.920  56.704  37.963  1.00  0.00     0.025 C 
BRANCH  11  12
HETATM   12  C13 UNL     1      14.035  58.159  37.673  1.00  0.00    -0.013 C 
HETATM   13  C14 UNL     1      14.262  58.906  38.947  1.00  0.00     0.005 C 
HETATM   14  C15 UNL     1      13.007  59.102  39.760  1.00  0.00     0.000 C 
HETATM   15  C16 UNL     1      12.063  59.956  38.900  1.00  0.00     0.000 C 
HETATM   16  C17 UNL     1      11.688  59.054  37.719  1.00  0.00     0.000 C 
HETATM   17  C18 UNL     1      12.900  58.736  36.905  1.00  0.00     0.005 C 
ENDBRANCH  11  12
ENDBRANCH  10  11
ENDBRANCH   6  10
BRANCH   5  18
HETATM   18  O2  UNL     1      14.765  53.266  39.282  1.00  0.00    -0.345 OA
ATOM     19  H2  UNL     1      13.879  53.576  39.432  1.00  0.00     0.219 HD
ENDBRANCH   5  18
BRANCH   7  20
HETATM   20  O3  UNL     1      17.218  56.715  37.081  1.00  0.00    -0.345 OA
ATOM     21  H3  UNL     1      17.539  56.934  36.214  1.00  0.00     0.219 HD
ENDBRANCH   7  20
BRANCH   3  22
HETATM   22  N2  UNL     1      16.337  50.885  38.138  1.00  0.00    -0.387 N 
ATOM     23  H2  UNL     1      15.386  50.669  37.839  1.00  0.00     0.159 HD
BRANCH  22  24
HETATM   24  C7  UNL     1      16.944  50.086  39.195  1.00  0.00     0.146 C 
BRANCH  24  25
HETATM   25  C8  UNL     1      17.108  50.894  40.444  1.00  0.00     0.183 C 
BRANCH  25  26
HETATM   26  O1  UNL     1      15.849  50.926  41.078  1.00  0.00    -0.399 OA
ATOM     27  H1  UNL     1      15.195  50.957  40.390  1.00  0.00     0.209 HD
ENDBRANCH  25  26
ENDBRANCH  24  25
ENDBRANCH  22  24
ENDBRANCH   3  22
BRANCH   9  28
HETATM   28  O4  UNL     1      19.111  54.986  35.638  1.00  0.00    -0.357 OA
ATOM     29  H4  UNL     1      18.930  55.883  35.893  1.00  0.00     0.217 HD
ENDBRANCH   9  28
BRANCH   1  30
HETATM   30  N1  UNL     1      19.856  52.379  35.184  1.00  0.00    -0.367 N 
HETATM   31  C3  UNL     1      20.290  51.210  34.890  1.00  0.00     0.061 C 
ATOM     32  H1  UNL     1      20.335  53.170  34.754  1.00  0.00     0.165 HD
BRANCH  31  33
HETATM   33  C2  UNL     1      21.458  51.145  33.944  1.00  0.00     0.040 C 
HETATM   34  C1  UNL     1      21.555  49.777  33.304  1.00  0.00     0.010 C 
ENDBRANCH  31  33
ENDBRANCH   1  30
TORSDOF 12
ENDMDL
MODEL 2
REMARK VINA RESULT: -8.293466946      0.491      1.091
REMARK  12 active torsions:
REMARK  status: ('A' for Active; 'I' for Inactive)
REMARK    1  A    between atoms: C2_2  and  C3_3 
REMARK    2  A    between atoms: N1_4  and  C4_6 
REMARK    3  A    between atoms: C6_8  and  N2_9 
REMARK    4  A    between atoms: N2_9  and  C7_11 
REMARK    5  A    between atoms: C7_11  and  C8_12 
REMARK    6  A    between atoms: C8_12  and  O1_13 
REMARK    7  A    between atoms: C10_16  and  O2_17 
REMARK    8  A    between atoms: N3_19  and  C11_20 
REMARK    9  A    between atoms: C11_20  and  C12_21 
REMARK   10  A    between atoms: C12_21  and  C13_22 
REMARK   11  A    between atoms: C19_28  and  O3_29 
REMARK   12  A    between atoms: C21_32  and  O4_33 
ROOT
HETATM    1  C4  UNL     1      18.841  52.637  35.970  1.00  0.00     0.068 A 
HETATM    2  C5  UNL     1      18.116  51.671  36.620  1.00  0.00     0.062 A 
HETATM    3  C6  UNL     1      17.076  51.985  37.505  1.00  0.00     0.046 A 
HETATM    4  C9  UNL     1      16.772  53.311  37.729  1.00  0.00     0.059 A 
HETATM    5  C10 UNL     1      15.859  53.992  38.493  1.00  0.00     0.158 A 
HETATM    6  N3  UNL     1      15.979  55.319  38.352  1.00  0.00    -0.307 N 
HETATM    7  C19 UNL     1      16.983  55.517  37.485  1.00  0.00     0.158 A 
HETATM    8  C20 UNL     1      17.494  54.305  37.080  1.00  0.00     0.067 A 
HETATM    9  C21 UNL     1      18.519  53.949  36.210  1.00  0.00     0.108 A 
ENDROOT
BRANCH   6  10
HETATM   10  C11 UNL     1      15.164  56.343  39.023  1.00  0.00     0.133 C 
BRANCH  10  11
HETATM   11  C12 UNL     1      14.176  56.861  38.008  1.00  0.00     0.025 C 
BRANCH  11  12
HETATM   12  C13 UNL     1      12.957  57.460  38.615  1.00  0.00    -0.013 C 
HETATM   13  C14 UNL     1      12.131  58.102  37.547  1.00  0.00     0.005 C 
HETATM   14  C15 UNL     1      12.655  59.448  37.113  1.00  0.00     0.000 C 
HETATM   15  C16 UNL     1      12.582  60.360  38.346  1.00  0.00     0.000 C 
HETATM   16  C17 UNL     1      13.612  59.780  39.322  1.00  0.00     0.000 C 
HETATM   17  C18 UNL     1      13.213  58.401  39.737  1.00  0.00     0.005 C 
ENDBRANCH  11  12
ENDBRANCH  10  11
ENDBRANCH   6  10
BRANCH   5  18
HETATM   18  O2  UNL     1      14.920  53.403  39.316  1.00  0.00    -0.345 OA
ATOM     19  H2  UNL     1      14.368  53.869  39.934  1.00  0.00     0.219 HD
ENDBRANCH   5  18
BRANCH   7  20
HETATM   20  O3  UNL     1      17.458  56.742  37.043  1.00  0.00    -0.345 OA
ATOM     21  H3  UNL     1      18.017  56.891  36.290  1.00  0.00     0.219 HD
ENDBRANCH   7  20
BRANCH   3  22
HETATM   22  N2  UNL     1      16.365  50.956  38.144  1.00  0.00    -0.387 N 
ATOM     23  H2  UNL     1      15.401  50.774  37.864  1.00  0.00     0.159 HD
BRANCH  22  24
HETATM   24  C7  UNL     1      16.961  50.142  39.196  1.00  0.00     0.146 C 
BRANCH  24  25
HETATM   25  C8  UNL     1      17.094  50.927  40.464  1.00  0.00     0.183 C 
BRANCH  25  26
HETATM   26  O1  UNL     1      15.818  50.953  41.063  1.00  0.00    -0.399 OA
ATOM     27  H1  UNL     1      15.183  50.900  40.360  1.00  0.00     0.209 HD
ENDBRANCH  25  26
ENDBRANCH  24  25
ENDBRANCH  22  24
ENDBRANCH   3  22
BRANCH   9  28
HETATM   28  O4  UNL     1      19.242  54.932  35.561  1.00  0.00    -0.357 OA
ATOM     29  H4  UNL     1      20.189  54.865  35.553  1.00  0.00     0.217 HD
ENDBRANCH   9  28
BRANCH   1  30
HETATM   30  N1  UNL     1      19.868  52.296  35.099  1.00  0.00    -0.367 N 
HETATM   31  C3  UNL     1      20.323  51.117  34.886  1.00  0.00     0.061 C 
ATOM     32  H1  UNL     1      20.302  53.058  34.578  1.00  0.00     0.165 HD
BRANCH  31  33
HETATM   33  C2  UNL     1      21.445  51.000  33.890  1.00  0.00     0.040 C 
HETATM   34  C1  UNL     1      21.496  49.606  33.302  1.00  0.00     0.010 C 
ENDBRANCH  31  33
ENDBRANCH   1  30
TORSDOF 12
ENDMDL
MODEL 3
REMARK VINA RESULT: -8.279684475      2.727      4.710
REMARK  12 active torsions:
REMARK  status: ('A' for Active; 'I' for Inactive)
REMARK    1  A    between atoms: C2_2  and  C3_3 
REMARK    2  A    between atoms: N1_4  and  C4_6 
REMARK    3  A    between atoms: C6_8  and  N2_9 
REMARK    4  A    between atoms: N2_9  and  C7_11 
REMARK    5  A    between atoms: C7_11  and  C8_12 
REMARK    6  A    between atoms: C8_12  and  O1_13 
REMARK    7  A    between atoms: C10_16  and  O2_17 
REMARK    8  A    between atoms: N3_19  and  C11_20 
REMARK    9  A    between atoms: C11_20  and  C12_21 
REMARK   10  A    between atoms: C12_21  and  C13_22 
REMARK   11  A    between atoms: C19_28  and  O3_29 
REMARK   12  A    between atoms: C21_32  and  O4_33 
ROOT
HETATM    1  C4  UNL     1      15.577  53.304  37.976  1.00  0.00     0.068 A 
HETATM    2  C5  UNL     1      15.994  54.035  36.892  1.00  0.00     0.062 A 
HETATM    3  C6  UNL     1      15.871  55.430  36.840  1.00  0.00     0.046 A 
HETATM    4  C9  UNL     1      15.312  56.089  37.914  1.00  0.00     0.059 A 
HETATM    5  C10 UNL     1      15.033  57.396  38.225  1.00  0.00     0.158 A 
HETATM    6  N3  UNL     1      14.470  57.512  39.435  1.00  0.00    -0.307 N 
HETATM    7  C19 UNL     1      14.376  56.269  39.929  1.00  0.00     0.158 A 
HETATM    8  C20 UNL     1      14.884  55.368  39.021  1.00  0.00     0.067 A 
HETATM    9  C21 UNL     1      15.024  53.984  39.033  1.00  0.00     0.108 A 
ENDROOT
BRANCH   6  10
HETATM   10  C11 UNL     1      14.044  58.763  40.081  1.00  0.00     0.133 C 
BRANCH  10  11
HETATM   11  C12 UNL     1      12.601  58.987  39.708  1.00  0.00     0.025 C 
BRANCH  11  12
HETATM   12  C13 UNL     1      12.367  60.252  38.960  1.00  0.00    -0.013 C 
HETATM   13  C14 UNL     1      11.033  60.814  39.331  1.00  0.00     0.005 C 
HETATM   14  C15 UNL     1       9.880  60.121  38.649  1.00  0.00     0.000 C 
HETATM   15  C16 UNL     1      10.063  60.357  37.143  1.00  0.00     0.000 C 
HETATM   16  C17 UNL     1      11.328  59.573  36.775  1.00  0.00     0.000 C 
HETATM   17  C18 UNL     1      12.514  60.142  37.484  1.00  0.00     0.005 C 
ENDBRANCH  11  12
ENDBRANCH  10  11
ENDBRANCH   6  10
BRANCH   5  18
HETATM   18  O2  UNL     1      15.292  58.477  37.407  1.00  0.00    -0.345 OA
ATOM     19  H2  UNL     1      15.313  59.383  37.692  1.00  0.00     0.219 HD
ENDBRANCH   5  18
BRANCH   7  20
HETATM   20  O3  UNL     1      13.852  55.911  41.162  1.00  0.00    -0.345 OA
ATOM     21  H3  UNL     1      13.189  55.249  41.322  1.00  0.00     0.219 HD
ENDBRANCH   7  20
BRANCH   3  22
HETATM   22  N2  UNL     1      16.314  56.130  35.705  1.00  0.00    -0.387 N 
ATOM     23  H2  UNL     1      15.635  56.651  35.150  1.00  0.00     0.159 HD
BRANCH  22  24
HETATM   24  C7  UNL     1      17.714  56.135  35.297  1.00  0.00     0.146 C 
BRANCH  24  25
HETATM   25  C8  UNL     1      18.550  56.895  36.279  1.00  0.00     0.183 C 
BRANCH  25  26
HETATM   26  O1  UNL     1      19.623  56.053  36.639  1.00  0.00    -0.399 OA
ATOM     27  H1  UNL     1      20.366  56.616  36.819  1.00  0.00     0.209 HD
ENDBRANCH  25  26
ENDBRANCH  24  25
ENDBRANCH  22  24
ENDBRANCH   3  22
BRANCH   9  28
HETATM   28  O4  UNL     1      14.601  53.260  40.131  1.00  0.00    -0.357 OA
ATOM     29  H4  UNL     1      15.062  53.375  40.953  1.00  0.00     0.217 HD
ENDBRANCH   9  28
BRANCH   1  30
HETATM   30  N1  UNL     1      15.711  51.922  38.001  1.00  0.00    -0.367 N 
HETATM   31  C3  UNL     1      16.775  51.267  38.285  1.00  0.00     0.061 C 
ATOM     32  H1  UNL     1      14.881  51.375  37.770  1.00  0.00     0.165 HD
BRANCH  31  33
HETATM   33  C2  UNL     1      16.671  49.767  38.245  1.00  0.00     0.040 C 
HETATM   34  C1  UNL     1      15.775  49.321  37.109  1.00  0.00     0.010 C 
ENDBRANCH  31  33
ENDBRANCH   1  30
TORSDOF 12
ENDMDL
MODEL 4
REMARK VINA RESULT: -8.177577978      2.244      7.703
REMARK  12 active torsions:
REMARK  status: ('A' for Active; 'I' for Inactive)
REMARK    1  A    between atoms: C2_2  and  C3_3 
REMARK    2  A    between atoms: N1_4  and  C4_6 
REMARK    3  A    between atoms: C6_8  and  N2_9 
REMARK    4  A    between atoms: N2_9  and  C7_11 
REMARK    5  A    between atoms: C7_11  and  C8_12 
REMARK    6  A    between atoms: C8_12  and  O1_13 
REMARK    7  A    between atoms: C10_16  and  O2_17 
REMARK    8  A    between atoms: N3_19  and  C11_20 
REMARK    9  A    between atoms: C11_20  and  C12_21 
REMARK   10  A    between atoms: C12_21  and  C13_22 
REMARK   11  A    between atoms: C19_28  and  O3_29 
REMARK   12  A    between atoms: C21_32  and  O4_33 
ROOT
HETATM    1  C4  UNL     1      13.968  57.658  37.758  1.00  0.00     0.068 A 
HETATM    2  C5  UNL     1      13.878  57.138  39.023  1.00  0.00     0.062 A 
HETATM    3  C6  UNL     1      14.749  56.141  39.486  1.00  0.00     0.046 A 
HETATM    4  C9  UNL     1      15.727  55.668  38.638  1.00  0.00     0.059 A 
HETATM    5  C10 UNL     1      16.729  54.734  38.720  1.00  0.00     0.158 A 
HETATM    6  N3  UNL     1      17.428  54.649  37.582  1.00  0.00    -0.307 N 
HETATM    7  C19 UNL     1      16.883  55.536  36.736  1.00  0.00     0.158 A 
HETATM    8  C20 UNL     1      15.835  56.182  37.351  1.00  0.00     0.067 A 
HETATM    9  C21 UNL     1      14.951  57.170  36.933  1.00  0.00     0.108 A 
ENDROOT
BRANCH   6  10
HETATM   10  C11 UNL     1      18.566  53.754  37.323  1.00  0.00     0.133 C 
BRANCH  10  11
HETATM   11  C12 UNL     1      18.078  52.668  36.398  1.00  0.00     0.025 C 
BRANCH  11  12
HETATM   12  C13 UNL     1      18.380  51.293  36.880  1.00  0.00    -0.013 C 
HETATM   13  C14 UNL     1      17.738  50.293  35.973  1.00  0.00     0.005 C 
HETATM   14  C15 UNL     1      16.260  50.124  36.217  1.00  0.00     0.000 C 
HETATM   15  C16 UNL     1      16.116  49.588  37.649  1.00  0.00     0.000 C 
HETATM   16  C17 UNL     1      16.582  50.741  38.546  1.00  0.00     0.000 C 
HETATM   17  C18 UNL     1      18.026  51.036  38.301  1.00  0.00     0.005 C 
ENDBRANCH  11  12
ENDBRANCH  10  11
ENDBRANCH   6  10
BRANCH   5  18
HETATM   18  O2  UNL     1      17.002  53.963  39.833  1.00  0.00    -0.345 OA
ATOM     19  H2  UNL     1      17.641  53.261  39.865  1.00  0.00     0.219 HD
ENDBRANCH   5  18
BRANCH   7  20
HETATM   20  O3  UNL     1      17.290  55.789  35.435  1.00  0.00    -0.345 OA
ATOM     21  H3  UNL     1      16.939  55.390  34.647  1.00  0.00     0.219 HD
ENDBRANCH   7  20
BRANCH   3  22
HETATM   22  N2  UNL     1      14.613  55.644  40.792  1.00  0.00    -0.387 N 
ATOM     23  H2  UNL     1      15.266  55.957  41.511  1.00  0.00     0.159 HD
BRANCH  22  24
HETATM   24  C7  UNL     1      13.569  54.693  41.153  1.00  0.00     0.146 C 
BRANCH  24  25
HETATM   25  C8  UNL     1      12.760  55.205  42.304  1.00  0.00     0.183 C 
BRANCH  25  26
HETATM   26  O1  UNL     1      11.677  54.317  42.469  1.00  0.00    -0.399 OA
ATOM     27  H1  UNL     1      10.919  54.845  42.688  1.00  0.00     0.209 HD
ENDBRANCH  25  26
ENDBRANCH  24  25
ENDBRANCH  22  24
ENDBRANCH   3  22
BRANCH   9  28
HETATM   28  O4  UNL     1      15.052  57.686  35.655  1.00  0.00    -0.357 OA
ATOM     29  H4  UNL     1      15.751  57.370  35.094  1.00  0.00     0.217 HD
ENDBRANCH   9  28
BRANCH   1  30
HETATM   30  N1  UNL     1      13.091  58.645  37.326  1.00  0.00    -0.367 N 
HETATM   31  C3  UNL     1      11.835  58.707  37.573  1.00  0.00     0.061 C 
ATOM     32  H1  UNL     1      13.486  59.394  36.757  1.00  0.00     0.165 HD
BRANCH  31  33
HETATM   33  C2  UNL     1      11.093  59.880  36.993  1.00  0.00     0.040 C 
HETATM   34  C1  UNL     1       9.906  60.244  37.859  1.00  0.00     0.010 C 
ENDBRANCH  31  33
ENDBRANCH   1  30
TORSDOF 12
ENDMDL
MODEL 5
REMARK VINA RESULT: -8.067320979      2.741      3.144
REMARK  12 active torsions:
REMARK  status: ('A' for Active; 'I' for Inactive)
REMARK    1  A    between atoms: C2_2  and  C3_3 
REMARK    2  A    between atoms: N1_4  and  C4_6 
REMARK    3  A    between atoms: C6_8  and  N2_9 
REMARK    4  A    between atoms: N2_9  and  C7_11 
REMARK    5  A    between atoms: C7_11  and  C8_12 
REMARK    6  A    between atoms: C8_12  and  O1_13 
REMARK    7  A    between atoms: C10_16  and  O2_17 
REMARK    8  A    between atoms: N3_19  and  C11_20 
REMARK    9  A    between atoms: C11_20  and  C12_21 
REMARK   10  A    between atoms: C12_21  and  C13_22 
REMARK   11  A    between atoms: C19_28  and  O3_29 
REMARK   12  A    between atoms: C21_32  and  O4_33 
ROOT
HETATM    1  C4  UNL     1      19.573  54.640  38.484  1.00  0.00     0.068 A 
HETATM    2  C5  UNL     1      18.748  53.916  39.306  1.00  0.00     0.062 A 
HETATM    3  C6  UNL     1      17.353  53.939  39.174  1.00  0.00     0.046 A 
HETATM    4  C9  UNL     1      16.792  54.719  38.184  1.00  0.00     0.059 A 
HETATM    5  C10 UNL     1      15.518  54.993  37.756  1.00  0.00     0.158 A 
HETATM    6  N3  UNL     1      15.510  55.842  36.721  1.00  0.00    -0.307 N 
HETATM    7  C19 UNL     1      16.794  56.133  36.462  1.00  0.00     0.158 A 
HETATM    8  C20 UNL     1      17.611  55.460  37.342  1.00  0.00     0.067 A 
HETATM    9  C21 UNL     1      18.990  55.408  37.507  1.00  0.00     0.108 A 
ENDROOT
BRANCH   6  10
HETATM   10  C11 UNL     1      14.322  56.348  36.018  1.00  0.00     0.133 C 
BRANCH  10  11
HETATM   11  C12 UNL     1      14.001  57.700  36.602  1.00  0.00     0.025 C 
BRANCH  11  12
HETATM   12  C13 UNL     1      13.018  57.651  37.717  1.00  0.00    -0.013 C 
HETATM   13  C14 UNL     1      11.910  58.619  37.451  1.00  0.00     0.005 C 
HETATM   14  C15 UNL     1      12.279  60.050  37.752  1.00  0.00     0.000 C 
HETATM   15  C16 UNL     1      12.577  60.112  39.258  1.00  0.00     0.000 C 
HETATM   16  C17 UNL     1      13.852  59.281  39.438  1.00  0.00     0.000 C 
HETATM   17  C18 UNL     1      13.596  57.855  39.072  1.00  0.00     0.005 C 
ENDBRANCH  11  12
ENDBRANCH  10  11
ENDBRANCH   6  10
BRANCH   5  18
HETATM   18  O2  UNL     1      14.367  54.468  38.310  1.00  0.00    -0.345 OA
ATOM     19  H2  UNL     1      13.575  54.961  38.490  1.00  0.00     0.219 HD
ENDBRANCH   5  18
BRANCH   7  20
HETATM   20  O3  UNL     1      17.260  56.979  35.467  1.00  0.00    -0.345 OA
ATOM     21  H3  UNL     1      18.079  56.893  34.993  1.00  0.00     0.219 HD
ENDBRANCH   7  20
BRANCH   3  22
HETATM   22  N2  UNL     1      16.554  53.177  40.042  1.00  0.00    -0.387 N 
ATOM     23  H2  UNL     1      16.252  53.590  40.925  1.00  0.00     0.159 HD
BRANCH  22  24
HETATM   24  C7  UNL     1      16.143  51.816  39.721  1.00  0.00     0.146 C 
BRANCH  24  25
HETATM   25  C8  UNL     1      16.947  50.822  40.500  1.00  0.00     0.183 C 
BRANCH  25  26
HETATM   26  O1  UNL     1      17.693  50.077  39.564  1.00  0.00    -0.399 OA
ATOM     27  H1  UNL     1      18.354  50.661  39.211  1.00  0.00     0.209 HD
ENDBRANCH  25  26
ENDBRANCH  24  25
ENDBRANCH  22  24
ENDBRANCH   3  22
BRANCH   9  28
HETATM   28  O4  UNL     1      19.811  56.143  36.672  1.00  0.00    -0.357 OA
ATOM     29  H4  UNL     1      19.536  56.278  35.773  1.00  0.00     0.217 HD
ENDBRANCH   9  28
BRANCH   1  30
HETATM   30  N1  UNL     1      20.953  54.598  38.638  1.00  0.00    -0.367 N 
HETATM   31  C3  UNL     1      21.601  54.771  39.730  1.00  0.00     0.061 C 
ATOM     32  H1  UNL     1      21.504  54.411  37.800  1.00  0.00     0.165 HD
BRANCH  31  33
HETATM   33  C2  UNL     1      23.100  54.676  39.644  1.00  0.00     0.040 C 
HETATM   34  C1  UNL     1      23.570  53.280  39.990  1.00  0.00     0.010 C 
ENDBRANCH  31  33
ENDBRANCH   1  30
TORSDOF 12
ENDMDL
