MODEL 1
REMARK VINA RESULT: -10.518681134      0.000      0.000
REMARK  14 active torsions:
REMARK  status: ('A' for Active; 'I' for Inactive)
REMARK    1  A    between atoms: C2_2  and  C13_15 
REMARK    2  A    between atoms: C3_3  and  C4_4 
REMARK    3  A    between atoms: C4_4  and  C5_5 
REMARK    4  A    between atoms: C5_5  and  C6_6 
REMARK    5  A    between atoms: C8_8  and  C9_9 
REMARK    6  A    between atoms: C9_9  and  O1_10 
REMARK    7  A    between atoms: C9_9  and  C10_12 
REMARK    8  A    between atoms: C13_15  and  C14_16 
REMARK    9  A    between atoms: C15_17  and  C17_19 
REMARK   10  A    between atoms: C19_21  and  C20_22 
REMARK   11  A    between atoms: C22_24  and  C23_25 
REMARK   12  A    between atoms: C23_25  and  O2_26 
REMARK   13  A    between atoms: N1_28  and  O3_30 
REMARK   14  A    between atoms: C25_36  and  O4_37 
ROOT
HETATM    1  C17 UNL     1      19.645  53.022  37.089  1.00  0.00    -0.056 C 
HETATM    2  C18 UNL     1      20.305  54.106  36.308  1.00  0.00     0.049 C 
HETATM    3  C19 UNL     1      20.044  51.773  37.048  1.00  0.00     0.021 C 
ENDROOT
BRANCH   1   4
HETATM    4  C15 UNL     1      18.444  53.373  37.900  1.00  0.00    -0.059 C 
HETATM    5  C14 UNL     1      17.892  54.509  37.723  1.00  0.00    -0.015 C 
HETATM    6  C16 UNL     1      17.961  52.378  38.862  1.00  0.00     0.048 C 
BRANCH   5   7
HETATM    7  C13 UNL     1      16.703  55.003  38.437  1.00  0.00     0.061 C 
BRANCH   7   8
HETATM    8  C2  UNL     1      16.163  56.118  37.583  1.00  0.00    -0.084 C 
HETATM    9  C1  UNL     1      16.538  56.038  36.121  1.00  0.00     0.043 C 
HETATM   10  C3  UNL     1      15.444  57.066  38.065  1.00  0.00    -0.024 C 
BRANCH  10  11
HETATM   11  C4  UNL     1      15.018  57.254  39.438  1.00  0.00     0.031 C 
BRANCH  11  12
HETATM   12  C5  UNL     1      14.147  58.507  39.514  1.00  0.00     0.037 C 
BRANCH  12  13
HETATM   13  C6  UNL     1      12.976  58.412  38.603  1.00  0.00    -0.085 C 
HETATM   14  C7  UNL     1      12.506  57.111  38.047  1.00  0.00     0.043 C 
HETATM   15  C8  UNL     1      12.334  59.526  38.280  1.00  0.00     0.007 C 
BRANCH  15  16
HETATM   16  C9  UNL     1      11.155  59.471  37.369  1.00  0.00     0.144 C 
BRANCH  16  17
HETATM   17  O1  UNL     1      11.601  59.817  36.086  1.00  0.00    -0.391 OA
ATOM     18  H1  UNL     1      12.060  60.646  36.159  1.00  0.00     0.210 HD
ENDBRANCH  16  17
BRANCH  16  19
HETATM   19  C10 UNL     1      10.067  60.410  37.828  1.00  0.00     0.010 C 
HETATM   20  C11 UNL     1       8.933  59.573  38.387  1.00  0.00     0.012 C 
HETATM   21  C12 UNL     1      10.630  61.344  38.866  1.00  0.00     0.012 C 
ENDBRANCH  16  19
ENDBRANCH  15  16
ENDBRANCH  12  13
ENDBRANCH  11  12
ENDBRANCH  10  11
ENDBRANCH   7   8
ENDBRANCH   5   7
ENDBRANCH   1   4
BRANCH   3  22
HETATM   22  C20 UNL     1      21.189  51.288  36.312  1.00  0.00     0.003 A 
HETATM   23  C21 UNL     1      22.461  51.320  36.909  1.00  0.00     0.048 A 
HETATM   24  C22 UNL     1      23.600  50.922  36.283  1.00  0.00     0.087 A 
HETATM   25  N2  UNL     1      23.466  50.475  35.013  1.00  0.00    -0.339 N 
HETATM   26  C24 UNL     1      22.290  50.416  34.377  1.00  0.00     0.151 A 
ATOM     27  H2  UNL     1      24.302  50.168  34.515  1.00  0.00     0.167 HD
HETATM   28  N3  UNL     1      22.273  49.921  33.022  1.00  0.00    -0.080 NA
HETATM   29  C25 UNL     1      21.153  50.818  35.012  1.00  0.00     0.117 A 
BRANCH  24  30
HETATM   30  C23 UNL     1      24.902  50.971  36.945  1.00  0.00     0.187 C 
HETATM   31  N1  UNL     1      25.370  49.981  37.610  1.00  0.00    -0.246 N 
ATOM     32  H1  UNL     1      26.283  50.044  38.062  1.00  0.00     0.196 HD
BRANCH  30  33
HETATM   33  O2  UNL     1      25.644  52.121  36.845  1.00  0.00    -0.343 OA
ATOM     34  H2  UNL     1      26.148  52.401  37.600  1.00  0.00     0.219 HD
ENDBRANCH  30  33
BRANCH  31  35
HETATM   35  O3  UNL     1      24.624  48.836  37.705  1.00  0.00    -0.288 OA
ATOM     36  H3  UNL     1      24.477  48.319  36.922  1.00  0.00     0.244 HD
ENDBRANCH  31  35
ENDBRANCH  24  30
BRANCH  29  37
HETATM   37  O4  UNL     1      19.954  50.752  34.336  1.00  0.00    -0.357 OA
ATOM     38  H4  UNL     1      19.941  50.528  33.414  1.00  0.00     0.218 HD
ENDBRANCH  29  37
ENDBRANCH   3  22
TORSDOF 14
ENDMDL
MODEL 2
REMARK VINA RESULT: -10.495782330      1.194      2.562
REMARK  14 active torsions:
REMARK  status: ('A' for Active; 'I' for Inactive)
REMARK    1  A    between atoms: C2_2  and  C13_15 
REMARK    2  A    between atoms: C3_3  and  C4_4 
REMARK    3  A    between atoms: C4_4  and  C5_5 
REMARK    4  A    between atoms: C5_5  and  C6_6 
REMARK    5  A    between atoms: C8_8  and  C9_9 
REMARK    6  A    between atoms: C9_9  and  O1_10 
REMARK    7  A    between atoms: C9_9  and  C10_12 
REMARK    8  A    between atoms: C13_15  and  C14_16 
REMARK    9  A    between atoms: C15_17  and  C17_19 
REMARK   10  A    between atoms: C19_21  and  C20_22 
REMARK   11  A    between atoms: C22_24  and  C23_25 
REMARK   12  A    between atoms: C23_25  and  O2_26 
REMARK   13  A    between atoms: N1_28  and  O3_30 
REMARK   14  A    between atoms: C25_36  and  O4_37 
ROOT
HETATM    1  C17 UNL     1      19.512  53.058  37.125  1.00  0.00    -0.056 C 
HETATM    2  C18 UNL     1      20.057  54.074  36.181  1.00  0.00     0.049 C 
HETATM    3  C19 UNL     1      20.020  51.854  37.242  1.00  0.00     0.021 C 
ENDROOT
BRANCH   1   4
HETATM    4  C15 UNL     1      18.303  53.416  37.920  1.00  0.00    -0.059 C 
HETATM    5  C14 UNL     1      17.778  54.567  37.759  1.00  0.00    -0.015 C 
HETATM    6  C16 UNL     1      17.780  52.409  38.848  1.00  0.00     0.048 C 
BRANCH   5   7
HETATM    7  C13 UNL     1      16.586  55.070  38.461  1.00  0.00     0.061 C 
BRANCH   7   8
HETATM    8  C2  UNL     1      16.056  56.182  37.596  1.00  0.00    -0.084 C 
HETATM    9  C1  UNL     1      16.404  56.067  36.130  1.00  0.00     0.043 C 
HETATM   10  C3  UNL     1      15.367  57.154  38.073  1.00  0.00    -0.024 C 
BRANCH  10  11
HETATM   11  C4  UNL     1      14.970  57.377  39.449  1.00  0.00     0.031 C 
BRANCH  11  12
HETATM   12  C5  UNL     1      14.071  58.611  39.506  1.00  0.00     0.037 C 
BRANCH  12  13
HETATM   13  C6  UNL     1      12.912  58.483  38.583  1.00  0.00    -0.085 C 
HETATM   14  C7  UNL     1      12.465  57.167  38.045  1.00  0.00     0.043 C 
HETATM   15  C8  UNL     1      12.259  59.582  38.233  1.00  0.00     0.007 C 
BRANCH  15  16
HETATM   16  C9  UNL     1      11.092  59.496  37.309  1.00  0.00     0.144 C 
BRANCH  16  17
HETATM   17  O1  UNL     1      11.543  59.845  36.030  1.00  0.00    -0.391 OA
ATOM     18  H1  UNL     1      12.004  59.094  35.676  1.00  0.00     0.210 HD
ENDBRANCH  16  17
BRANCH  16  19
HETATM   19  C10 UNL     1       9.977  60.411  37.752  1.00  0.00     0.010 C 
HETATM   20  C11 UNL     1       8.886  59.557  38.366  1.00  0.00     0.012 C 
HETATM   21  C12 UNL     1      10.523  61.408  38.740  1.00  0.00     0.012 C 
ENDBRANCH  16  19
ENDBRANCH  15  16
ENDBRANCH  12  13
ENDBRANCH  11  12
ENDBRANCH  10  11
ENDBRANCH   7   8
ENDBRANCH   5   7
ENDBRANCH   1   4
BRANCH   3  22
HETATM   22  C20 UNL     1      21.187  51.371  36.542  1.00  0.00     0.003 A 
HETATM   23  C21 UNL     1      21.031  50.477  35.469  1.00  0.00     0.048 A 
HETATM   24  C22 UNL     1      22.070  49.940  34.776  1.00  0.00     0.087 A 
HETATM   25  N2  UNL     1      23.312  50.308  35.168  1.00  0.00    -0.339 N 
HETATM   26  C24 UNL     1      23.541  51.152  36.180  1.00  0.00     0.151 A 
ATOM     27  H2  UNL     1      24.113  49.923  34.668  1.00  0.00     0.167 HD
HETATM   28  N3  UNL     1      24.910  51.469  36.506  1.00  0.00    -0.080 NA
HETATM   29  C25 UNL     1      22.494  51.685  36.871  1.00  0.00     0.117 A 
BRANCH  24  30
HETATM   30  C23 UNL     1      21.860  49.015  33.663  1.00  0.00     0.187 C 
HETATM   31  N1  UNL     1      22.271  49.267  32.476  1.00  0.00    -0.246 N 
ATOM     32  H1  UNL     1      22.110  48.603  31.719  1.00  0.00     0.196 HD
BRANCH  30  33
HETATM   33  O2  UNL     1      21.199  47.837  33.907  1.00  0.00    -0.343 OA
ATOM     34  H2  UNL     1      21.142  47.197  33.208  1.00  0.00     0.219 HD
ENDBRANCH  30  33
BRANCH  31  35
HETATM   35  O3  UNL     1      22.930  50.444  32.241  1.00  0.00    -0.288 OA
ATOM     36  H3  UNL     1      22.461  51.263  32.351  1.00  0.00     0.244 HD
ENDBRANCH  31  35
ENDBRANCH  24  30
BRANCH  29  37
HETATM   37  O4  UNL     1      22.753  52.549  37.912  1.00  0.00    -0.357 OA
ATOM     38  H4  UNL     1      23.645  52.678  38.211  1.00  0.00     0.218 HD
ENDBRANCH  29  37
ENDBRANCH   3  22
TORSDOF 14
ENDMDL
MODEL 3
REMARK VINA RESULT: -10.473730774      0.848      1.405
REMARK  14 active torsions:
REMARK  status: ('A' for Active; 'I' for Inactive)
REMARK    1  A    between atoms: C2_2  and  C13_15 
REMARK    2  A    between atoms: C3_3  and  C4_4 
REMARK    3  A    between atoms: C4_4  and  C5_5 
REMARK    4  A    between atoms: C5_5  and  C6_6 
REMARK    5  A    between atoms: C8_8  and  C9_9 
REMARK    6  A    between atoms: C9_9  and  O1_10 
REMARK    7  A    between atoms: C9_9  and  C10_12 
REMARK    8  A    between atoms: C13_15  and  C14_16 
REMARK    9  A    between atoms: C15_17  and  C17_19 
REMARK   10  A    between atoms: C19_21  and  C20_22 
REMARK   11  A    between atoms: C22_24  and  C23_25 
REMARK   12  A    between atoms: C23_25  and  O2_26 
REMARK   13  A    between atoms: N1_28  and  O3_30 
REMARK   14  A    between atoms: C25_36  and  O4_37 
ROOT
HETATM    1  C17 UNL     1      19.517  53.232  36.774  1.00  0.00    -0.056 C 
HETATM    2  C18 UNL     1      19.090  52.129  37.679  1.00  0.00     0.049 C 
HETATM    3  C19 UNL     1      20.586  53.155  36.017  1.00  0.00     0.021 C 
ENDROOT
BRANCH   1   4
HETATM    4  C15 UNL     1      18.723  54.494  36.781  1.00  0.00    -0.059 C 
HETATM    5  C14 UNL     1      17.591  54.506  37.369  1.00  0.00    -0.015 C 
HETATM    6  C16 UNL     1      19.299  55.661  36.108  1.00  0.00     0.048 C 
BRANCH   5   7
HETATM    7  C13 UNL     1      16.691  55.666  37.470  1.00  0.00     0.061 C 
BRANCH   7   8
HETATM    8  C2  UNL     1      15.840  55.403  38.683  1.00  0.00    -0.084 C 
HETATM    9  C1  UNL     1      15.773  53.956  39.111  1.00  0.00     0.043 C 
HETATM   10  C3  UNL     1      15.215  56.341  39.299  1.00  0.00    -0.024 C 
BRANCH  10  11
HETATM   11  C4  UNL     1      15.199  57.757  38.990  1.00  0.00     0.031 C 
BRANCH  11  12
HETATM   12  C5  UNL     1      13.901  58.360  39.525  1.00  0.00     0.037 C 
BRANCH  12  13
HETATM   13  C6  UNL     1      12.832  58.355  38.492  1.00  0.00    -0.085 C 
HETATM   14  C7  UNL     1      12.579  57.175  37.616  1.00  0.00     0.043 C 
HETATM   15  C8  UNL     1      12.082  59.439  38.353  1.00  0.00     0.007 C 
BRANCH  15  16
HETATM   16  C9  UNL     1      11.000  59.472  37.328  1.00  0.00     0.144 C 
BRANCH  16  17
HETATM   17  O1  UNL     1      11.578  59.887  36.121  1.00  0.00    -0.391 OA
ATOM     18  H1  UNL     1      10.952  59.709  35.429  1.00  0.00     0.210 HD
ENDBRANCH  16  17
BRANCH  16  19
HETATM   19  C10 UNL     1       9.889  60.407  37.738  1.00  0.00     0.010 C 
HETATM   20  C11 UNL     1       8.781  59.576  38.355  1.00  0.00     0.012 C 
HETATM   21  C12 UNL     1      10.432  61.418  38.712  1.00  0.00     0.012 C 
ENDBRANCH  16  19
ENDBRANCH  15  16
ENDBRANCH  12  13
ENDBRANCH  11  12
ENDBRANCH  10  11
ENDBRANCH   7   8
ENDBRANCH   5   7
ENDBRANCH   1   4
BRANCH   3  22
HETATM   22  C20 UNL     1      21.445  52.000  35.904  1.00  0.00     0.003 A 
HETATM   23  C21 UNL     1      22.651  51.959  36.626  1.00  0.00     0.048 A 
HETATM   24  C22 UNL     1      23.540  50.933  36.554  1.00  0.00     0.087 A 
HETATM   25  N2  UNL     1      23.215  49.909  35.731  1.00  0.00    -0.339 N 
HETATM   26  C24 UNL     1      22.087  49.876  35.012  1.00  0.00     0.151 A 
ATOM     27  H2  UNL     1      23.861  49.123  35.655  1.00  0.00     0.167 HD
HETATM   28  N3  UNL     1      21.851  48.729  34.169  1.00  0.00    -0.080 NA
HETATM   29  C25 UNL     1      21.202  50.909  35.089  1.00  0.00     0.117 A 
BRANCH  24  30
HETATM   30  C23 UNL     1      24.782  50.932  37.325  1.00  0.00     0.187 C 
HETATM   31  N1  UNL     1      24.929  50.228  38.386  1.00  0.00    -0.246 N 
ATOM     32  H1  UNL     1      25.807  50.248  38.904  1.00  0.00     0.196 HD
BRANCH  30  33
HETATM   33  O2  UNL     1      25.822  51.716  36.892  1.00  0.00    -0.343 OA
ATOM     34  H2  UNL     1      26.646  51.673  37.362  1.00  0.00     0.219 HD
ENDBRANCH  30  33
BRANCH  31  35
HETATM   35  O3  UNL     1      23.886  49.449  38.812  1.00  0.00    -0.288 OA
ATOM     36  H3  UNL     1      23.000  49.774  38.711  1.00  0.00     0.244 HD
ENDBRANCH  31  35
ENDBRANCH  24  30
BRANCH  29  37
HETATM   37  O4  UNL     1      20.050  50.856  34.335  1.00  0.00    -0.357 OA
ATOM     38  H4  UNL     1      19.801  51.597  33.795  1.00  0.00     0.218 HD
ENDBRANCH  29  37
ENDBRANCH   3  22
TORSDOF 14
ENDMDL
MODEL 4
REMARK VINA RESULT: -10.397777015      0.759      1.132
REMARK  14 active torsions:
REMARK  status: ('A' for Active; 'I' for Inactive)
REMARK    1  A    between atoms: C2_2  and  C13_15 
REMARK    2  A    between atoms: C3_3  and  C4_4 
REMARK    3  A    between atoms: C4_4  and  C5_5 
REMARK    4  A    between atoms: C5_5  and  C6_6 
REMARK    5  A    between atoms: C8_8  and  C9_9 
REMARK    6  A    between atoms: C9_9  and  O1_10 
REMARK    7  A    between atoms: C9_9  and  C10_12 
REMARK    8  A    between atoms: C13_15  and  C14_16 
REMARK    9  A    between atoms: C15_17  and  C17_19 
REMARK   10  A    between atoms: C19_21  and  C20_22 
REMARK   11  A    between atoms: C22_24  and  C23_25 
REMARK   12  A    between atoms: C23_25  and  O2_26 
REMARK   13  A    between atoms: N1_28  and  O3_30 
REMARK   14  A    between atoms: C25_36  and  O4_37 
ROOT
HETATM    1  C17 UNL     1      19.087  52.702  36.718  1.00  0.00    -0.056 C 
HETATM    2  C18 UNL     1      20.084  53.783  36.479  1.00  0.00     0.049 C 
HETATM    3  C19 UNL     1      19.353  51.434  36.516  1.00  0.00     0.021 C 
ENDROOT
BRANCH   1   4
HETATM    4  C15 UNL     1      17.715  53.096  37.148  1.00  0.00    -0.059 C 
HETATM    5  C14 UNL     1      17.545  54.232  37.703  1.00  0.00    -0.015 C 
HETATM    6  C16 UNL     1      16.628  52.145  36.899  1.00  0.00     0.048 C 
BRANCH   5   7
HETATM    7  C13 UNL     1      16.260  54.769  38.178  1.00  0.00     0.061 C 
BRANCH   7   8
HETATM    8  C2  UNL     1      16.100  56.092  37.479  1.00  0.00    -0.084 C 
HETATM    9  C1  UNL     1      16.615  56.127  36.059  1.00  0.00     0.043 C 
HETATM   10  C3  UNL     1      15.572  57.112  38.052  1.00  0.00    -0.024 C 
BRANCH  10  11
HETATM   11  C4  UNL     1      15.044  57.207  39.399  1.00  0.00     0.031 C 
BRANCH  11  12
HETATM   12  C5  UNL     1      14.170  58.456  39.497  1.00  0.00     0.037 C 
BRANCH  12  13
HETATM   13  C6  UNL     1      13.000  58.374  38.582  1.00  0.00    -0.085 C 
HETATM   14  C7  UNL     1      12.528  57.081  38.010  1.00  0.00     0.043 C 
HETATM   15  C8  UNL     1      12.360  59.493  38.273  1.00  0.00     0.007 C 
BRANCH  15  16
HETATM   16  C9  UNL     1      11.182  59.452  37.360  1.00  0.00     0.144 C 
BRANCH  16  17
HETATM   17  O1  UNL     1      11.630  59.815  36.083  1.00  0.00    -0.391 OA
ATOM     18  H1  UNL     1      10.865  60.045  35.568  1.00  0.00     0.210 HD
ENDBRANCH  16  17
BRANCH  16  19
HETATM   19  C10 UNL     1      10.095  60.385  37.831  1.00  0.00     0.010 C 
HETATM   20  C11 UNL     1       8.954  59.542  38.367  1.00  0.00     0.012 C 
HETATM   21  C12 UNL     1      10.654  61.298  38.889  1.00  0.00     0.012 C 
ENDBRANCH  16  19
ENDBRANCH  15  16
ENDBRANCH  12  13
ENDBRANCH  11  12
ENDBRANCH  10  11
ENDBRANCH   7   8
ENDBRANCH   5   7
ENDBRANCH   1   4
BRANCH   3  22
HETATM   22  C20 UNL     1      20.633  50.906  36.106  1.00  0.00     0.003 A 
HETATM   23  C21 UNL     1      21.699  50.883  37.021  1.00  0.00     0.048 A 
HETATM   24  C22 UNL     1      22.948  50.442  36.716  1.00  0.00     0.087 A 
HETATM   25  N2  UNL     1      23.142  50.006  35.449  1.00  0.00    -0.339 N 
HETATM   26  C24 UNL     1      22.178  49.998  34.522  1.00  0.00     0.151 A 
ATOM     27  H2  UNL     1      24.068  49.668  35.189  1.00  0.00     0.167 HD
HETATM   28  N3  UNL     1      22.505  49.510  33.204  1.00  0.00    -0.080 NA
HETATM   29  C25 UNL     1      20.929  50.444  34.836  1.00  0.00     0.117 A 
BRANCH  24  30
HETATM   30  C23 UNL     1      24.027  50.434  37.703  1.00  0.00     0.187 C 
HETATM   31  N1  UNL     1      25.051  51.198  37.604  1.00  0.00    -0.246 N 
ATOM     32  H1  UNL     1      25.789  51.171  38.308  1.00  0.00     0.196 HD
BRANCH  30  33
HETATM   33  O2  UNL     1      23.932  49.576  38.769  1.00  0.00    -0.343 OA
ATOM     34  H2  UNL     1      24.733  49.292  39.194  1.00  0.00     0.219 HD
ENDBRANCH  30  33
BRANCH  31  35
HETATM   35  O3  UNL     1      25.138  52.052  36.537  1.00  0.00    -0.288 OA
ATOM     36  H3  UNL     1      25.354  52.964  36.696  1.00  0.00     0.244 HD
ENDBRANCH  31  35
ENDBRANCH  24  30
BRANCH  29  37
HETATM   37  O4  UNL     1      19.953  50.430  33.864  1.00  0.00    -0.357 OA
ATOM     38  H4  UNL     1      19.439  49.645  33.718  1.00  0.00     0.218 HD
ENDBRANCH  29  37
ENDBRANCH   3  22
TORSDOF 14
ENDMDL
MODEL 5
REMARK VINA RESULT: -10.342027466      1.320      2.912
REMARK  14 active torsions:
REMARK  status: ('A' for Active; 'I' for Inactive)
REMARK    1  A    between atoms: C2_2  and  C13_15 
REMARK    2  A    between atoms: C3_3  and  C4_4 
REMARK    3  A    between atoms: C4_4  and  C5_5 
REMARK    4  A    between atoms: C5_5  and  C6_6 
REMARK    5  A    between atoms: C8_8  and  C9_9 
REMARK    6  A    between atoms: C9_9  and  O1_10 
REMARK    7  A    between atoms: C9_9  and  C10_12 
REMARK    8  A    between atoms: C13_15  and  C14_16 
REMARK    9  A    between atoms: C15_17  and  C17_19 
REMARK   10  A    between atoms: C19_21  and  C20_22 
REMARK   11  A    between atoms: C22_24  and  C23_25 
REMARK   12  A    between atoms: C23_25  and  O2_26 
REMARK   13  A    between atoms: N1_28  and  O3_30 
REMARK   14  A    between atoms: C25_36  and  O4_37 
ROOT
HETATM    1  C17 UNL     1      19.635  53.180  36.632  1.00  0.00    -0.056 C 
HETATM    2  C18 UNL     1      19.056  51.990  37.318  1.00  0.00     0.049 C 
HETATM    3  C19 UNL     1      20.780  53.144  35.994  1.00  0.00     0.021 C 
ENDROOT
BRANCH   1   4
HETATM    4  C15 UNL     1      18.902  54.474  36.735  1.00  0.00    -0.059 C 
HETATM    5  C14 UNL     1      17.755  54.490  37.293  1.00  0.00    -0.015 C 
HETATM    6  C16 UNL     1      19.553  55.667  36.186  1.00  0.00     0.048 C 
BRANCH   5   7
HETATM    7  C13 UNL     1      16.909  55.680  37.476  1.00  0.00     0.061 C 
BRANCH   7   8
HETATM    8  C2  UNL     1      15.986  55.339  38.615  1.00  0.00    -0.084 C 
HETATM    9  C1  UNL     1      15.939  53.873  38.978  1.00  0.00     0.043 C 
HETATM   10  C3  UNL     1      15.290  56.229  39.224  1.00  0.00    -0.024 C 
BRANCH  10  11
HETATM   11  C4  UNL     1      15.247  57.656  38.973  1.00  0.00     0.031 C 
BRANCH  11  12
HETATM   12  C5  UNL     1      13.937  58.212  39.529  1.00  0.00     0.037 C 
BRANCH  12  13
HETATM   13  C6  UNL     1      12.875  58.248  38.488  1.00  0.00    -0.085 C 
HETATM   14  C7  UNL     1      12.620  57.099  37.574  1.00  0.00     0.043 C 
HETATM   15  C8  UNL     1      12.135  59.342  38.378  1.00  0.00     0.007 C 
BRANCH  15  16
HETATM   16  C9  UNL     1      11.061  59.416  37.346  1.00  0.00     0.144 C 
BRANCH  16  17
HETATM   17  O1  UNL     1      11.656  59.845  36.152  1.00  0.00    -0.391 OA
ATOM     18  H1  UNL     1      10.979  59.857  35.486  1.00  0.00     0.210 HD
ENDBRANCH  16  17
BRANCH  16  19
HETATM   19  C10 UNL     1       9.964  60.363  37.768  1.00  0.00     0.010 C 
HETATM   20  C11 UNL     1       8.844  59.541  38.374  1.00  0.00     0.012 C 
HETATM   21  C12 UNL     1      10.522  61.353  38.755  1.00  0.00     0.012 C 
ENDBRANCH  16  19
ENDBRANCH  15  16
ENDBRANCH  12  13
ENDBRANCH  11  12
ENDBRANCH  10  11
ENDBRANCH   7   8
ENDBRANCH   5   7
ENDBRANCH   1   4
BRANCH   3  22
HETATM   22  C20 UNL     1      21.595  51.965  35.810  1.00  0.00     0.003 A 
HETATM   23  C21 UNL     1      21.331  51.100  34.734  1.00  0.00     0.048 A 
HETATM   24  C22 UNL     1      22.018  49.950  34.503  1.00  0.00     0.087 A 
HETATM   25  N2  UNL     1      23.006  49.651  35.378  1.00  0.00    -0.339 N 
HETATM   26  C24 UNL     1      23.316  50.424  36.425  1.00  0.00     0.151 A 
ATOM     27  H2  UNL     1      23.541  48.795  35.232  1.00  0.00     0.167 HD
HETATM   28  N3  UNL     1      24.391  49.999  37.289  1.00  0.00    -0.080 NA
HETATM   29  C25 UNL     1      22.622  51.574  36.650  1.00  0.00     0.117 A 
BRANCH  24  30
HETATM   30  C23 UNL     1      21.709  49.081  33.369  1.00  0.00     0.187 C 
HETATM   31  N1  UNL     1      22.475  48.991  32.346  1.00  0.00    -0.246 N 
ATOM     32  H1  UNL     1      22.234  48.376  31.569  1.00  0.00     0.196 HD
BRANCH  30  33
HETATM   33  O2  UNL     1      20.555  48.339  33.408  1.00  0.00    -0.343 OA
ATOM     34  H2  UNL     1      20.429  47.663  32.753  1.00  0.00     0.219 HD
ENDBRANCH  30  33
BRANCH  31  35
HETATM   35  O3  UNL     1      23.625  49.735  32.314  1.00  0.00    -0.288 OA
ATOM     36  H3  UNL     1      23.903  50.115  31.489  1.00  0.00     0.244 HD
ENDBRANCH  31  35
ENDBRANCH  24  30
BRANCH  29  37
HETATM   37  O4  UNL     1      22.956  52.351  37.738  1.00  0.00    -0.357 OA
ATOM     38  H4  UNL     1      23.150  51.942  38.572  1.00  0.00     0.218 HD
ENDBRANCH  29  37
ENDBRANCH   3  22
TORSDOF 14
ENDMDL
