MODEL 1
REMARK VINA RESULT: -9.933687858      0.000      0.000
REMARK  17 active torsions:
REMARK  status: ('A' for Active; 'I' for Inactive)
REMARK    1  A    between atoms: C4_4  and  C5_5 
REMARK    2  A    between atoms: C5_5  and  C6_6 
REMARK    3  A    between atoms: C6_6  and  C7_7 
REMARK    4  A    between atoms: C9_9  and  C10_10 
REMARK    5  A    between atoms: C11_11  and  C12_12 
REMARK    6  A    between atoms: C12_12  and  O1_13 
REMARK    7  A    between atoms: C13_15  and  C14_16 
REMARK    8  A    between atoms: C14_16  and  C15_17 
REMARK    9  A    between atoms: C17_19  and  O2_20 
REMARK   10  A    between atoms: C18_22  and  O3_23 
REMARK   11  A    between atoms: C19_25  and  N1_26 
REMARK   12  A    between atoms: N1_26  and  C20_28 
REMARK   13  A    between atoms: C20_28  and  O4_29 
REMARK   14  A    between atoms: C20_28  and  C21_31 
REMARK   15  A    between atoms: C21_31  and  C22_32 
REMARK   16  A    between atoms: C22_32  and  O5_34 
REMARK   17  A    between atoms: C24_36  and  O6_37 
ROOT
HETATM    1  C15 UNL     1      16.836  54.094  37.658  1.00  0.00    -0.016 A 
HETATM    2  C16 UNL     1      16.306  53.464  38.760  1.00  0.00     0.049 A 
HETATM    3  C17 UNL     1      16.247  52.086  38.750  1.00  0.00     0.101 A 
HETATM    4  C18 UNL     1      16.707  51.372  37.666  1.00  0.00     0.128 A 
HETATM    5  C19 UNL     1      17.241  51.983  36.557  1.00  0.00     0.104 A 
HETATM    6  C24 UNL     1      17.291  53.390  36.588  1.00  0.00     0.102 A 
ENDROOT
BRANCH   1   7
HETATM    7  C14 UNL     1      16.904  55.593  37.630  1.00  0.00     0.071 C 
BRANCH   7   8
HETATM    8  C13 UNL     1      15.669  56.060  36.987  1.00  0.00     0.014 C 
HETATM    9  C12 UNL     1      14.548  56.456  37.602  1.00  0.00     0.062 C 
BRANCH   9  10
HETATM   10  C11 UNL     1      14.448  56.459  39.004  1.00  0.00     0.036 C 
HETATM   11  C10 UNL     1      14.469  57.465  39.833  1.00  0.00     0.003 C 
BRANCH  11  12
HETATM   12  C9  UNL     1      14.606  58.841  39.461  1.00  0.00     0.002 C 
HETATM   13  C7  UNL     1      13.546  59.590  39.166  1.00  0.00    -0.084 C 
HETATM   14  C8  UNL     1      13.902  61.028  38.839  1.00  0.00     0.043 C 
BRANCH  13  15
HETATM   15  C6  UNL     1      12.191  59.110  39.195  1.00  0.00     0.037 C 
BRANCH  15  16
HETATM   16  C5  UNL     1      11.317  59.423  38.028  1.00  0.00     0.031 C 
BRANCH  16  17
HETATM   17  C4  UNL     1       9.907  59.177  38.250  1.00  0.00    -0.024 C 
HETATM   18  C2  UNL     1       9.028  60.171  38.352  1.00  0.00    -0.091 C 
HETATM   19  C1  UNL     1       9.517  61.566  38.233  1.00  0.00     0.042 C 
HETATM   20  C3  UNL     1       7.574  59.872  38.581  1.00  0.00     0.042 C 
ENDBRANCH  16  17
ENDBRANCH  15  16
ENDBRANCH  13  15
ENDBRANCH  11  12
ENDBRANCH   9  10
BRANCH   9  21
HETATM   21  O1  UNL     1      13.478  56.866  36.787  1.00  0.00    -0.361 OA
ATOM     22  H1  UNL     1      12.805  56.257  36.507  1.00  0.00     0.217 HD
ENDBRANCH   9  21
ENDBRANCH   7   8
ENDBRANCH   1   7
BRANCH   6  23
HETATM   23  O6  UNL     1      17.838  53.948  35.447  1.00  0.00    -0.358 OA
ATOM     24  H6  UNL     1      17.803  53.561  34.581  1.00  0.00     0.217 HD
ENDBRANCH   6  23
BRANCH   3  25
HETATM   25  O2  UNL     1      15.716  51.416  39.850  1.00  0.00    -0.358 OA
ATOM     26  H2  UNL     1      14.865  51.000  39.777  1.00  0.00     0.217 HD
ENDBRANCH   3  25
BRANCH   5  27
HETATM   27  N1  UNL     1      17.713  51.239  35.443  1.00  0.00    -0.332 N 
ATOM     28  H1  UNL     1      17.137  51.195  34.603  1.00  0.00     0.168 HD
BRANCH  27  29
HETATM   29  C20 UNL     1      18.943  50.562  35.453  1.00  0.00     0.142 C 
BRANCH  29  30
HETATM   30  O4  UNL     1      18.875  49.421  34.833  1.00  0.00    -0.346 OA
ATOM     31  H4  UNL     1      18.145  49.390  34.226  1.00  0.00     0.219 HD
ENDBRANCH  29  30
BRANCH  29  32
HETATM   32  C21 UNL     1      20.192  50.953  36.031  1.00  0.00     0.087 C 
BRANCH  32  33
HETATM   33  C22 UNL     1      20.889  52.028  35.921  1.00  0.00     0.043 C 
HETATM   34  C23 UNL     1      21.036  53.102  36.908  1.00  0.00     0.076 C 
BRANCH  33  35
HETATM   35  O5  UNL     1      21.615  52.227  34.711  1.00  0.00    -0.365 OA
ATOM     36  H5  UNL     1      21.175  52.680  34.002  1.00  0.00     0.217 HD
ENDBRANCH  33  35
ENDBRANCH  32  33
ENDBRANCH  29  32
ENDBRANCH  27  29
ENDBRANCH   5  27
BRANCH   4  37
HETATM   37  O3  UNL     1      16.637  49.977  37.681  1.00  0.00    -0.356 OA
ATOM     38  H3  UNL     1      17.235  49.484  38.230  1.00  0.00     0.218 HD
ENDBRANCH   4  37
TORSDOF 17
ENDMDL
MODEL 2
REMARK VINA RESULT: -9.671303241      0.943      1.234
REMARK  17 active torsions:
REMARK  status: ('A' for Active; 'I' for Inactive)
REMARK    1  A    between atoms: C4_4  and  C5_5 
REMARK    2  A    between atoms: C5_5  and  C6_6 
REMARK    3  A    between atoms: C6_6  and  C7_7 
REMARK    4  A    between atoms: C9_9  and  C10_10 
REMARK    5  A    between atoms: C11_11  and  C12_12 
REMARK    6  A    between atoms: C12_12  and  O1_13 
REMARK    7  A    between atoms: C13_15  and  C14_16 
REMARK    8  A    between atoms: C14_16  and  C15_17 
REMARK    9  A    between atoms: C17_19  and  O2_20 
REMARK   10  A    between atoms: C18_22  and  O3_23 
REMARK   11  A    between atoms: C19_25  and  N1_26 
REMARK   12  A    between atoms: N1_26  and  C20_28 
REMARK   13  A    between atoms: C20_28  and  O4_29 
REMARK   14  A    between atoms: C20_28  and  C21_31 
REMARK   15  A    between atoms: C21_31  and  C22_32 
REMARK   16  A    between atoms: C22_32  and  O5_34 
REMARK   17  A    between atoms: C24_36  and  O6_37 
ROOT
HETATM    1  C15 UNL     1      16.755  54.215  37.635  1.00  0.00    -0.016 A 
HETATM    2  C16 UNL     1      16.182  53.603  38.726  1.00  0.00     0.049 A 
HETATM    3  C17 UNL     1      16.158  52.225  38.754  1.00  0.00     0.101 A 
HETATM    4  C18 UNL     1      16.693  51.492  37.718  1.00  0.00     0.128 A 
HETATM    5  C19 UNL     1      17.271  52.084  36.620  1.00  0.00     0.104 A 
HETATM    6  C24 UNL     1      17.285  53.493  36.612  1.00  0.00     0.102 A 
ENDROOT
BRANCH   1   7
HETATM    7  C14 UNL     1      16.788  55.714  37.566  1.00  0.00     0.071 C 
BRANCH   7   8
HETATM    8  C13 UNL     1      15.528  56.136  36.943  1.00  0.00     0.014 C 
HETATM    9  C12 UNL     1      14.405  56.499  37.575  1.00  0.00     0.062 C 
BRANCH   9  10
HETATM   10  C11 UNL     1      14.330  56.510  38.978  1.00  0.00     0.036 C 
HETATM   11  C10 UNL     1      14.392  57.518  39.803  1.00  0.00     0.003 C 
BRANCH  11  12
HETATM   12  C9  UNL     1      14.558  58.888  39.423  1.00  0.00     0.002 C 
HETATM   13  C7  UNL     1      13.512  59.666  39.153  1.00  0.00    -0.084 C 
HETATM   14  C8  UNL     1      13.899  61.093  38.812  1.00  0.00     0.043 C 
BRANCH  13  15
HETATM   15  C6  UNL     1      12.145  59.224  39.216  1.00  0.00     0.037 C 
BRANCH  15  16
HETATM   16  C5  UNL     1      11.298  59.404  38.002  1.00  0.00     0.031 C 
BRANCH  16  17
HETATM   17  C4  UNL     1       9.885  59.172  38.215  1.00  0.00    -0.024 C 
HETATM   18  C2  UNL     1       9.022  60.176  38.357  1.00  0.00    -0.091 C 
HETATM   19  C1  UNL     1       9.534  61.567  38.293  1.00  0.00     0.042 C 
HETATM   20  C3  UNL     1       7.564  59.892  38.576  1.00  0.00     0.042 C 
ENDBRANCH  16  17
ENDBRANCH  15  16
ENDBRANCH  13  15
ENDBRANCH  11  12
ENDBRANCH   9  10
BRANCH   9  21
HETATM   21  O1  UNL     1      13.308  56.869  36.777  1.00  0.00    -0.361 OA
ATOM     22  H1  UNL     1      13.276  56.664  35.849  1.00  0.00     0.217 HD
ENDBRANCH   9  21
ENDBRANCH   7   8
ENDBRANCH   1   7
BRANCH   6  23
HETATM   23  O6  UNL     1      17.878  54.033  35.486  1.00  0.00    -0.358 OA
ATOM     24  H6  UNL     1      18.808  54.000  35.292  1.00  0.00     0.217 HD
ENDBRANCH   6  23
BRANCH   3  25
HETATM   25  O2  UNL     1      15.585  51.572  39.843  1.00  0.00    -0.358 OA
ATOM     26  H2  UNL     1      15.471  50.630  39.816  1.00  0.00     0.217 HD
ENDBRANCH   3  25
BRANCH   5  27
HETATM   27  N1  UNL     1      17.821  51.322  35.556  1.00  0.00    -0.332 N 
ATOM     28  H1  UNL     1      17.239  51.125  34.742  1.00  0.00     0.168 HD
BRANCH  27  29
HETATM   29  C20 UNL     1      19.135  50.829  35.581  1.00  0.00     0.142 C 
BRANCH  29  30
HETATM   30  O4  UNL     1      19.754  51.148  36.680  1.00  0.00    -0.346 OA
ATOM     31  H4  UNL     1      20.199  50.403  37.065  1.00  0.00     0.219 HD
ENDBRANCH  29  30
BRANCH  29  32
HETATM   32  C21 UNL     1      19.837  50.060  34.599  1.00  0.00     0.087 C 
BRANCH  32  33
HETATM   33  C22 UNL     1      21.082  50.004  34.283  1.00  0.00     0.043 C 
HETATM   34  C23 UNL     1      21.829  48.838  33.801  1.00  0.00     0.076 C 
BRANCH  33  35
HETATM   35  O5  UNL     1      21.851  51.198  34.404  1.00  0.00    -0.365 OA
ATOM     36  H5  UNL     1      21.860  51.633  35.248  1.00  0.00     0.217 HD
ENDBRANCH  33  35
ENDBRANCH  32  33
ENDBRANCH  29  32
ENDBRANCH  27  29
ENDBRANCH   5  27
BRANCH   4  37
HETATM   37  O3  UNL     1      16.657  50.096  37.770  1.00  0.00    -0.356 OA
ATOM     38  H3  UNL     1      15.823  49.653  37.872  1.00  0.00     0.218 HD
ENDBRANCH   4  37
TORSDOF 17
ENDMDL
MODEL 3
REMARK VINA RESULT: -9.443083149      1.587      2.215
REMARK  17 active torsions:
REMARK  status: ('A' for Active; 'I' for Inactive)
REMARK    1  A    between atoms: C4_4  and  C5_5 
REMARK    2  A    between atoms: C5_5  and  C6_6 
REMARK    3  A    between atoms: C6_6  and  C7_7 
REMARK    4  A    between atoms: C9_9  and  C10_10 
REMARK    5  A    between atoms: C11_11  and  C12_12 
REMARK    6  A    between atoms: C12_12  and  O1_13 
REMARK    7  A    between atoms: C13_15  and  C14_16 
REMARK    8  A    between atoms: C14_16  and  C15_17 
REMARK    9  A    between atoms: C17_19  and  O2_20 
REMARK   10  A    between atoms: C18_22  and  O3_23 
REMARK   11  A    between atoms: C19_25  and  N1_26 
REMARK   12  A    between atoms: N1_26  and  C20_28 
REMARK   13  A    between atoms: C20_28  and  O4_29 
REMARK   14  A    between atoms: C20_28  and  C21_31 
REMARK   15  A    between atoms: C21_31  and  C22_32 
REMARK   16  A    between atoms: C22_32  and  O5_34 
REMARK   17  A    between atoms: C24_36  and  O6_37 
ROOT
HETATM    1  C15 UNL     1      17.208  55.028  36.873  1.00  0.00    -0.016 A 
HETATM    2  C16 UNL     1      16.354  53.952  36.951  1.00  0.00     0.049 A 
HETATM    3  C17 UNL     1      16.868  52.699  36.690  1.00  0.00     0.101 A 
HETATM    4  C18 UNL     1      18.195  52.540  36.361  1.00  0.00     0.128 A 
HETATM    5  C19 UNL     1      19.065  53.601  36.278  1.00  0.00     0.104 A 
HETATM    6  C24 UNL     1      18.519  54.872  36.549  1.00  0.00     0.102 A 
ENDROOT
BRANCH   1   7
HETATM    7  C14 UNL     1      16.680  56.407  37.139  1.00  0.00     0.071 C 
BRANCH   7   8
HETATM    8  C13 UNL     1      15.321  56.453  36.588  1.00  0.00     0.014 C 
HETATM    9  C12 UNL     1      14.176  56.443  37.281  1.00  0.00     0.062 C 
BRANCH   9  10
HETATM   10  C11 UNL     1      14.175  56.383  38.685  1.00  0.00     0.036 C 
HETATM   11  C10 UNL     1      14.271  57.350  39.555  1.00  0.00     0.003 C 
BRANCH  11  12
HETATM   12  C9  UNL     1      14.405  58.738  39.236  1.00  0.00     0.002 C 
HETATM   13  C7  UNL     1      13.339  59.516  39.055  1.00  0.00    -0.084 C 
HETATM   14  C8  UNL     1      13.696  60.962  38.768  1.00  0.00     0.043 C 
BRANCH  13  15
HETATM   15  C6  UNL     1      11.982  59.055  39.162  1.00  0.00     0.037 C 
BRANCH  15  16
HETATM   16  C5  UNL     1      11.101  59.200  37.967  1.00  0.00     0.031 C 
BRANCH  16  17
HETATM   17  C4  UNL     1       9.684  59.101  38.249  1.00  0.00    -0.024 C 
HETATM   18  C2  UNL     1       8.916  60.181  38.373  1.00  0.00    -0.091 C 
HETATM   19  C1  UNL     1       9.539  61.517  38.215  1.00  0.00     0.042 C 
HETATM   20  C3  UNL     1       7.450  60.034  38.665  1.00  0.00     0.042 C 
ENDBRANCH  16  17
ENDBRANCH  15  16
ENDBRANCH  13  15
ENDBRANCH  11  12
ENDBRANCH   9  10
BRANCH   9  21
HETATM   21  O1  UNL     1      12.978  56.494  36.546  1.00  0.00    -0.361 OA
ATOM     22  H1  UNL     1      12.533  55.703  36.265  1.00  0.00     0.217 HD
ENDBRANCH   9  21
ENDBRANCH   7   8
ENDBRANCH   1   7
BRANCH   6  23
HETATM   23  O6  UNL     1      19.439  55.899  36.451  1.00  0.00    -0.358 OA
ATOM     24  H6  UNL     1      19.913  56.132  35.662  1.00  0.00     0.217 HD
ENDBRANCH   6  23
BRANCH   3  25
HETATM   25  O2  UNL     1      16.031  51.588  36.761  1.00  0.00    -0.358 OA
ATOM     26  H2  UNL     1      16.243  50.810  36.259  1.00  0.00     0.217 HD
ENDBRANCH   3  25
BRANCH   5  27
HETATM   27  N1  UNL     1      20.433  53.428  35.938  1.00  0.00    -0.332 N 
ATOM     28  H1  UNL     1      20.711  53.525  34.962  1.00  0.00     0.168 HD
BRANCH  27  29
HETATM   29  C20 UNL     1      21.416  53.129  36.894  1.00  0.00     0.142 C 
BRANCH  29  30
HETATM   30  O4  UNL     1      21.649  54.136  37.684  1.00  0.00    -0.346 OA
ATOM     31  H4  UNL     1      22.556  54.165  37.965  1.00  0.00     0.219 HD
ENDBRANCH  29  30
BRANCH  29  32
HETATM   32  C21 UNL     1      22.153  51.919  37.094  1.00  0.00     0.087 C 
BRANCH  32  33
HETATM   33  C22 UNL     1      22.173  50.810  36.444  1.00  0.00     0.043 C 
HETATM   34  C23 UNL     1      23.066  50.435  35.343  1.00  0.00     0.076 C 
BRANCH  33  35
HETATM   35  O5  UNL     1      21.229  49.808  36.813  1.00  0.00    -0.365 OA
ATOM     36  H5  UNL     1      20.758  49.367  36.116  1.00  0.00     0.217 HD
ENDBRANCH  33  35
ENDBRANCH  32  33
ENDBRANCH  29  32
ENDBRANCH  27  29
ENDBRANCH   5  27
BRANCH   4  37
HETATM   37  O3  UNL     1      18.692  51.260  36.101  1.00  0.00    -0.356 OA
ATOM     38  H3  UNL     1      19.123  51.084  35.274  1.00  0.00     0.218 HD
ENDBRANCH   4  37
TORSDOF 17
ENDMDL
MODEL 4
REMARK VINA RESULT: -9.432692368      1.769      2.320
REMARK  17 active torsions:
REMARK  status: ('A' for Active; 'I' for Inactive)
REMARK    1  A    between atoms: C4_4  and  C5_5 
REMARK    2  A    between atoms: C5_5  and  C6_6 
REMARK    3  A    between atoms: C6_6  and  C7_7 
REMARK    4  A    between atoms: C9_9  and  C10_10 
REMARK    5  A    between atoms: C11_11  and  C12_12 
REMARK    6  A    between atoms: C12_12  and  O1_13 
REMARK    7  A    between atoms: C13_15  and  C14_16 
REMARK    8  A    between atoms: C14_16  and  C15_17 
REMARK    9  A    between atoms: C17_19  and  O2_20 
REMARK   10  A    between atoms: C18_22  and  O3_23 
REMARK   11  A    between atoms: C19_25  and  N1_26 
REMARK   12  A    between atoms: N1_26  and  C20_28 
REMARK   13  A    between atoms: C20_28  and  O4_29 
REMARK   14  A    between atoms: C20_28  and  C21_31 
REMARK   15  A    between atoms: C21_31  and  C22_32 
REMARK   16  A    between atoms: C22_32  and  O5_34 
REMARK   17  A    between atoms: C24_36  and  O6_37 
ROOT
HETATM    1  C15 UNL     1      17.745  54.000  37.495  1.00  0.00    -0.016 A 
HETATM    2  C16 UNL     1      16.881  52.931  37.449  1.00  0.00     0.049 A 
HETATM    3  C17 UNL     1      17.333  51.757  36.885  1.00  0.00     0.101 A 
HETATM    4  C18 UNL     1      18.613  51.667  36.385  1.00  0.00     0.128 A 
HETATM    5  C19 UNL     1      19.493  52.723  36.421  1.00  0.00     0.104 A 
HETATM    6  C24 UNL     1      19.009  53.912  37.001  1.00  0.00     0.102 A 
ENDROOT
BRANCH   1   7
HETATM    7  C14 UNL     1      17.281  55.296  38.090  1.00  0.00     0.071 C 
BRANCH   7   8
HETATM    8  C13 UNL     1      16.143  55.750  37.283  1.00  0.00     0.014 C 
HETATM    9  C12 UNL     1      14.950  56.154  37.738  1.00  0.00     0.062 C 
BRANCH   9  10
HETATM   10  C11 UNL     1      14.667  56.182  39.115  1.00  0.00     0.036 C 
HETATM   11  C10 UNL     1      14.545  57.205  39.914  1.00  0.00     0.003 C 
BRANCH  11  12
HETATM   12  C9  UNL     1      14.683  58.576  39.529  1.00  0.00     0.002 C 
HETATM   13  C7  UNL     1      13.630  59.305  39.165  1.00  0.00    -0.084 C 
HETATM   14  C8  UNL     1      13.983  60.744  38.836  1.00  0.00     0.043 C 
BRANCH  13  15
HETATM   15  C6  UNL     1      12.282  58.806  39.127  1.00  0.00     0.037 C 
BRANCH  15  16
HETATM   16  C5  UNL     1      11.391  59.290  38.033  1.00  0.00     0.031 C 
BRANCH  16  17
HETATM   17  C4  UNL     1       9.977  59.107  38.285  1.00  0.00    -0.024 C 
HETATM   18  C2  UNL     1       9.137  60.137  38.358  1.00  0.00    -0.091 C 
HETATM   19  C1  UNL     1       9.676  61.507  38.174  1.00  0.00     0.042 C 
HETATM   20  C3  UNL     1       7.677  59.902  38.619  1.00  0.00     0.042 C 
ENDBRANCH  16  17
ENDBRANCH  15  16
ENDBRANCH  13  15
ENDBRANCH  11  12
ENDBRANCH   9  10
BRANCH   9  21
HETATM   21  O1  UNL     1      13.996  56.547  36.783  1.00  0.00    -0.361 OA
ATOM     22  H1  UNL     1      14.026  56.225  35.889  1.00  0.00     0.217 HD
ENDBRANCH   9  21
ENDBRANCH   7   8
ENDBRANCH   1   7
BRANCH   6  23
HETATM   23  O6  UNL     1      19.936  54.938  37.011  1.00  0.00    -0.358 OA
ATOM     24  H6  UNL     1      20.865  54.831  37.178  1.00  0.00     0.217 HD
ENDBRANCH   6  23
BRANCH   3  25
HETATM   25  O2  UNL     1      16.484  50.655  36.823  1.00  0.00    -0.358 OA
ATOM     26  H2  UNL     1      15.708  50.631  37.370  1.00  0.00     0.217 HD
ENDBRANCH   3  25
BRANCH   5  27
HETATM   27  N1  UNL     1      20.811  52.622  35.903  1.00  0.00    -0.332 N 
ATOM     28  H1  UNL     1      20.971  52.854  34.922  1.00  0.00     0.168 HD
BRANCH  27  29
HETATM   29  C20 UNL     1      21.902  52.217  36.687  1.00  0.00     0.142 C 
BRANCH  29  30
HETATM   30  O4  UNL     1      22.133  53.045  37.663  1.00  0.00    -0.346 OA
ATOM     31  H4  UNL     1      22.999  52.922  38.035  1.00  0.00     0.219 HD
ENDBRANCH  29  30
BRANCH  29  32
HETATM   32  C21 UNL     1      22.743  51.067  36.551  1.00  0.00     0.087 C 
BRANCH  32  33
HETATM   33  C22 UNL     1      24.019  50.945  36.447  1.00  0.00     0.043 C 
HETATM   34  C23 UNL     1      24.776  49.737  36.108  1.00  0.00     0.076 C 
BRANCH  33  35
HETATM   35  O5  UNL     1      24.817  52.103  36.683  1.00  0.00    -0.365 OA
ATOM     36  H5  UNL     1      25.432  52.075  37.405  1.00  0.00     0.217 HD
ENDBRANCH  33  35
ENDBRANCH  32  33
ENDBRANCH  29  32
ENDBRANCH  27  29
ENDBRANCH   5  27
BRANCH   4  37
HETATM   37  O3  UNL     1      19.049  50.467  35.818  1.00  0.00    -0.356 OA
ATOM     38  H3  UNL     1      18.415  49.791  35.609  1.00  0.00     0.218 HD
ENDBRANCH   4  37
TORSDOF 17
ENDMDL
MODEL 5
REMARK VINA RESULT: -9.356959723      1.492      2.719
REMARK  17 active torsions:
REMARK  status: ('A' for Active; 'I' for Inactive)
REMARK    1  A    between atoms: C4_4  and  C5_5 
REMARK    2  A    between atoms: C5_5  and  C6_6 
REMARK    3  A    between atoms: C6_6  and  C7_7 
REMARK    4  A    between atoms: C9_9  and  C10_10 
REMARK    5  A    between atoms: C11_11  and  C12_12 
REMARK    6  A    between atoms: C12_12  and  O1_13 
REMARK    7  A    between atoms: C13_15  and  C14_16 
REMARK    8  A    between atoms: C14_16  and  C15_17 
REMARK    9  A    between atoms: C17_19  and  O2_20 
REMARK   10  A    between atoms: C18_22  and  O3_23 
REMARK   11  A    between atoms: C19_25  and  N1_26 
REMARK   12  A    between atoms: N1_26  and  C20_28 
REMARK   13  A    between atoms: C20_28  and  O4_29 
REMARK   14  A    between atoms: C20_28  and  C21_31 
REMARK   15  A    between atoms: C21_31  and  C22_32 
REMARK   16  A    between atoms: C22_32  and  O5_34 
REMARK   17  A    between atoms: C24_36  and  O6_37 
ROOT
HETATM    1  C15 UNL     1      17.823  54.326  37.582  1.00  0.00    -0.016 A 
HETATM    2  C16 UNL     1      18.480  55.345  36.932  1.00  0.00     0.049 A 
HETATM    3  C17 UNL     1      19.598  55.024  36.191  1.00  0.00     0.101 A 
HETATM    4  C18 UNL     1      20.036  53.721  36.111  1.00  0.00     0.128 A 
HETATM    5  C19 UNL     1      19.393  52.689  36.752  1.00  0.00     0.104 A 
HETATM    6  C24 UNL     1      18.254  53.039  37.503  1.00  0.00     0.102 A 
ENDROOT
BRANCH   1   7
HETATM    7  C14 UNL     1      16.610  54.641  38.407  1.00  0.00     0.071 C 
BRANCH   7   8
HETATM    8  C13 UNL     1      15.721  55.447  37.562  1.00  0.00     0.014 C 
HETATM    9  C12 UNL     1      14.728  56.244  37.976  1.00  0.00     0.062 C 
BRANCH   9  10
HETATM   10  C11 UNL     1      14.433  56.390  39.343  1.00  0.00     0.036 C 
HETATM   11  C10 UNL     1      14.355  57.474  40.062  1.00  0.00     0.003 C 
BRANCH  11  12
HETATM   12  C9  UNL     1      14.566  58.804  39.578  1.00  0.00     0.002 C 
HETATM   13  C7  UNL     1      13.549  59.575  39.199  1.00  0.00    -0.084 C 
HETATM   14  C8  UNL     1      13.980  60.962  38.759  1.00  0.00     0.043 C 
BRANCH  13  15
HETATM   15  C6  UNL     1      12.171  59.165  39.240  1.00  0.00     0.037 C 
BRANCH  15  16
HETATM   16  C5  UNL     1      11.362  59.317  37.996  1.00  0.00     0.031 C 
BRANCH  16  17
HETATM   17  C4  UNL     1       9.941  59.102  38.174  1.00  0.00    -0.024 C 
HETATM   18  C2  UNL     1       9.094  60.114  38.346  1.00  0.00    -0.091 C 
HETATM   19  C1  UNL     1       9.631  61.497  38.353  1.00  0.00     0.042 C 
HETATM   20  C3  UNL     1       7.627  59.847  38.525  1.00  0.00     0.042 C 
ENDBRANCH  16  17
ENDBRANCH  15  16
ENDBRANCH  13  15
ENDBRANCH  11  12
ENDBRANCH   9  10
BRANCH   9  21
HETATM   21  O1  UNL     1      13.997  56.928  36.989  1.00  0.00    -0.361 OA
ATOM     22  H1  UNL     1      14.429  57.371  36.268  1.00  0.00     0.217 HD
ENDBRANCH   9  21
ENDBRANCH   7   8
ENDBRANCH   1   7
BRANCH   6  23
HETATM   23  O6  UNL     1      17.649  51.962  38.123  1.00  0.00    -0.358 OA
ATOM     24  H6  UNL     1      17.727  51.057  37.843  1.00  0.00     0.217 HD
ENDBRANCH   6  23
BRANCH   3  25
HETATM   25  O2  UNL     1      20.287  56.032  35.520  1.00  0.00    -0.358 OA
ATOM     26  H2  UNL     1      21.199  55.900  35.289  1.00  0.00     0.217 HD
ENDBRANCH   3  25
BRANCH   5  27
HETATM   27  N1  UNL     1      19.851  51.347  36.664  1.00  0.00    -0.332 N 
ATOM     28  H1  UNL     1      20.520  51.011  37.357  1.00  0.00     0.168 HD
BRANCH  27  29
HETATM   29  C20 UNL     1      19.420  50.466  35.660  1.00  0.00     0.142 C 
BRANCH  29  30
HETATM   30  O4  UNL     1      18.246  49.969  35.922  1.00  0.00    -0.346 OA
ATOM     31  H4  UNL     1      17.715  49.882  35.138  1.00  0.00     0.219 HD
ENDBRANCH  29  30
BRANCH  29  32
HETATM   32  C21 UNL     1      20.077  50.071  34.452  1.00  0.00     0.087 C 
BRANCH  32  33
HETATM   33  C22 UNL     1      21.321  49.948  34.153  1.00  0.00     0.043 C 
HETATM   34  C23 UNL     1      22.022  48.733  33.727  1.00  0.00     0.076 C 
BRANCH  33  35
HETATM   35  O5  UNL     1      22.140  51.112  34.236  1.00  0.00    -0.365 OA
ATOM     36  H5  UNL     1      22.456  51.488  33.422  1.00  0.00     0.217 HD
ENDBRANCH  33  35
ENDBRANCH  32  33
ENDBRANCH  29  32
ENDBRANCH  27  29
ENDBRANCH   5  27
BRANCH   4  37
HETATM   37  O3  UNL     1      21.171  53.421  35.354  1.00  0.00    -0.356 OA
ATOM     38  H3  UNL     1      21.331  52.525  35.084  1.00  0.00     0.218 HD
ENDBRANCH   4  37
TORSDOF 17
ENDMDL
