MODEL 1
REMARK VINA RESULT: -8.171179175      0.000      0.000
REMARK  14 active torsions:
REMARK  status: ('A' for Active; 'I' for Inactive)
REMARK    1  A    between atoms: C2_2  and  C3_3 
REMARK    2  A    between atoms: C4_4  and  C6_6 
REMARK    3  A    between atoms: C6_6  and  O1_7 
REMARK    4  A    between atoms: C6_6  and  C7_9 
REMARK    5  A    between atoms: C8_10  and  C9_11 
REMARK    6  A    between atoms: C9_11  and  C11_13 
REMARK    7  A    between atoms: C11_13  and  C12_14 
REMARK    8  A    between atoms: C15_19  and  O2_20 
REMARK    9  A    between atoms: C16_22  and  O3_23 
REMARK   10  A    between atoms: C17_25  and  C18_26 
REMARK   11  A    between atoms: C19_27  and  C21_29 
REMARK   12  A    between atoms: C22_30  and  C23_31 
REMARK   13  A    between atoms: C23_31  and  N2_32 
REMARK   14  A    between atoms: N2_32  and  N3_33 
ROOT
HETATM    1  C12 UNL     1      19.122  51.857  36.215  1.00  0.00     0.040 C 
HETATM    2  C13 UNL     1      17.943  50.986  36.036  1.00  0.00     0.129 C 
HETATM    3  N1  UNL     1      18.221  50.400  34.707  1.00  0.00    -0.386 N 
ATOM      4  H1  UNL     1      17.562  50.189  33.957  1.00  0.00     0.159 HD
HETATM    5  C14 UNL     1      19.629  50.203  34.728  1.00  0.00     0.071 A 
HETATM    6  C15 UNL     1      20.390  49.287  33.971  1.00  0.00     0.127 A 
HETATM    7  C16 UNL     1      21.742  49.240  34.144  1.00  0.00     0.112 A 
HETATM    8  C17 UNL     1      22.313  50.092  35.056  1.00  0.00     0.007 A 
HETATM    9  C24 UNL     1      21.593  51.015  35.825  1.00  0.00    -0.040 A 
HETATM   10  C25 UNL     1      22.315  51.895  36.784  1.00  0.00     0.050 C 
HETATM   11  C26 UNL     1      20.224  51.044  35.631  1.00  0.00    -0.016 A 
ENDROOT
BRANCH   1  12
HETATM   12  C11 UNL     1      19.409  52.442  37.517  1.00  0.00     0.019 C 
BRANCH  12  13
HETATM   13  C9  UNL     1      19.190  53.903  37.720  1.00  0.00     0.004 C 
HETATM   14  C10 UNL     1      20.390  54.544  38.432  1.00  0.00     0.014 C 
BRANCH  13  15
HETATM   15  C8  UNL     1      18.815  54.742  36.607  1.00  0.00    -0.024 C 
HETATM   16  C7  UNL     1      17.587  55.163  36.331  1.00  0.00     0.005 C 
BRANCH  16  17
HETATM   17  C6  UNL     1      16.457  54.772  37.208  1.00  0.00     0.169 C 
BRANCH  17  18
HETATM   18  C4  UNL     1      15.473  55.866  37.186  1.00  0.00    -0.056 C 
HETATM   19  C3  UNL     1      15.086  56.522  38.229  1.00  0.00    -0.022 C 
HETATM   20  C5  UNL     1      14.899  56.219  35.834  1.00  0.00     0.046 C 
BRANCH  19  21
HETATM   21  C2  UNL     1      15.554  56.289  39.592  1.00  0.00     0.023 C 
HETATM   22  C1  UNL     1      14.786  57.263  40.505  1.00  0.00     0.009 C 
ENDBRANCH  19  21
ENDBRANCH  17  18
BRANCH  17  23
HETATM   23  O1  UNL     1      15.901  53.617  36.575  1.00  0.00    -0.387 OA
ATOM     24  H1  UNL     1      16.599  53.020  36.334  1.00  0.00     0.210 HD
ENDBRANCH  17  23
ENDBRANCH  16  17
ENDBRANCH  13  15
ENDBRANCH  12  13
ENDBRANCH   1  12
BRANCH   6  25
HETATM   25  O2  UNL     1      19.712  48.473  33.079  1.00  0.00    -0.356 OA
ATOM     26  H2  UNL     1      19.638  48.770  32.180  1.00  0.00     0.218 HD
ENDBRANCH   6  25
BRANCH   8  27
HETATM   27  C18 UNL     1      23.736  50.040  35.291  1.00  0.00     0.021 C 
HETATM   28  C19 UNL     1      24.403  49.195  36.053  1.00  0.00    -0.061 C 
HETATM   29  C20 UNL     1      25.878  49.340  36.126  1.00  0.00     0.048 C 
BRANCH  28  30
HETATM   30  C21 UNL     1      23.714  48.231  36.859  1.00  0.00     0.004 C 
HETATM   31  C22 UNL     1      23.600  46.945  36.786  1.00  0.00    -0.009 C 
BRANCH  31  32
HETATM   32  C23 UNL     1      24.108  45.950  35.876  1.00  0.00     0.161 C 
BRANCH  32  33
HETATM   33  N2  UNL     1      23.385  45.927  34.599  1.00  0.00    -0.145 NA
BRANCH  33  34
HETATM   34  N3  UNL     1      22.042  45.663  34.775  1.00  0.00    -0.348 N 
ATOM     35  H32 UNL     1      21.585  45.671  35.687  1.00  0.00     0.172 HD
ATOM     36  H31 UNL     1      21.577  45.462  33.890  1.00  0.00     0.172 HD
ENDBRANCH  33  34
ENDBRANCH  32  33
ENDBRANCH  31  32
ENDBRANCH  28  30
ENDBRANCH   8  27
BRANCH   7  37
HETATM   37  O3  UNL     1      22.513  48.363  33.420  1.00  0.00    -0.357 OA
ATOM     38  H3  UNL     1      23.457  48.461  33.385  1.00  0.00     0.217 HD
ENDBRANCH   7  37
TORSDOF 14
ENDMDL
MODEL 2
REMARK VINA RESULT: -7.891607876      1.584      1.728
REMARK  14 active torsions:
REMARK  status: ('A' for Active; 'I' for Inactive)
REMARK    1  A    between atoms: C2_2  and  C3_3 
REMARK    2  A    between atoms: C4_4  and  C6_6 
REMARK    3  A    between atoms: C6_6  and  O1_7 
REMARK    4  A    between atoms: C6_6  and  C7_9 
REMARK    5  A    between atoms: C8_10  and  C9_11 
REMARK    6  A    between atoms: C9_11  and  C11_13 
REMARK    7  A    between atoms: C11_13  and  C12_14 
REMARK    8  A    between atoms: C15_19  and  O2_20 
REMARK    9  A    between atoms: C16_22  and  O3_23 
REMARK   10  A    between atoms: C17_25  and  C18_26 
REMARK   11  A    between atoms: C19_27  and  C21_29 
REMARK   12  A    between atoms: C22_30  and  C23_31 
REMARK   13  A    between atoms: C23_31  and  N2_32 
REMARK   14  A    between atoms: N2_32  and  N3_33 
ROOT
HETATM    1  C12 UNL     1      19.175  51.748  36.150  1.00  0.00     0.040 C 
HETATM    2  C13 UNL     1      17.991  50.870  36.054  1.00  0.00     0.129 C 
HETATM    3  N1  UNL     1      18.184  50.278  34.712  1.00  0.00    -0.386 N 
ATOM      4  H1  UNL     1      17.479  50.059  34.008  1.00  0.00     0.159 HD
HETATM    5  C14 UNL     1      19.592  50.087  34.643  1.00  0.00     0.071 A 
HETATM    6  C15 UNL     1      20.306  49.170  33.843  1.00  0.00     0.127 A 
HETATM    7  C16 UNL     1      21.667  49.130  33.929  1.00  0.00     0.112 A 
HETATM    8  C17 UNL     1      22.292  49.990  34.797  1.00  0.00     0.007 A 
HETATM    9  C24 UNL     1      21.619  50.914  35.605  1.00  0.00    -0.040 A 
HETATM   10  C25 UNL     1      22.397  51.803  36.510  1.00  0.00     0.050 C 
HETATM   11  C26 UNL     1      20.240  50.936  35.501  1.00  0.00    -0.016 A 
ENDROOT
BRANCH   1  12
HETATM   12  C11 UNL     1      19.543  52.342  37.428  1.00  0.00     0.019 C 
BRANCH  12  13
HETATM   13  C9  UNL     1      19.295  53.796  37.650  1.00  0.00     0.004 C 
HETATM   14  C10 UNL     1      20.486  54.452  38.363  1.00  0.00     0.014 C 
BRANCH  13  15
HETATM   15  C8  UNL     1      18.897  54.640  36.549  1.00  0.00    -0.024 C 
HETATM   16  C7  UNL     1      17.670  55.095  36.323  1.00  0.00     0.005 C 
BRANCH  16  17
HETATM   17  C6  UNL     1      16.568  54.738  37.248  1.00  0.00     0.169 C 
BRANCH  17  18
HETATM   18  C4  UNL     1      15.568  55.816  37.189  1.00  0.00    -0.056 C 
HETATM   19  C3  UNL     1      15.138  56.472  38.215  1.00  0.00    -0.022 C 
HETATM   20  C5  UNL     1      15.030  56.151  35.817  1.00  0.00     0.046 C 
BRANCH  19  21
HETATM   21  C2  UNL     1      15.568  56.255  39.593  1.00  0.00     0.023 C 
HETATM   22  C1  UNL     1      14.807  57.269  40.468  1.00  0.00     0.009 C 
ENDBRANCH  19  21
ENDBRANCH  17  18
BRANCH  17  23
HETATM   23  O1  UNL     1      16.015  53.542  36.696  1.00  0.00    -0.387 OA
ATOM     24  H1  UNL     1      16.402  53.375  35.844  1.00  0.00     0.210 HD
ENDBRANCH  17  23
ENDBRANCH  16  17
ENDBRANCH  13  15
ENDBRANCH  12  13
ENDBRANCH   1  12
BRANCH   6  25
HETATM   25  O2  UNL     1      19.575  48.347  33.002  1.00  0.00    -0.356 OA
ATOM     26  H2  UNL     1      20.056  47.731  32.463  1.00  0.00     0.218 HD
ENDBRANCH   6  25
BRANCH   8  27
HETATM   27  C18 UNL     1      23.728  49.945  34.939  1.00  0.00     0.021 C 
HETATM   28  C19 UNL     1      24.455  49.031  35.549  1.00  0.00    -0.061 C 
HETATM   29  C20 UNL     1      25.929  49.203  35.552  1.00  0.00     0.048 C 
BRANCH  28  30
HETATM   30  C21 UNL     1      23.835  47.958  36.268  1.00  0.00     0.004 C 
HETATM   31  C22 UNL     1      23.909  47.566  37.499  1.00  0.00    -0.009 C 
BRANCH  31  32
HETATM   32  C23 UNL     1      24.637  48.034  38.651  1.00  0.00     0.161 C 
BRANCH  32  33
HETATM   33  N2  UNL     1      24.116  49.303  39.174  1.00  0.00    -0.145 NA
BRANCH  33  34
HETATM   34  N3  UNL     1      24.956  50.359  38.885  1.00  0.00    -0.348 N 
ATOM     35  H32 UNL     1      25.909  50.239  38.542  1.00  0.00     0.172 HD
ATOM     36  H31 UNL     1      24.506  51.258  39.057  1.00  0.00     0.172 HD
ENDBRANCH  33  34
ENDBRANCH  32  33
ENDBRANCH  31  32
ENDBRANCH  28  30
ENDBRANCH   8  27
BRANCH   7  37
HETATM   37  O3  UNL     1      22.393  48.252  33.161  1.00  0.00    -0.357 OA
ATOM     38  H3  UNL     1      23.226  47.914  33.467  1.00  0.00     0.217 HD
ENDBRANCH   7  37
TORSDOF 14
ENDMDL
MODEL 3
REMARK VINA RESULT: -7.645574233      2.546      3.891
REMARK  14 active torsions:
REMARK  status: ('A' for Active; 'I' for Inactive)
REMARK    1  A    between atoms: C2_2  and  C3_3 
REMARK    2  A    between atoms: C4_4  and  C6_6 
REMARK    3  A    between atoms: C6_6  and  O1_7 
REMARK    4  A    between atoms: C6_6  and  C7_9 
REMARK    5  A    between atoms: C8_10  and  C9_11 
REMARK    6  A    between atoms: C9_11  and  C11_13 
REMARK    7  A    between atoms: C11_13  and  C12_14 
REMARK    8  A    between atoms: C15_19  and  O2_20 
REMARK    9  A    between atoms: C16_22  and  O3_23 
REMARK   10  A    between atoms: C17_25  and  C18_26 
REMARK   11  A    between atoms: C19_27  and  C21_29 
REMARK   12  A    between atoms: C22_30  and  C23_31 
REMARK   13  A    between atoms: C23_31  and  N2_32 
REMARK   14  A    between atoms: N2_32  and  N3_33 
ROOT
HETATM    1  C12 UNL     1      19.570  53.328  37.256  1.00  0.00     0.040 C 
HETATM    2  C13 UNL     1      20.387  54.554  37.367  1.00  0.00     0.129 C 
HETATM    3  N1  UNL     1      21.632  54.013  37.956  1.00  0.00    -0.386 N 
ATOM      4  H1  UNL     1      22.238  54.439  38.658  1.00  0.00     0.159 HD
HETATM    5  C14 UNL     1      21.778  52.757  37.305  1.00  0.00     0.071 A 
HETATM    6  C15 UNL     1      22.962  52.016  37.103  1.00  0.00     0.127 A 
HETATM    7  C16 UNL     1      22.898  50.827  36.439  1.00  0.00     0.112 A 
HETATM    8  C17 UNL     1      21.675  50.394  35.990  1.00  0.00     0.007 A 
HETATM    9  C24 UNL     1      20.479  51.100  36.174  1.00  0.00    -0.040 A 
HETATM   10  C25 UNL     1      19.205  50.536  35.648  1.00  0.00     0.050 C 
HETATM   11  C26 UNL     1      20.569  52.303  36.849  1.00  0.00    -0.016 A 
ENDROOT
BRANCH   1  12
HETATM   12  C11 UNL     1      18.340  53.337  36.476  1.00  0.00     0.019 C 
BRANCH  12  13
HETATM   13  C9  UNL     1      17.034  53.481  37.183  1.00  0.00     0.004 C 
HETATM   14  C10 UNL     1      16.211  52.189  37.083  1.00  0.00     0.014 C 
BRANCH  13  15
HETATM   15  C8  UNL     1      16.996  53.946  38.549  1.00  0.00    -0.024 C 
HETATM   16  C7  UNL     1      16.328  55.004  38.990  1.00  0.00     0.005 C 
BRANCH  16  17
HETATM   17  C6  UNL     1      15.530  55.822  38.046  1.00  0.00     0.169 C 
BRANCH  17  18
HETATM   18  C4  UNL     1      14.683  56.725  38.840  1.00  0.00    -0.056 C 
HETATM   19  C3  UNL     1      13.617  57.305  38.397  1.00  0.00    -0.022 C 
HETATM   20  C5  UNL     1      15.120  56.967  40.266  1.00  0.00     0.046 C 
BRANCH  19  21
HETATM   21  C2  UNL     1      13.080  57.164  37.048  1.00  0.00     0.023 C 
HETATM   22  C1  UNL     1      12.307  58.458  36.731  1.00  0.00     0.009 C 
ENDBRANCH  19  21
ENDBRANCH  17  18
BRANCH  17  23
HETATM   23  O1  UNL     1      16.503  56.587  37.330  1.00  0.00    -0.387 OA
ATOM     24  H1  UNL     1      16.361  56.488  36.396  1.00  0.00     0.210 HD
ENDBRANCH  17  23
ENDBRANCH  16  17
ENDBRANCH  13  15
ENDBRANCH  12  13
ENDBRANCH   1  12
BRANCH   6  25
HETATM   25  O2  UNL     1      24.142  52.546  37.596  1.00  0.00    -0.356 OA
ATOM     26  H2  UNL     1      24.633  53.130  37.030  1.00  0.00     0.218 HD
ENDBRANCH   6  25
BRANCH   8  27
HETATM   27  C18 UNL     1      21.579  49.159  35.251  1.00  0.00     0.021 C 
HETATM   28  C19 UNL     1      21.872  48.946  33.983  1.00  0.00    -0.061 C 
HETATM   29  C20 UNL     1      21.698  47.573  33.449  1.00  0.00     0.048 C 
BRANCH  28  30
HETATM   30  C21 UNL     1      22.253  50.030  33.126  1.00  0.00     0.004 C 
HETATM   31  C22 UNL     1      23.362  50.335  32.534  1.00  0.00    -0.009 C 
BRANCH  31  32
HETATM   32  C23 UNL     1      24.667  49.724  32.488  1.00  0.00     0.161 C 
BRANCH  32  33
HETATM   33  N2  UNL     1      25.372  49.794  33.772  1.00  0.00    -0.145 NA
BRANCH  33  34
HETATM   34  N3  UNL     1      25.873  48.565  34.149  1.00  0.00    -0.348 N 
ATOM     35  H32 UNL     1      25.296  47.729  34.240  1.00  0.00     0.172 HD
ATOM     36  H31 UNL     1      26.878  48.602  34.322  1.00  0.00     0.172 HD
ENDBRANCH  33  34
ENDBRANCH  32  33
ENDBRANCH  31  32
ENDBRANCH  28  30
ENDBRANCH   8  27
BRANCH   7  37
HETATM   37  O3  UNL     1      24.030  50.078  36.228  1.00  0.00    -0.357 OA
ATOM     38  H3  UNL     1      24.256  49.774  35.357  1.00  0.00     0.217 HD
ENDBRANCH   7  37
TORSDOF 14
ENDMDL
MODEL 4
REMARK VINA RESULT: -7.517494011      2.476      3.586
REMARK  14 active torsions:
REMARK  status: ('A' for Active; 'I' for Inactive)
REMARK    1  A    between atoms: C2_2  and  C3_3 
REMARK    2  A    between atoms: C4_4  and  C6_6 
REMARK    3  A    between atoms: C6_6  and  O1_7 
REMARK    4  A    between atoms: C6_6  and  C7_9 
REMARK    5  A    between atoms: C8_10  and  C9_11 
REMARK    6  A    between atoms: C9_11  and  C11_13 
REMARK    7  A    between atoms: C11_13  and  C12_14 
REMARK    8  A    between atoms: C15_19  and  O2_20 
REMARK    9  A    between atoms: C16_22  and  O3_23 
REMARK   10  A    between atoms: C17_25  and  C18_26 
REMARK   11  A    between atoms: C19_27  and  C21_29 
REMARK   12  A    between atoms: C22_30  and  C23_31 
REMARK   13  A    between atoms: C23_31  and  N2_32 
REMARK   14  A    between atoms: N2_32  and  N3_33 
ROOT
HETATM    1  C12 UNL     1      19.600  53.338  37.266  1.00  0.00     0.040 C 
HETATM    2  C13 UNL     1      20.438  54.549  37.385  1.00  0.00     0.129 C 
HETATM    3  N1  UNL     1      21.675  53.982  37.965  1.00  0.00    -0.386 N 
ATOM      4  H1  UNL     1      22.290  54.392  38.669  1.00  0.00     0.159 HD
HETATM    5  C14 UNL     1      21.798  52.729  37.304  1.00  0.00     0.071 A 
HETATM    6  C15 UNL     1      22.969  51.969  37.093  1.00  0.00     0.127 A 
HETATM    7  C16 UNL     1      22.882  50.787  36.419  1.00  0.00     0.112 A 
HETATM    8  C17 UNL     1      21.651  50.379  35.971  1.00  0.00     0.007 A 
HETATM    9  C24 UNL     1      20.467  51.103  36.163  1.00  0.00    -0.040 A 
HETATM   10  C25 UNL     1      19.183  50.566  35.636  1.00  0.00     0.050 C 
HETATM   11  C26 UNL     1      20.580  52.299  36.848  1.00  0.00    -0.016 A 
ENDROOT
BRANCH   1  12
HETATM   12  C11 UNL     1      18.368  53.374  36.490  1.00  0.00     0.019 C 
BRANCH  12  13
HETATM   13  C9  UNL     1      17.241  54.232  36.957  1.00  0.00     0.004 C 
HETATM   14  C10 UNL     1      16.989  54.035  38.459  1.00  0.00     0.014 C 
BRANCH  13  15
HETATM   15  C8  UNL     1      17.240  55.647  36.673  1.00  0.00    -0.024 C 
HETATM   16  C7  UNL     1      16.178  56.443  36.698  1.00  0.00     0.005 C 
BRANCH  16  17
HETATM   17  C6  UNL     1      14.847  55.889  37.041  1.00  0.00     0.169 C 
BRANCH  17  18
HETATM   18  C4  UNL     1      14.046  56.977  37.624  1.00  0.00    -0.056 C 
HETATM   19  C3  UNL     1      14.242  57.483  38.796  1.00  0.00    -0.022 C 
HETATM   20  C5  UNL     1      12.926  57.514  36.763  1.00  0.00     0.046 C 
BRANCH  19  21
HETATM   21  C2  UNL     1      15.281  57.064  39.731  1.00  0.00     0.023 C 
HETATM   22  C1  UNL     1      14.643  57.037  41.132  1.00  0.00     0.009 C 
ENDBRANCH  19  21
ENDBRANCH  17  18
BRANCH  17  23
HETATM   23  O1  UNL     1      14.287  55.504  35.783  1.00  0.00    -0.387 OA
ATOM     24  H1  UNL     1      14.139  56.277  35.251  1.00  0.00     0.210 HD
ENDBRANCH  17  23
ENDBRANCH  16  17
ENDBRANCH  13  15
ENDBRANCH  12  13
ENDBRANCH   1  12
BRANCH   6  25
HETATM   25  O2  UNL     1      24.159  52.475  37.587  1.00  0.00    -0.356 OA
ATOM     26  H2  UNL     1      24.605  53.135  37.069  1.00  0.00     0.218 HD
ENDBRANCH   6  25
BRANCH   8  27
HETATM   27  C18 UNL     1      21.532  49.151  35.222  1.00  0.00     0.021 C 
HETATM   28  C19 UNL     1      21.818  48.944  33.952  1.00  0.00    -0.061 C 
HETATM   29  C20 UNL     1      21.619  47.579  33.407  1.00  0.00     0.048 C 
BRANCH  28  30
HETATM   30  C21 UNL     1      22.215  50.027  33.102  1.00  0.00     0.004 C 
HETATM   31  C22 UNL     1      23.331  50.325  32.519  1.00  0.00    -0.009 C 
BRANCH  31  32
HETATM   32  C23 UNL     1      24.630  49.702  32.479  1.00  0.00     0.161 C 
BRANCH  32  33
HETATM   33  N2  UNL     1      25.357  49.823  33.748  1.00  0.00    -0.145 NA
BRANCH  33  34
HETATM   34  N3  UNL     1      25.864  48.609  34.166  1.00  0.00    -0.348 N 
ATOM     35  H32 UNL     1      25.549  47.713  33.794  1.00  0.00     0.172 HD
ATOM     36  H31 UNL     1      26.580  48.724  34.883  1.00  0.00     0.172 HD
ENDBRANCH  33  34
ENDBRANCH  32  33
ENDBRANCH  31  32
ENDBRANCH  28  30
ENDBRANCH   8  27
BRANCH   7  37
HETATM   37  O3  UNL     1      24.001  50.021  36.199  1.00  0.00    -0.357 OA
ATOM     38  H3  UNL     1      24.371  49.491  36.895  1.00  0.00     0.217 HD
ENDBRANCH   7  37
TORSDOF 14
ENDMDL
MODEL 5
REMARK VINA RESULT: -7.492906118      1.135      1.522
REMARK  14 active torsions:
REMARK  status: ('A' for Active; 'I' for Inactive)
REMARK    1  A    between atoms: C2_2  and  C3_3 
REMARK    2  A    between atoms: C4_4  and  C6_6 
REMARK    3  A    between atoms: C6_6  and  O1_7 
REMARK    4  A    between atoms: C6_6  and  C7_9 
REMARK    5  A    between atoms: C8_10  and  C9_11 
REMARK    6  A    between atoms: C9_11  and  C11_13 
REMARK    7  A    between atoms: C11_13  and  C12_14 
REMARK    8  A    between atoms: C15_19  and  O2_20 
REMARK    9  A    between atoms: C16_22  and  O3_23 
REMARK   10  A    between atoms: C17_25  and  C18_26 
REMARK   11  A    between atoms: C19_27  and  C21_29 
REMARK   12  A    between atoms: C22_30  and  C23_31 
REMARK   13  A    between atoms: C23_31  and  N2_32 
REMARK   14  A    between atoms: N2_32  and  N3_33 
ROOT
HETATM    1  C12 UNL     1      19.395  51.760  36.022  1.00  0.00     0.040 C 
HETATM    2  C13 UNL     1      18.165  50.948  35.912  1.00  0.00     0.129 C 
HETATM    3  N1  UNL     1      18.357  50.322  34.585  1.00  0.00    -0.386 N 
ATOM      4  H1  UNL     1      17.657  50.131  33.867  1.00  0.00     0.159 HD
HETATM    5  C14 UNL     1      19.753  50.051  34.554  1.00  0.00     0.071 A 
HETATM    6  C15 UNL     1      20.433  49.081  33.787  1.00  0.00     0.127 A 
HETATM    7  C16 UNL     1      21.787  48.967  33.907  1.00  0.00     0.112 A 
HETATM    8  C17 UNL     1      22.439  49.806  34.775  1.00  0.00     0.007 A 
HETATM    9  C24 UNL     1      21.800  50.781  35.551  1.00  0.00    -0.040 A 
HETATM   10  C25 UNL     1      22.605  51.641  36.461  1.00  0.00     0.050 C 
HETATM   11  C26 UNL     1      20.427  50.878  35.413  1.00  0.00    -0.016 A 
ENDROOT
BRANCH   1  12
HETATM   12  C11 UNL     1      19.765  52.355  37.299  1.00  0.00     0.019 C 
BRANCH  12  13
HETATM   13  C9  UNL     1      19.249  53.711  37.644  1.00  0.00     0.004 C 
HETATM   14  C10 UNL     1      20.224  54.450  38.572  1.00  0.00     0.014 C 
BRANCH  13  15
HETATM   15  C8  UNL     1      18.834  54.617  36.599  1.00  0.00    -0.024 C 
HETATM   16  C7  UNL     1      17.592  54.777  36.158  1.00  0.00     0.005 C 
BRANCH  16  17
HETATM   17  C6  UNL     1      16.489  53.985  36.752  1.00  0.00     0.169 C 
BRANCH  17  18
HETATM   18  C4  UNL     1      16.265  54.482  38.119  1.00  0.00    -0.056 C 
HETATM   19  C3  UNL     1      16.225  53.736  39.171  1.00  0.00    -0.022 C 
HETATM   20  C5  UNL     1      16.073  55.974  38.261  1.00  0.00     0.046 C 
BRANCH  19  21
HETATM   21  C2  UNL     1      16.392  52.286  39.183  1.00  0.00     0.023 C 
HETATM   22  C1  UNL     1      15.221  51.702  39.994  1.00  0.00     0.009 C 
ENDBRANCH  19  21
ENDBRANCH  17  18
BRANCH  17  23
HETATM   23  O1  UNL     1      15.354  54.292  35.939  1.00  0.00    -0.387 OA
ATOM     24  H1  UNL     1      15.489  53.952  35.062  1.00  0.00     0.210 HD
ENDBRANCH  17  23
ENDBRANCH  16  17
ENDBRANCH  13  15
ENDBRANCH  12  13
ENDBRANCH   1  12
BRANCH   6  25
HETATM   25  O2  UNL     1      19.677  48.286  32.942  1.00  0.00    -0.356 OA
ATOM     26  H2  UNL     1      19.673  47.351  33.106  1.00  0.00     0.218 HD
ENDBRANCH   6  25
BRANCH   8  27
HETATM   27  C18 UNL     1      23.866  49.684  34.953  1.00  0.00     0.021 C 
HETATM   28  C19 UNL     1      24.518  48.856  35.746  1.00  0.00    -0.061 C 
HETATM   29  C20 UNL     1      26.000  48.916  35.747  1.00  0.00     0.048 C 
BRANCH  28  30
HETATM   30  C21 UNL     1      23.812  47.995  36.649  1.00  0.00     0.004 C 
HETATM   31  C22 UNL     1      23.609  46.718  36.668  1.00  0.00    -0.009 C 
BRANCH  31  32
HETATM   32  C23 UNL     1      23.999  45.635  35.801  1.00  0.00     0.161 C 
BRANCH  32  33
HETATM   33  N2  UNL     1      23.270  45.635  34.528  1.00  0.00    -0.145 NA
BRANCH  33  34
HETATM   34  N3  UNL     1      21.915  45.451  34.713  1.00  0.00    -0.348 N 
ATOM     35  H32 UNL     1      21.490  44.537  34.868  1.00  0.00     0.172 HD
ATOM     36  H31 UNL     1      21.405  46.333  34.677  1.00  0.00     0.172 HD
ENDBRANCH  33  34
ENDBRANCH  32  33
ENDBRANCH  31  32
ENDBRANCH  28  30
ENDBRANCH   8  27
BRANCH   7  37
HETATM   37  O3  UNL     1      22.481  48.036  33.172  1.00  0.00    -0.357 OA
ATOM     38  H3  UNL     1      23.024  47.387  33.601  1.00  0.00     0.217 HD
ENDBRANCH   7  37
TORSDOF 14
ENDMDL
