MODEL 1
REMARK VINA RESULT: -9.532773966      0.000      0.000
REMARK  15 active torsions:
REMARK  status: ('A' for Active; 'I' for Inactive)
REMARK    1  A    between atoms: O1_2  and  C2_3 
REMARK    2  A    between atoms: C3_4  and  O2_5 
REMARK    3  A    between atoms: C4_7  and  O3_8 
REMARK    4  A    between atoms: N1_10  and  C5_11 
REMARK    5  A    between atoms: C5_11  and  C6_12 
REMARK    6  A    between atoms: C7_13  and  C8_14 
REMARK    7  A    between atoms: C9_15  and  C10_16 
REMARK    8  A    between atoms: C11_17  and  C12_18 
REMARK    9  A    between atoms: C13_19  and  C14_20 
REMARK   10  A    between atoms: C15_21  and  C16_22 
REMARK   11  A    between atoms: C17_23  and  C18_24 
REMARK   12  A    between atoms: C18_24  and  C19_25 
REMARK   13  A    between atoms: C20_26  and  O4_27 
REMARK   14  A    between atoms: C23_33  and  O5_34 
REMARK   15  A    between atoms: C24_36  and  O6_37 
ROOT
HETATM    1  C10 UNL     1      17.767  54.812  35.648  1.00  0.00     0.000 C 
HETATM    2  C11 UNL     1      16.592  54.996  36.209  1.00  0.00     0.000 C 
ENDROOT
BRANCH   1   3
HETATM    3  C9  UNL     1      18.848  55.736  35.892  1.00  0.00     0.000 C 
HETATM    4  C8  UNL     1      19.939  55.366  36.521  1.00  0.00    -0.000 C 
BRANCH   4   5
HETATM    5  C7  UNL     1      20.138  54.024  37.011  1.00  0.00    -0.002 C 
HETATM    6  C6  UNL     1      20.820  53.133  36.279  1.00  0.00    -0.007 C 
BRANCH   6   7
HETATM    7  C5  UNL     1      21.033  51.757  36.765  1.00  0.00     0.160 C 
BRANCH   7   8
HETATM    8  N1  UNL     1      21.062  50.875  35.606  1.00  0.00    -0.300 N 
HETATM    9  C4  UNL     1      19.998  50.189  35.167  1.00  0.00     0.181 A 
HETATM   10  C3  UNL     1      20.382  49.451  34.047  1.00  0.00     0.155 A 
HETATM   11  C2  UNL     1      21.718  49.708  33.815  1.00  0.00     0.157 A 
HETATM   12  C24 UNL     1      22.102  50.593  34.799  1.00  0.00     0.181 A 
BRANCH   9  13
HETATM   13  O3  UNL     1      18.701  50.150  35.665  1.00  0.00    -0.344 OA
ATOM     14  H3  UNL     1      18.392  50.773  36.311  1.00  0.00     0.219 HD
ENDBRANCH   9  13
BRANCH  10  15
HETATM   15  O2  UNL     1      19.608  48.607  33.279  1.00  0.00    -0.354 OA
ATOM     16  H2  UNL     1      18.990  47.977  33.632  1.00  0.00     0.218 HD
ENDBRANCH  10  15
BRANCH  11  17
HETATM   17  O1  UNL     1      22.511  49.172  32.784  1.00  0.00    -0.349 OA
HETATM   18  C1  UNL     1      23.322  48.035  33.104  1.00  0.00     0.210 C 
ENDBRANCH  11  17
BRANCH  12  19
HETATM   19  O6  UNL     1      23.384  51.113  34.932  1.00  0.00    -0.344 OA
ATOM     20  H6  UNL     1      23.685  51.914  34.517  1.00  0.00     0.219 HD
ENDBRANCH  12  19
ENDBRANCH   7   8
ENDBRANCH   6   7
ENDBRANCH   4   5
ENDBRANCH   1   3
BRANCH   2  21
HETATM   21  C12 UNL     1      16.315  56.109  37.083  1.00  0.00     0.000 C 
HETATM   22  C13 UNL     1      15.846  55.811  38.323  1.00  0.00     0.000 C 
BRANCH  22  23
HETATM   23  C14 UNL     1      15.568  56.914  39.201  1.00  0.00     0.000 C 
HETATM   24  C15 UNL     1      14.371  57.402  39.357  1.00  0.00    -0.000 C 
BRANCH  24  25
HETATM   25  C16 UNL     1      13.232  56.869  38.656  1.00  0.00    -0.004 C 
HETATM   26  C17 UNL     1      12.681  57.498  37.654  1.00  0.00    -0.022 C 
BRANCH  26  27
HETATM   27  C18 UNL     1      13.140  58.784  37.136  1.00  0.00     0.073 C 
BRANCH  27  28
HETATM   28  C19 UNL     1      12.345  59.847  37.839  1.00  0.00     0.031 A 
HETATM   29  C20 UNL     1      12.791  60.723  38.799  1.00  0.00     0.149 A 
HETATM   30  N2  UNL     1      11.737  61.481  39.135  1.00  0.00    -0.338 N 
HETATM   31  C21 UNL     1      10.657  61.124  38.435  1.00  0.00     0.041 A 
ATOM     32  H2  UNL     1      11.758  62.228  39.829  1.00  0.00     0.168 HD
HETATM   33  C22 UNL     1       9.277  61.700  38.491  1.00  0.00     0.071 C 
HETATM   34  C23 UNL     1      11.006  60.078  37.591  1.00  0.00     0.098 A 
BRANCH  29  35
HETATM   35  O4  UNL     1      14.085  60.770  39.286  1.00  0.00    -0.346 OA
ATOM     36  H4  UNL     1      14.384  61.351  39.976  1.00  0.00     0.219 HD
ENDBRANCH  29  35
BRANCH  34  37
HETATM   37  O5  UNL     1      10.162  59.430  36.704  1.00  0.00    -0.358 OA
ATOM     38  H5  UNL     1       9.304  59.696  36.395  1.00  0.00     0.217 HD
ENDBRANCH  34  37
ENDBRANCH  27  28
ENDBRANCH  26  27
ENDBRANCH  24  25
ENDBRANCH  22  23
ENDBRANCH   2  21
TORSDOF 15
ENDMDL
MODEL 2
REMARK VINA RESULT: -9.331169340      0.710      1.703
REMARK  15 active torsions:
REMARK  status: ('A' for Active; 'I' for Inactive)
REMARK    1  A    between atoms: O1_2  and  C2_3 
REMARK    2  A    between atoms: C3_4  and  O2_5 
REMARK    3  A    between atoms: C4_7  and  O3_8 
REMARK    4  A    between atoms: N1_10  and  C5_11 
REMARK    5  A    between atoms: C5_11  and  C6_12 
REMARK    6  A    between atoms: C7_13  and  C8_14 
REMARK    7  A    between atoms: C9_15  and  C10_16 
REMARK    8  A    between atoms: C11_17  and  C12_18 
REMARK    9  A    between atoms: C13_19  and  C14_20 
REMARK   10  A    between atoms: C15_21  and  C16_22 
REMARK   11  A    between atoms: C17_23  and  C18_24 
REMARK   12  A    between atoms: C18_24  and  C19_25 
REMARK   13  A    between atoms: C20_26  and  O4_27 
REMARK   14  A    between atoms: C23_33  and  O5_34 
REMARK   15  A    between atoms: C24_36  and  O6_37 
ROOT
HETATM    1  C10 UNL     1      17.768  54.854  35.666  1.00  0.00     0.000 C 
HETATM    2  C11 UNL     1      16.583  55.032  36.209  1.00  0.00     0.000 C 
ENDROOT
BRANCH   1   3
HETATM    3  C9  UNL     1      18.844  55.776  35.937  1.00  0.00     0.000 C 
HETATM    4  C8  UNL     1      19.906  55.411  36.618  1.00  0.00    -0.000 C 
BRANCH   4   5
HETATM    5  C7  UNL     1      20.076  54.077  37.140  1.00  0.00    -0.002 C 
HETATM    6  C6  UNL     1      20.804  53.177  36.467  1.00  0.00    -0.007 C 
BRANCH   6   7
HETATM    7  C5  UNL     1      20.987  51.809  36.986  1.00  0.00     0.160 C 
BRANCH   7   8
HETATM    8  N1  UNL     1      21.557  50.999  35.918  1.00  0.00    -0.300 N 
HETATM    9  C4  UNL     1      22.860  50.994  35.604  1.00  0.00     0.181 A 
HETATM   10  C3  UNL     1      23.053  50.112  34.541  1.00  0.00     0.155 A 
HETATM   11  C2  UNL     1      21.824  49.577  34.213  1.00  0.00     0.157 A 
HETATM   12  C24 UNL     1      20.925  50.150  35.088  1.00  0.00     0.181 A 
BRANCH   9  13
HETATM   13  O3  UNL     1      23.913  51.702  36.173  1.00  0.00    -0.344 OA
ATOM     14  H3  UNL     1      24.534  51.291  36.762  1.00  0.00     0.219 HD
ENDBRANCH   9  13
BRANCH  10  15
HETATM   15  O2  UNL     1      24.233  49.798  33.900  1.00  0.00    -0.354 OA
ATOM     16  H2  UNL     1      24.435  50.035  33.003  1.00  0.00     0.218 HD
ENDBRANCH  10  15
BRANCH  11  17
HETATM   17  O1  UNL     1      21.557  48.641  33.197  1.00  0.00    -0.349 OA
HETATM   18  C1  UNL     1      21.813  47.263  33.492  1.00  0.00     0.210 C 
ENDBRANCH  11  17
BRANCH  12  19
HETATM   19  O6  UNL     1      19.561  49.882  35.100  1.00  0.00    -0.344 OA
ATOM     20  H6  UNL     1      18.935  50.252  34.488  1.00  0.00     0.219 HD
ENDBRANCH  12  19
ENDBRANCH   7   8
ENDBRANCH   6   7
ENDBRANCH   4   5
ENDBRANCH   1   3
BRANCH   2  21
HETATM   21  C12 UNL     1      16.292  56.136  37.089  1.00  0.00     0.000 C 
HETATM   22  C13 UNL     1      15.828  55.825  38.328  1.00  0.00     0.000 C 
BRANCH  22  23
HETATM   23  C14 UNL     1      15.535  56.920  39.212  1.00  0.00     0.000 C 
HETATM   24  C15 UNL     1      14.333  57.399  39.361  1.00  0.00    -0.000 C 
BRANCH  24  25
HETATM   25  C16 UNL     1      13.205  56.864  38.646  1.00  0.00    -0.004 C 
HETATM   26  C17 UNL     1      12.663  57.493  37.639  1.00  0.00    -0.022 C 
BRANCH  26  27
HETATM   27  C18 UNL     1      13.125  58.781  37.129  1.00  0.00     0.073 C 
BRANCH  27  28
HETATM   28  C19 UNL     1      12.330  59.841  37.836  1.00  0.00     0.031 A 
HETATM   29  C20 UNL     1      12.777  60.718  38.795  1.00  0.00     0.149 A 
HETATM   30  N2  UNL     1      11.723  61.473  39.135  1.00  0.00    -0.338 N 
HETATM   31  C21 UNL     1      10.641  61.113  38.439  1.00  0.00     0.041 A 
ATOM     32  H2  UNL     1      11.745  62.219  39.830  1.00  0.00     0.168 HD
HETATM   33  C22 UNL     1       9.259  61.685  38.502  1.00  0.00     0.071 C 
HETATM   34  C23 UNL     1      10.990  60.068  37.593  1.00  0.00     0.098 A 
BRANCH  29  35
HETATM   35  O4  UNL     1      14.073  60.768  39.276  1.00  0.00    -0.346 OA
ATOM     36  H4  UNL     1      14.329  61.151  40.107  1.00  0.00     0.219 HD
ENDBRANCH  29  35
BRANCH  34  37
HETATM   37  O5  UNL     1      10.143  59.419  36.710  1.00  0.00    -0.358 OA
ATOM     38  H5  UNL     1       9.737  58.565  36.791  1.00  0.00     0.217 HD
ENDBRANCH  34  37
ENDBRANCH  27  28
ENDBRANCH  26  27
ENDBRANCH  24  25
ENDBRANCH  22  23
ENDBRANCH   2  21
TORSDOF 15
ENDMDL
MODEL 3
REMARK VINA RESULT: -9.241250768      2.076      2.926
REMARK  15 active torsions:
REMARK  status: ('A' for Active; 'I' for Inactive)
REMARK    1  A    between atoms: O1_2  and  C2_3 
REMARK    2  A    between atoms: C3_4  and  O2_5 
REMARK    3  A    between atoms: C4_7  and  O3_8 
REMARK    4  A    between atoms: N1_10  and  C5_11 
REMARK    5  A    between atoms: C5_11  and  C6_12 
REMARK    6  A    between atoms: C7_13  and  C8_14 
REMARK    7  A    between atoms: C9_15  and  C10_16 
REMARK    8  A    between atoms: C11_17  and  C12_18 
REMARK    9  A    between atoms: C13_19  and  C14_20 
REMARK   10  A    between atoms: C15_21  and  C16_22 
REMARK   11  A    between atoms: C17_23  and  C18_24 
REMARK   12  A    between atoms: C18_24  and  C19_25 
REMARK   13  A    between atoms: C20_26  and  O4_27 
REMARK   14  A    between atoms: C23_33  and  O5_34 
REMARK   15  A    between atoms: C24_36  and  O6_37 
ROOT
HETATM    1  C10 UNL     1      16.852  53.351  36.144  1.00  0.00     0.000 C 
HETATM    2  C11 UNL     1      16.480  54.498  36.671  1.00  0.00     0.000 C 
ENDROOT
BRANCH   1   3
HETATM    3  C9  UNL     1      16.769  52.132  36.910  1.00  0.00     0.000 C 
HETATM    4  C8  UNL     1      17.405  51.044  36.541  1.00  0.00    -0.000 C 
BRANCH   4   5
HETATM    5  C7  UNL     1      18.225  50.986  35.355  1.00  0.00    -0.002 C 
HETATM    6  C6  UNL     1      18.867  49.855  35.035  1.00  0.00    -0.007 C 
BRANCH   6   7
HETATM    7  C5  UNL     1      19.710  49.778  33.827  1.00  0.00     0.160 C 
BRANCH   7   8
HETATM    8  N1  UNL     1      21.094  49.643  34.257  1.00  0.00    -0.300 N 
HETATM    9  C4  UNL     1      21.836  50.664  34.706  1.00  0.00     0.181 A 
HETATM   10  C3  UNL     1      23.105  50.180  35.027  1.00  0.00     0.155 A 
HETATM   11  C2  UNL     1      23.115  48.827  34.758  1.00  0.00     0.157 A 
HETATM   12  C24 UNL     1      21.854  48.532  34.285  1.00  0.00     0.181 A 
BRANCH   9  13
HETATM   13  O3  UNL     1      21.499  52.004  34.864  1.00  0.00    -0.344 OA
ATOM     14  H3  UNL     1      21.336  52.384  35.719  1.00  0.00     0.219 HD
ENDBRANCH   9  13
BRANCH  10  15
HETATM   15  O2  UNL     1      24.183  50.883  35.523  1.00  0.00    -0.354 OA
ATOM     16  H2  UNL     1      24.543  51.665  35.121  1.00  0.00     0.218 HD
ENDBRANCH  10  15
BRANCH  11  17
HETATM   17  O1  UNL     1      24.194  47.942  34.936  1.00  0.00    -0.349 OA
HETATM   18  C1  UNL     1      25.105  47.791  33.841  1.00  0.00     0.210 C 
ENDBRANCH  11  17
BRANCH  12  19
HETATM   19  O6  UNL     1      21.438  47.266  33.893  1.00  0.00    -0.344 OA
ATOM     20  H6  UNL     1      20.572  47.065  33.557  1.00  0.00     0.219 HD
ENDBRANCH  12  19
ENDBRANCH   7   8
ENDBRANCH   6   7
ENDBRANCH   4   5
ENDBRANCH   1   3
BRANCH   2  21
HETATM   21  C12 UNL     1      15.978  54.605  38.019  1.00  0.00     0.000 C 
HETATM   22  C13 UNL     1      15.535  55.828  38.410  1.00  0.00     0.000 C 
BRANCH  22  23
HETATM   23  C14 UNL     1      15.032  55.945  39.752  1.00  0.00     0.000 C 
HETATM   24  C15 UNL     1      14.776  57.094  40.308  1.00  0.00    -0.000 C 
BRANCH  24  25
HETATM   25  C16 UNL     1      14.980  58.339  39.614  1.00  0.00    -0.004 C 
HETATM   26  C17 UNL     1      13.982  59.086  39.227  1.00  0.00    -0.022 C 
BRANCH  26  27
HETATM   27  C18 UNL     1      12.576  58.758  39.443  1.00  0.00     0.073 C 
BRANCH  27  28
HETATM   28  C19 UNL     1      11.800  59.403  38.330  1.00  0.00     0.031 A 
HETATM   29  C20 UNL     1      11.681  58.963  37.034  1.00  0.00     0.149 A 
HETATM   30  N2  UNL     1      10.899  59.853  36.406  1.00  0.00    -0.338 N 
HETATM   31  C21 UNL     1      10.524  60.825  37.242  1.00  0.00     0.041 A 
ATOM     32  H2  UNL     1      10.628  59.794  35.424  1.00  0.00     0.168 HD
HETATM   33  C22 UNL     1       9.657  62.012  36.963  1.00  0.00     0.071 C 
HETATM   34  C23 UNL     1      11.082  60.571  38.489  1.00  0.00     0.098 A 
BRANCH  29  35
HETATM   35  O4  UNL     1      12.273  57.819  36.531  1.00  0.00    -0.346 OA
ATOM     36  H4  UNL     1      12.102  56.938  36.842  1.00  0.00     0.219 HD
ENDBRANCH  29  35
BRANCH  34  37
HETATM   37  O5  UNL     1      10.927  61.351  39.623  1.00  0.00    -0.358 OA
ATOM     38  H5  UNL     1      10.335  62.077  39.772  1.00  0.00     0.217 HD
ENDBRANCH  34  37
ENDBRANCH  27  28
ENDBRANCH  26  27
ENDBRANCH  24  25
ENDBRANCH  22  23
ENDBRANCH   2  21
TORSDOF 15
ENDMDL
MODEL 4
REMARK VINA RESULT: -9.182155338      1.126      1.940
REMARK  15 active torsions:
REMARK  status: ('A' for Active; 'I' for Inactive)
REMARK    1  A    between atoms: O1_2  and  C2_3 
REMARK    2  A    between atoms: C3_4  and  O2_5 
REMARK    3  A    between atoms: C4_7  and  O3_8 
REMARK    4  A    between atoms: N1_10  and  C5_11 
REMARK    5  A    between atoms: C5_11  and  C6_12 
REMARK    6  A    between atoms: C7_13  and  C8_14 
REMARK    7  A    between atoms: C9_15  and  C10_16 
REMARK    8  A    between atoms: C11_17  and  C12_18 
REMARK    9  A    between atoms: C13_19  and  C14_20 
REMARK   10  A    between atoms: C15_21  and  C16_22 
REMARK   11  A    between atoms: C17_23  and  C18_24 
REMARK   12  A    between atoms: C18_24  and  C19_25 
REMARK   13  A    between atoms: C20_26  and  O4_27 
REMARK   14  A    between atoms: C23_33  and  O5_34 
REMARK   15  A    between atoms: C24_36  and  O6_37 
ROOT
HETATM    1  C10 UNL     1      17.892  55.384  35.448  1.00  0.00     0.000 C 
HETATM    2  C11 UNL     1      16.650  55.588  35.832  1.00  0.00     0.000 C 
ENDROOT
BRANCH   1   3
HETATM    3  C9  UNL     1      18.977  56.102  36.068  1.00  0.00     0.000 C 
HETATM    4  C8  UNL     1      19.860  55.493  36.826  1.00  0.00    -0.000 C 
BRANCH   4   5
HETATM    5  C7  UNL     1      19.811  54.077  37.094  1.00  0.00    -0.002 C 
HETATM    6  C6  UNL     1      20.688  53.250  36.511  1.00  0.00    -0.007 C 
BRANCH   6   7
HETATM    7  C5  UNL     1      20.652  51.799  36.773  1.00  0.00     0.160 C 
BRANCH   7   8
HETATM    8  N1  UNL     1      21.798  51.196  36.107  1.00  0.00    -0.300 N 
HETATM    9  C4  UNL     1      23.017  51.109  36.658  1.00  0.00     0.181 A 
HETATM   10  C3  UNL     1      23.867  50.480  35.748  1.00  0.00     0.155 A 
HETATM   11  C2  UNL     1      23.129  50.185  34.621  1.00  0.00     0.157 A 
HETATM   12  C24 UNL     1      21.854  50.643  34.881  1.00  0.00     0.181 A 
BRANCH   9  13
HETATM   13  O3  UNL     1      23.460  51.536  37.905  1.00  0.00    -0.344 OA
ATOM     14  H3  UNL     1      23.554  50.938  38.637  1.00  0.00     0.219 HD
ENDBRANCH   9  13
BRANCH  10  15
HETATM   15  O2  UNL     1      25.206  50.185  35.900  1.00  0.00    -0.354 OA
ATOM     16  H2  UNL     1      25.787  49.950  35.186  1.00  0.00     0.218 HD
ENDBRANCH  10  15
BRANCH  11  17
HETATM   17  O1  UNL     1      23.591  49.549  33.454  1.00  0.00    -0.349 OA
HETATM   18  C1  UNL     1      23.873  50.380  32.322  1.00  0.00     0.210 C 
ENDBRANCH  11  17
BRANCH  12  19
HETATM   19  O6  UNL     1      20.787  50.544  33.997  1.00  0.00    -0.344 OA
ATOM     20  H6  UNL     1      20.519  49.740  33.567  1.00  0.00     0.219 HD
ENDBRANCH  12  19
ENDBRANCH   7   8
ENDBRANCH   6   7
ENDBRANCH   4   5
ENDBRANCH   1   3
BRANCH   2  21
HETATM   21  C12 UNL     1      16.305  56.524  36.873  1.00  0.00     0.000 C 
HETATM   22  C13 UNL     1      15.882  55.997  38.053  1.00  0.00     0.000 C 
BRANCH  22  23
HETATM   23  C14 UNL     1      15.536  56.922  39.097  1.00  0.00     0.000 C 
HETATM   24  C15 UNL     1      14.309  57.295  39.326  1.00  0.00    -0.000 C 
BRANCH  24  25
HETATM   25  C16 UNL     1      13.205  56.805  38.545  1.00  0.00    -0.004 C 
HETATM   26  C17 UNL     1      12.714  57.480  37.542  1.00  0.00    -0.022 C 
BRANCH  26  27
HETATM   27  C18 UNL     1      13.212  58.781  37.102  1.00  0.00     0.073 C 
BRANCH  27  28
HETATM   28  C19 UNL     1      12.410  59.824  37.827  1.00  0.00     0.031 A 
HETATM   29  C20 UNL     1      12.849  60.679  38.810  1.00  0.00     0.149 A 
HETATM   30  N2  UNL     1      11.792  61.425  39.159  1.00  0.00    -0.338 N 
HETATM   31  C21 UNL     1      10.715  61.080  38.446  1.00  0.00     0.041 A 
ATOM     32  H2  UNL     1      11.807  62.155  39.871  1.00  0.00     0.168 HD
HETATM   33  C22 UNL     1       9.333  61.649  38.511  1.00  0.00     0.071 C 
HETATM   34  C23 UNL     1      11.072  60.055  37.579  1.00  0.00     0.098 A 
BRANCH  29  35
HETATM   35  O4  UNL     1      14.141  60.718  39.302  1.00  0.00    -0.346 OA
ATOM     36  H4  UNL     1      14.371  60.873  40.211  1.00  0.00     0.219 HD
ENDBRANCH  29  35
BRANCH  34  37
HETATM   37  O5  UNL     1      10.233  59.426  36.674  1.00  0.00    -0.358 OA
ATOM     38  H5  UNL     1       9.318  59.598  36.490  1.00  0.00     0.217 HD
ENDBRANCH  34  37
ENDBRANCH  27  28
ENDBRANCH  26  27
ENDBRANCH  24  25
ENDBRANCH  22  23
ENDBRANCH   2  21
TORSDOF 15
ENDMDL
MODEL 5
REMARK VINA RESULT: -9.174192331      1.458      2.044
REMARK  15 active torsions:
REMARK  status: ('A' for Active; 'I' for Inactive)
REMARK    1  A    between atoms: O1_2  and  C2_3 
REMARK    2  A    between atoms: C3_4  and  O2_5 
REMARK    3  A    between atoms: C4_7  and  O3_8 
REMARK    4  A    between atoms: N1_10  and  C5_11 
REMARK    5  A    between atoms: C5_11  and  C6_12 
REMARK    6  A    between atoms: C7_13  and  C8_14 
REMARK    7  A    between atoms: C9_15  and  C10_16 
REMARK    8  A    between atoms: C11_17  and  C12_18 
REMARK    9  A    between atoms: C13_19  and  C14_20 
REMARK   10  A    between atoms: C15_21  and  C16_22 
REMARK   11  A    between atoms: C17_23  and  C18_24 
REMARK   12  A    between atoms: C18_24  and  C19_25 
REMARK   13  A    between atoms: C20_26  and  O4_27 
REMARK   14  A    between atoms: C23_33  and  O5_34 
REMARK   15  A    between atoms: C24_36  and  O6_37 
ROOT
HETATM    1  C10 UNL     1      18.608  55.488  35.793  1.00  0.00     0.000 C 
HETATM    2  C11 UNL     1      17.336  55.482  36.129  1.00  0.00     0.000 C 
ENDROOT
BRANCH   1   3
HETATM    3  C9  UNL     1      19.632  55.369  36.801  1.00  0.00     0.000 C 
HETATM    4  C8  UNL     1      20.124  54.201  37.145  1.00  0.00    -0.000 C 
BRANCH   4   5
HETATM    5  C7  UNL     1      19.682  52.964  36.551  1.00  0.00    -0.002 C 
HETATM    6  C6  UNL     1      20.575  52.038  36.180  1.00  0.00    -0.007 C 
BRANCH   6   7
HETATM    7  C5  UNL     1      20.141  50.767  35.570  1.00  0.00     0.160 C 
BRANCH   7   8
HETATM    8  N1  UNL     1      21.223  50.286  34.723  1.00  0.00    -0.300 N 
HETATM    9  C4  UNL     1      21.050  49.413  33.720  1.00  0.00     0.181 A 
HETATM   10  C3  UNL     1      22.290  49.174  33.126  1.00  0.00     0.155 A 
HETATM   11  C2  UNL     1      23.228  49.930  33.798  1.00  0.00     0.157 A 
HETATM   12  C24 UNL     1      22.530  50.603  34.778  1.00  0.00     0.181 A 
BRANCH   9  13
HETATM   13  O3  UNL     1      19.888  48.797  33.271  1.00  0.00    -0.344 OA
ATOM     14  H3  UNL     1      19.131  48.681  33.833  1.00  0.00     0.219 HD
ENDBRANCH   9  13
BRANCH  10  15
HETATM   15  O2  UNL     1      22.576  48.345  32.062  1.00  0.00    -0.354 OA
ATOM     16  H2  UNL     1      21.984  47.684  31.724  1.00  0.00     0.218 HD
ENDBRANCH  10  15
BRANCH  11  17
HETATM   17  O1  UNL     1      24.608  49.992  33.530  1.00  0.00    -0.349 OA
HETATM   18  C1  UNL     1      25.454  49.073  34.232  1.00  0.00     0.210 C 
ENDBRANCH  11  17
BRANCH  12  19
HETATM   19  O6  UNL     1      23.104  51.482  35.689  1.00  0.00    -0.344 OA
ATOM     20  H6  UNL     1      22.931  52.416  35.717  1.00  0.00     0.219 HD
ENDBRANCH  12  19
ENDBRANCH   7   8
ENDBRANCH   6   7
ENDBRANCH   4   5
ENDBRANCH   1   3
BRANCH   2  21
HETATM   21  C12 UNL     1      16.896  55.361  37.497  1.00  0.00     0.000 C 
HETATM   22  C13 UNL     1      15.651  55.823  37.782  1.00  0.00     0.000 C 
BRANCH  22  23
HETATM   23  C14 UNL     1      15.203  55.706  39.143  1.00  0.00     0.000 C 
HETATM   24  C15 UNL     1      14.983  56.742  39.900  1.00  0.00    -0.000 C 
BRANCH  24  25
HETATM   25  C16 UNL     1      15.172  58.088  39.426  1.00  0.00    -0.004 C 
HETATM   26  C17 UNL     1      14.169  58.900  39.231  1.00  0.00    -0.022 C 
BRANCH  26  27
HETATM   27  C18 UNL     1      12.770  58.551  39.463  1.00  0.00     0.073 C 
BRANCH  27  28
HETATM   28  C19 UNL     1      11.969  59.213  38.379  1.00  0.00     0.031 A 
HETATM   29  C20 UNL     1      11.875  58.835  37.062  1.00  0.00     0.149 A 
HETATM   30  N2  UNL     1      11.054  59.717  36.474  1.00  0.00    -0.338 N 
HETATM   31  C21 UNL     1      10.630  60.627  37.356  1.00  0.00     0.041 A 
ATOM     32  H2  UNL     1      10.789  59.695  35.490  1.00  0.00     0.168 HD
HETATM   33  C22 UNL     1       9.708  61.784  37.132  1.00  0.00     0.071 C 
HETATM   34  C23 UNL     1      11.195  60.337  38.592  1.00  0.00     0.098 A 
BRANCH  29  35
HETATM   35  O4  UNL     1      12.522  57.746  36.505  1.00  0.00    -0.346 OA
ATOM     36  H4  UNL     1      13.430  57.741  36.224  1.00  0.00     0.219 HD
ENDBRANCH  29  35
BRANCH  34  37
HETATM   37  O5  UNL     1      11.000  61.050  39.763  1.00  0.00    -0.358 OA
ATOM     38  H5  UNL     1      10.860  61.982  39.878  1.00  0.00     0.217 HD
ENDBRANCH  34  37
ENDBRANCH  27  28
ENDBRANCH  26  27
ENDBRANCH  24  25
ENDBRANCH  22  23
ENDBRANCH   2  21
TORSDOF 15
ENDMDL
