MODEL 1
REMARK VINA RESULT: -9.168128676      0.000      0.000
REMARK  11 active torsions:
REMARK  status: ('A' for Active; 'I' for Inactive)
REMARK    1  A    between atoms: C3_3  and  C4_4 
REMARK    2  A    between atoms: C3_3  and  N3_22 
REMARK    3  A    between atoms: C4_4  and  C5_5 
REMARK    4  A    between atoms: C5_5  and  C6_6 
REMARK    5  A    between atoms: C6_6  and  C7_7 
REMARK    6  A    between atoms: C7_7  and  N1_8 
REMARK    7  A    between atoms: N1_8  and  C8_10 
REMARK    8  A    between atoms: N2_12  and  O1_14 
REMARK    9  A    between atoms: O1_14  and  S2_15 
REMARK   10  A    between atoms: S2_15  and  C9_16 
REMARK   11  A    between atoms: N3_22  and  C15_24 
ROOT
HETATM    1  C5  UNL     1      15.864  53.459  38.812  1.00  0.00     0.007 C 
ENDROOT
BRANCH   1   2
HETATM    2  C4  UNL     1      16.783  52.295  38.855  1.00  0.00     0.057 C 
BRANCH   2   3
HETATM    3  C3  UNL     1      16.624  51.262  37.840  1.00  0.00     0.005 C 
HETATM    4  C2  UNL     1      15.969  50.153  38.051  1.00  0.00    -0.006 C 
HETATM    5  C1  UNL     1      15.817  49.100  36.996  1.00  0.00     0.038 C 
BRANCH   3   6
HETATM    6  N3  UNL     1      17.208  51.466  36.564  1.00  0.00    -0.358 N 
ATOM      7  H3  UNL     1      16.585  51.647  35.777  1.00  0.00     0.166 HD
BRANCH   6   8
HETATM    8  C15 UNL     1      18.591  51.435  36.315  1.00  0.00     0.058 A 
HETATM    9  C16 UNL     1      19.473  52.281  36.923  1.00  0.00     0.060 A 
HETATM   10  C17 UNL     1      20.838  52.220  36.650  1.00  0.00     0.072 A 
HETATM   11  N4  UNL     1      21.750  53.104  37.287  1.00  0.00    -0.100 NA
HETATM   12  C18 UNL     1      21.297  51.273  35.736  1.00  0.00     0.072 A 
HETATM   13  N5  UNL     1      22.684  51.238  35.481  1.00  0.00    -0.100 NA
HETATM   14  C19 UNL     1      20.422  50.407  35.109  1.00  0.00     0.057 A 
HETATM   15  C20 UNL     1      19.076  50.501  35.409  1.00  0.00     0.074 A 
HETATM   16  N6  UNL     1      18.154  49.624  34.779  1.00  0.00    -0.100 NA
ENDBRANCH   6   8
ENDBRANCH   3   6
ENDBRANCH   2   3
ENDBRANCH   1   2
BRANCH   1  17
HETATM   17  C6  UNL     1      16.486  54.807  38.840  1.00  0.00     0.020 C 
BRANCH  17  18
HETATM   18  C7  UNL     1      15.474  55.881  39.216  1.00  0.00     0.121 C 
BRANCH  18  19
HETATM   19  N1  UNL     1      15.350  56.788  38.092  1.00  0.00    -0.369 N 
ATOM     20  H1  UNL     1      15.483  57.785  38.257  1.00  0.00     0.161 HD
BRANCH  19  21
HETATM   21  C8  UNL     1      15.054  56.359  36.781  1.00  0.00     0.172 C 
HETATM   22  S1  UNL     1      16.334  55.748  35.705  1.00  0.00    -0.012 SA
HETATM   23  N2  UNL     1      13.854  56.407  36.350  1.00  0.00    -0.231 N 
ATOM     24  H2  UNL     1      13.697  56.085  35.396  1.00  0.00     0.198 HD
BRANCH  23  25
HETATM   25  O1  UNL     1      12.763  56.843  37.036  1.00  0.00    -0.202 OA
BRANCH  25  26
HETATM   26  S2  UNL     1      12.285  58.484  36.953  1.00  0.00     0.025 SA
BRANCH  26  27
HETATM   27  C9  UNL     1      11.574  59.150  38.450  1.00  0.00     0.078 C 
HETATM   28  C10 UNL     1      12.109  60.507  38.764  1.00  0.00     0.017 C 
HETATM   29  C11 UNL     1      11.017  61.398  39.323  1.00  0.00     0.001 C 
HETATM   30  C12 UNL     1       9.937  61.605  38.299  1.00  0.00     0.000 C 
HETATM   31  C13 UNL     1       9.417  60.293  37.816  1.00  0.00     0.001 C 
HETATM   32  C14 UNL     1      10.065  59.107  38.489  1.00  0.00     0.017 C 
ENDBRANCH  26  27
ENDBRANCH  25  26
ENDBRANCH  23  25
ENDBRANCH  19  21
ENDBRANCH  18  19
ENDBRANCH  17  18
ENDBRANCH   1  17
TORSDOF 11
ENDMDL
MODEL 2
REMARK VINA RESULT: -9.098324890      1.527      2.054
REMARK  11 active torsions:
REMARK  status: ('A' for Active; 'I' for Inactive)
REMARK    1  A    between atoms: C3_3  and  C4_4 
REMARK    2  A    between atoms: C3_3  and  N3_22 
REMARK    3  A    between atoms: C4_4  and  C5_5 
REMARK    4  A    between atoms: C5_5  and  C6_6 
REMARK    5  A    between atoms: C6_6  and  C7_7 
REMARK    6  A    between atoms: C7_7  and  N1_8 
REMARK    7  A    between atoms: N1_8  and  C8_10 
REMARK    8  A    between atoms: N2_12  and  O1_14 
REMARK    9  A    between atoms: O1_14  and  S2_15 
REMARK   10  A    between atoms: S2_15  and  C9_16 
REMARK   11  A    between atoms: N3_22  and  C15_24 
ROOT
HETATM    1  C5  UNL     1      17.719  55.116  36.164  1.00  0.00     0.007 C 
ENDROOT
BRANCH   1   2
HETATM    2  C4  UNL     1      17.024  53.826  35.928  1.00  0.00     0.057 C 
BRANCH   2   3
HETATM    3  C3  UNL     1      17.044  52.836  36.998  1.00  0.00     0.005 C 
HETATM    4  C2  UNL     1      16.466  53.025  38.152  1.00  0.00    -0.006 C 
HETATM    5  C1  UNL     1      16.498  51.998  39.242  1.00  0.00     0.038 C 
BRANCH   3   6
HETATM    6  N3  UNL     1      17.725  51.612  36.779  1.00  0.00    -0.358 N 
ATOM      7  H3  UNL     1      17.182  50.749  36.825  1.00  0.00     0.166 HD
BRANCH   6   8
HETATM    8  C15 UNL     1      19.099  51.510  36.503  1.00  0.00     0.058 A 
HETATM    9  C16 UNL     1      20.046  52.220  37.182  1.00  0.00     0.060 A 
HETATM   10  C17 UNL     1      21.400  52.093  36.879  1.00  0.00     0.072 A 
HETATM   11  N4  UNL     1      22.381  52.836  37.591  1.00  0.00    -0.100 NA
HETATM   12  C18 UNL     1      21.779  51.221  35.860  1.00  0.00     0.072 A 
HETATM   13  N5  UNL     1      23.158  51.116  35.577  1.00  0.00    -0.100 NA
HETATM   14  C19 UNL     1      20.838  50.493  35.159  1.00  0.00     0.057 A 
HETATM   15  C20 UNL     1      19.505  50.649  35.492  1.00  0.00     0.074 A 
HETATM   16  N6  UNL     1      18.515  49.913  34.788  1.00  0.00    -0.100 NA
ENDBRANCH   6   8
ENDBRANCH   3   6
ENDBRANCH   2   3
ENDBRANCH   1   2
BRANCH   1  17
HETATM   17  C6  UNL     1      16.919  56.205  36.779  1.00  0.00     0.020 C 
BRANCH  17  18
HETATM   18  C7  UNL     1      15.527  56.291  36.167  1.00  0.00     0.121 C 
BRANCH  18  19
HETATM   19  N1  UNL     1      14.563  56.020  37.215  1.00  0.00    -0.369 N 
ATOM     20  H1  UNL     1      14.059  55.134  37.192  1.00  0.00     0.161 HD
BRANCH  19  21
HETATM   21  C8  UNL     1      14.289  56.920  38.267  1.00  0.00     0.172 C 
HETATM   22  S1  UNL     1      15.166  56.820  39.812  1.00  0.00    -0.012 SA
HETATM   23  N2  UNL     1      13.399  57.822  38.117  1.00  0.00    -0.231 N 
ATOM     24  H2  UNL     1      13.241  58.445  38.908  1.00  0.00     0.198 HD
BRANCH  23  25
HETATM   25  O1  UNL     1      12.640  58.036  37.008  1.00  0.00    -0.202 OA
BRANCH  25  26
HETATM   26  S2  UNL     1      11.989  59.587  36.690  1.00  0.00     0.025 SA
BRANCH  26  27
HETATM   27  C9  UNL     1      11.160  60.366  38.068  1.00  0.00     0.078 C 
HETATM   28  C10 UNL     1      10.205  61.419  37.618  1.00  0.00     0.017 C 
HETATM   29  C11 UNL     1       8.953  61.408  38.474  1.00  0.00     0.001 C 
HETATM   30  C12 UNL     1       8.229  60.099  38.324  1.00  0.00     0.000 C 
HETATM   31  C13 UNL     1       9.143  58.961  38.627  1.00  0.00     0.001 C 
HETATM   32  C14 UNL     1      10.529  59.396  39.037  1.00  0.00     0.017 C 
ENDBRANCH  26  27
ENDBRANCH  25  26
ENDBRANCH  23  25
ENDBRANCH  19  21
ENDBRANCH  18  19
ENDBRANCH  17  18
ENDBRANCH   1  17
TORSDOF 11
ENDMDL
MODEL 3
REMARK VINA RESULT: -9.083287505      1.653      2.674
REMARK  11 active torsions:
REMARK  status: ('A' for Active; 'I' for Inactive)
REMARK    1  A    between atoms: C3_3  and  C4_4 
REMARK    2  A    between atoms: C3_3  and  N3_22 
REMARK    3  A    between atoms: C4_4  and  C5_5 
REMARK    4  A    between atoms: C5_5  and  C6_6 
REMARK    5  A    between atoms: C6_6  and  C7_7 
REMARK    6  A    between atoms: C7_7  and  N1_8 
REMARK    7  A    between atoms: N1_8  and  C8_10 
REMARK    8  A    between atoms: N2_12  and  O1_14 
REMARK    9  A    between atoms: O1_14  and  S2_15 
REMARK   10  A    between atoms: S2_15  and  C9_16 
REMARK   11  A    between atoms: N3_22  and  C15_24 
ROOT
HETATM    1  C5  UNL     1      17.724  55.115  36.096  1.00  0.00     0.007 C 
ENDROOT
BRANCH   1   2
HETATM    2  C4  UNL     1      17.125  53.758  36.072  1.00  0.00     0.057 C 
BRANCH   2   3
HETATM    3  C3  UNL     1      17.213  52.953  37.284  1.00  0.00     0.005 C 
HETATM    4  C2  UNL     1      16.205  52.772  38.091  1.00  0.00    -0.006 C 
HETATM    5  C1  UNL     1      16.314  51.944  39.336  1.00  0.00     0.038 C 
BRANCH   3   6
HETATM    6  N3  UNL     1      18.451  52.339  37.604  1.00  0.00    -0.358 N 
ATOM      7  H3  UNL     1      18.698  52.249  38.590  1.00  0.00     0.166 HD
BRANCH   6   8
HETATM    8  C15 UNL     1      19.359  51.848  36.651  1.00  0.00     0.058 A 
HETATM    9  C16 UNL     1      19.053  50.837  35.787  1.00  0.00     0.060 A 
HETATM   10  C17 UNL     1      19.981  50.376  34.856  1.00  0.00     0.072 A 
HETATM   11  N4  UNL     1      19.655  49.323  33.959  1.00  0.00    -0.100 NA
HETATM   12  C18 UNL     1      21.242  50.969  34.817  1.00  0.00     0.072 A 
HETATM   13  N5  UNL     1      22.159  50.479  33.863  1.00  0.00    -0.100 NA
HETATM   14  C19 UNL     1      21.574  51.994  35.682  1.00  0.00     0.057 A 
HETATM   15  C20 UNL     1      20.623  52.420  36.590  1.00  0.00     0.074 A 
HETATM   16  N6  UNL     1      20.936  53.472  37.492  1.00  0.00    -0.100 NA
ENDBRANCH   6   8
ENDBRANCH   3   6
ENDBRANCH   2   3
ENDBRANCH   1   2
BRANCH   1  17
HETATM   17  C6  UNL     1      16.954  56.176  36.793  1.00  0.00     0.020 C 
BRANCH  17  18
HETATM   18  C7  UNL     1      15.556  56.329  36.208  1.00  0.00     0.121 C 
BRANCH  18  19
HETATM   19  N1  UNL     1      14.600  56.032  37.256  1.00  0.00    -0.369 N 
ATOM     20  H1  UNL     1      14.130  55.127  37.241  1.00  0.00     0.161 HD
BRANCH  19  21
HETATM   21  C8  UNL     1      14.289  56.932  38.297  1.00  0.00     0.172 C 
HETATM   22  S1  UNL     1      15.160  56.879  39.848  1.00  0.00    -0.012 SA
HETATM   23  N2  UNL     1      13.369  57.801  38.133  1.00  0.00    -0.231 N 
ATOM     24  H2  UNL     1      13.185  58.426  38.918  1.00  0.00     0.198 HD
BRANCH  23  25
HETATM   25  O1  UNL     1      12.609  57.979  37.018  1.00  0.00    -0.202 OA
BRANCH  25  26
HETATM   26  S2  UNL     1      11.922  59.507  36.671  1.00  0.00     0.025 SA
BRANCH  26  27
HETATM   27  C9  UNL     1      11.145  60.328  38.054  1.00  0.00     0.078 C 
HETATM   28  C10 UNL     1      10.225  61.415  37.610  1.00  0.00     0.017 C 
HETATM   29  C11 UNL     1       8.986  61.459  38.483  1.00  0.00     0.001 C 
HETATM   30  C12 UNL     1       8.209  60.179  38.353  1.00  0.00     0.000 C 
HETATM   31  C13 UNL     1       9.082  59.007  38.653  1.00  0.00     0.001 C 
HETATM   32  C14 UNL     1      10.490  59.391  39.040  1.00  0.00     0.017 C 
ENDBRANCH  26  27
ENDBRANCH  25  26
ENDBRANCH  23  25
ENDBRANCH  19  21
ENDBRANCH  18  19
ENDBRANCH  17  18
ENDBRANCH   1  17
TORSDOF 11
ENDMDL
MODEL 4
REMARK VINA RESULT: -9.010089150      1.786      3.062
REMARK  11 active torsions:
REMARK  status: ('A' for Active; 'I' for Inactive)
REMARK    1  A    between atoms: C3_3  and  C4_4 
REMARK    2  A    between atoms: C3_3  and  N3_22 
REMARK    3  A    between atoms: C4_4  and  C5_5 
REMARK    4  A    between atoms: C5_5  and  C6_6 
REMARK    5  A    between atoms: C6_6  and  C7_7 
REMARK    6  A    between atoms: C7_7  and  N1_8 
REMARK    7  A    between atoms: N1_8  and  C8_10 
REMARK    8  A    between atoms: N2_12  and  O1_14 
REMARK    9  A    between atoms: O1_14  and  S2_15 
REMARK   10  A    between atoms: S2_15  and  C9_16 
REMARK   11  A    between atoms: N3_22  and  C15_24 
ROOT
HETATM    1  C5  UNL     1      17.072  53.132  37.789  1.00  0.00     0.007 C 
ENDROOT
BRANCH   1   2
HETATM    2  C4  UNL     1      18.512  53.149  38.147  1.00  0.00     0.057 C 
BRANCH   2   3
HETATM    3  C3  UNL     1      19.420  53.897  37.288  1.00  0.00     0.005 C 
HETATM    4  C2  UNL     1      19.028  54.880  36.525  1.00  0.00    -0.006 C 
HETATM    5  C1  UNL     1      19.975  55.637  35.644  1.00  0.00     0.038 C 
BRANCH   3   6
HETATM    6  N3  UNL     1      20.792  53.540  37.273  1.00  0.00    -0.358 N 
ATOM      7  H3  UNL     1      21.445  54.132  37.788  1.00  0.00     0.166 HD
BRANCH   6   8
HETATM    8  C15 UNL     1      21.311  52.424  36.595  1.00  0.00     0.058 A 
HETATM    9  C16 UNL     1      20.643  51.793  35.585  1.00  0.00     0.060 A 
HETATM   10  C17 UNL     1      21.190  50.688  34.937  1.00  0.00     0.072 A 
HETATM   11  N4  UNL     1      20.490  50.037  33.886  1.00  0.00    -0.100 NA
HETATM   12  C18 UNL     1      22.444  50.229  35.338  1.00  0.00     0.072 A 
HETATM   13  N5  UNL     1      22.970  49.107  34.662  1.00  0.00    -0.100 NA
HETATM   14  C19 UNL     1      23.138  50.851  36.358  1.00  0.00     0.057 A 
HETATM   15  C20 UNL     1      22.558  51.944  36.974  1.00  0.00     0.074 A 
HETATM   16  N6  UNL     1      23.248  52.604  38.026  1.00  0.00    -0.100 NA
ENDBRANCH   6   8
ENDBRANCH   3   6
ENDBRANCH   2   3
ENDBRANCH   1   2
BRANCH   1  17
HETATM   17  C6  UNL     1      16.127  53.703  38.782  1.00  0.00     0.020 C 
BRANCH  17  18
HETATM   18  C7  UNL     1      16.253  55.219  38.866  1.00  0.00     0.121 C 
BRANCH  18  19
HETATM   19  N1  UNL     1      14.964  55.791  38.529  1.00  0.00    -0.369 N 
ATOM     20  H1  UNL     1      14.230  55.780  39.237  1.00  0.00     0.161 HD
BRANCH  19  21
HETATM   21  C8  UNL     1      14.674  56.361  37.272  1.00  0.00     0.172 C 
HETATM   22  S1  UNL     1      15.736  56.081  35.871  1.00  0.00    -0.012 SA
HETATM   23  N2  UNL     1      13.638  57.091  37.127  1.00  0.00    -0.231 N 
ATOM     24  H2  UNL     1      13.476  57.478  36.197  1.00  0.00     0.198 HD
BRANCH  23  25
HETATM   25  O1  UNL     1      12.726  57.405  38.087  1.00  0.00    -0.202 OA
BRANCH  25  26
HETATM   26  S2  UNL     1      12.837  58.886  38.937  1.00  0.00     0.025 SA
BRANCH  26  27
HETATM   27  C9  UNL     1      11.276  59.667  39.318  1.00  0.00     0.078 C 
HETATM   28  C10 UNL     1      11.364  61.154  39.236  1.00  0.00     0.017 C 
HETATM   29  C11 UNL     1      10.095  61.734  38.642  1.00  0.00     0.001 C 
HETATM   30  C12 UNL     1       9.910  61.250  37.231  1.00  0.00     0.000 C 
HETATM   31  C13 UNL     1       9.938  59.759  37.183  1.00  0.00     0.001 C 
HETATM   32  C14 UNL     1      10.104  59.118  38.540  1.00  0.00     0.017 C 
ENDBRANCH  26  27
ENDBRANCH  25  26
ENDBRANCH  23  25
ENDBRANCH  19  21
ENDBRANCH  18  19
ENDBRANCH  17  18
ENDBRANCH   1  17
TORSDOF 11
ENDMDL
MODEL 5
REMARK VINA RESULT: -8.994557122      2.695      4.447
REMARK  11 active torsions:
REMARK  status: ('A' for Active; 'I' for Inactive)
REMARK    1  A    between atoms: C3_3  and  C4_4 
REMARK    2  A    between atoms: C3_3  and  N3_22 
REMARK    3  A    between atoms: C4_4  and  C5_5 
REMARK    4  A    between atoms: C5_5  and  C6_6 
REMARK    5  A    between atoms: C6_6  and  C7_7 
REMARK    6  A    between atoms: C7_7  and  N1_8 
REMARK    7  A    between atoms: N1_8  and  C8_10 
REMARK    8  A    between atoms: N2_12  and  O1_14 
REMARK    9  A    between atoms: O1_14  and  S2_15 
REMARK   10  A    between atoms: S2_15  and  C9_16 
REMARK   11  A    between atoms: N3_22  and  C15_24 
ROOT
HETATM    1  C5  UNL     1      20.419  53.798  36.214  1.00  0.00     0.007 C 
ENDROOT
BRANCH   1   2
HETATM    2  C4  UNL     1      20.846  52.477  36.736  1.00  0.00     0.057 C 
BRANCH   2   3
HETATM    3  C3  UNL     1      20.163  51.292  36.232  1.00  0.00     0.005 C 
HETATM    4  C2  UNL     1      18.908  51.292  35.878  1.00  0.00    -0.006 C 
HETATM    5  C1  UNL     1      18.220  50.064  35.365  1.00  0.00     0.038 C 
BRANCH   3   6
HETATM    6  N3  UNL     1      20.893  50.081  36.124  1.00  0.00    -0.358 N 
ATOM      7  H3  UNL     1      20.691  49.341  36.797  1.00  0.00     0.166 HD
BRANCH   6   8
HETATM    8  C15 UNL     1      21.875  49.835  35.150  1.00  0.00     0.058 A 
HETATM    9  C16 UNL     1      21.617  49.876  33.810  1.00  0.00     0.060 A 
HETATM   10  C17 UNL     1      22.618  49.625  32.874  1.00  0.00     0.072 A 
HETATM   11  N4  UNL     1      22.343  49.670  31.480  1.00  0.00    -0.100 NA
HETATM   12  C18 UNL     1      23.902  49.328  33.329  1.00  0.00     0.072 A 
HETATM   13  N5  UNL     1      24.893  49.079  32.355  1.00  0.00    -0.100 NA
HETATM   14  C19 UNL     1      24.185  49.280  34.680  1.00  0.00     0.057 A 
HETATM   15  C20 UNL     1      23.163  49.536  35.574  1.00  0.00     0.074 A 
HETATM   16  N6  UNL     1      23.425  49.494  36.970  1.00  0.00    -0.100 NA
ENDBRANCH   6   8
ENDBRANCH   3   6
ENDBRANCH   2   3
ENDBRANCH   1   2
BRANCH   1  17
HETATM   17  C6  UNL     1      19.730  54.705  37.168  1.00  0.00     0.020 C 
BRANCH  17  18
HETATM   18  C7  UNL     1      19.285  53.964  38.422  1.00  0.00     0.121 C 
BRANCH  18  19
HETATM   19  N1  UNL     1      17.875  54.233  38.620  1.00  0.00    -0.369 N 
ATOM     20  H1  UNL     1      17.609  55.086  39.113  1.00  0.00     0.161 HD
BRANCH  19  21
HETATM   21  C8  UNL     1      16.851  53.375  38.166  1.00  0.00     0.172 C 
HETATM   22  S1  UNL     1      16.437  51.890  39.055  1.00  0.00    -0.012 SA
HETATM   23  N2  UNL     1      16.207  53.659  37.102  1.00  0.00    -0.231 N 
ATOM     24  H2  UNL     1      15.478  53.005  36.819  1.00  0.00     0.198 HD
BRANCH  23  25
HETATM   25  O1  UNL     1      16.395  54.747  36.306  1.00  0.00    -0.202 OA
BRANCH  25  26
HETATM   26  S2  UNL     1      15.442  56.153  36.520  1.00  0.00     0.025 SA
BRANCH  26  27
HETATM   27  C9  UNL     1      14.551  56.244  38.066  1.00  0.00     0.078 C 
HETATM   28  C10 UNL     1      15.414  56.742  39.177  1.00  0.00     0.017 C 
HETATM   29  C11 UNL     1      14.627  57.655  40.097  1.00  0.00     0.001 C 
HETATM   30  C12 UNL     1      14.164  58.875  39.352  1.00  0.00     0.000 C 
HETATM   31  C13 UNL     1      13.393  58.482  38.138  1.00  0.00     0.001 C 
HETATM   32  C14 UNL     1      13.241  56.989  37.980  1.00  0.00     0.017 C 
ENDBRANCH  26  27
ENDBRANCH  25  26
ENDBRANCH  23  25
ENDBRANCH  19  21
ENDBRANCH  18  19
ENDBRANCH  17  18
ENDBRANCH   1  17
TORSDOF 11
ENDMDL
