MODEL 1
REMARK VINA RESULT: -9.451344415      0.000      0.000
REMARK  15 active torsions:
REMARK  status: ('A' for Active; 'I' for Inactive)
REMARK    1  A    between atoms: C2_2  and  C5_9 
REMARK    2  A    between atoms: C3_3  and  C4_4 
REMARK    3  A    between atoms: N1_5  and  O1_7 
REMARK    4  A    between atoms: C5_9  and  C7_11 
REMARK    5  A    between atoms: C5_9  and  C11_17 
REMARK    6  A    between atoms: C8_12  and  C9_13 
REMARK    7  A    between atoms: C9_13  and  C10_14 
REMARK    8  A    between atoms: C11_17  and  C12_18 
REMARK    9  A    between atoms: C13_19  and  C14_20 
REMARK   10  A    between atoms: C14_20  and  C17_23 
REMARK   11  A    between atoms: C17_23  and  C18_24 
REMARK   12  A    between atoms: C19_25  and  C20_26 
REMARK   13  A    between atoms: C22_28  and  O4_29 
REMARK   14  A    between atoms: C23_31  and  O5_32 
REMARK   15  A    between atoms: C25_35  and  O6_36 
ROOT
HETATM    1  C12 UNL     1      19.110  53.897  37.858  1.00  0.00    -0.029 C 
HETATM    2  C13 UNL     1      18.050  54.597  38.038  1.00  0.00    -0.022 C 
ENDROOT
BRANCH   2   3
HETATM    3  C14 UNL     1      16.624  54.324  38.166  1.00  0.00    -0.027 C 
HETATM    4  C15 UNL     1      15.930  54.472  36.842  1.00  0.00     0.019 C 
HETATM    5  C16 UNL     1      16.262  53.010  38.790  1.00  0.00     0.019 C 
BRANCH   3   6
HETATM    6  C17 UNL     1      16.082  55.414  39.138  1.00  0.00     0.039 C 
BRANCH   6   7
HETATM    7  C18 UNL     1      15.233  56.402  38.476  1.00  0.00    -0.025 C 
HETATM    8  C19 UNL     1      14.100  56.860  39.026  1.00  0.00     0.010 C 
BRANCH   8   9
HETATM    9  C20 UNL     1      13.228  57.835  38.409  1.00  0.00    -0.001 A 
HETATM   10  C21 UNL     1      12.870  59.026  39.011  1.00  0.00     0.053 A 
HETATM   11  C22 UNL     1      12.029  59.957  38.429  1.00  0.00     0.099 A 
HETATM   12  C23 UNL     1      11.520  59.679  37.183  1.00  0.00     0.101 A 
HETATM   13  C24 UNL     1      11.851  58.499  36.544  1.00  0.00     0.076 A 
HETATM   14  C25 UNL     1      12.710  57.572  37.163  1.00  0.00     0.078 A 
BRANCH  11  15
HETATM   15  O4  UNL     1      11.684  61.149  39.054  1.00  0.00    -0.358 OA
ATOM     16  H4  UNL     1      10.785  61.444  39.134  1.00  0.00     0.217 HD
ENDBRANCH  11  15
BRANCH  12  17
HETATM   17  O5  UNL     1      10.667  60.588  36.559  1.00  0.00    -0.358 OA
ATOM     18  H5  UNL     1      10.395  60.445  35.660  1.00  0.00     0.217 HD
ENDBRANCH  12  17
BRANCH  14  19
HETATM   19  O6  UNL     1      12.982  56.443  36.468  1.00  0.00    -0.360 OA
ATOM     20  H6  UNL     1      12.370  56.045  35.860  1.00  0.00     0.217 HD
ENDBRANCH  14  19
ENDBRANCH   8   9
ENDBRANCH   6   7
ENDBRANCH   3   6
ENDBRANCH   2   3
BRANCH   1  21
HETATM   21  C11 UNL     1      19.284  52.457  37.710  1.00  0.00     0.044 C 
BRANCH  21  22
HETATM   22  C5  UNL     1      20.267  52.102  36.583  1.00  0.00    -0.000 C 
HETATM   23  C6  UNL     1      20.640  53.315  35.788  1.00  0.00     0.025 C 
BRANCH  22  24
HETATM   24  C2  UNL     1      19.584  51.124  35.701  1.00  0.00    -0.070 C 
HETATM   25  C1  UNL     1      18.124  50.884  35.810  1.00  0.00     0.044 C 
HETATM   26  C3  UNL     1      20.268  50.466  34.801  1.00  0.00     0.022 C 
BRANCH  26  27
HETATM   27  C4  UNL     1      19.621  49.521  33.928  1.00  0.00     0.114 C 
HETATM   28  N1  UNL     1      20.190  48.420  33.622  1.00  0.00    -0.281 N 
ATOM     29  H1  UNL     1      21.112  48.240  34.018  1.00  0.00     0.193 HD
BRANCH  28  30
HETATM   30  O1  UNL     1      19.660  47.469  32.809  1.00  0.00    -0.290 OA
ATOM     31  H1  UNL     1      20.086  46.653  32.577  1.00  0.00     0.244 HD
ENDBRANCH  28  30
ENDBRANCH  26  27
ENDBRANCH  22  24
BRANCH  22  32
HETATM   32  C7  UNL     1      21.420  51.437  37.204  1.00  0.00    -0.016 C 
HETATM   33  C8  UNL     1      22.691  51.634  36.946  1.00  0.00    -0.019 C 
BRANCH  33  34
HETATM   34  C9  UNL     1      23.734  50.881  37.664  1.00  0.00     0.140 C 
BRANCH  34  35
HETATM   35  C10 UNL     1      25.024  51.574  37.756  1.00  0.00     0.176 C 
HETATM   36  O2  UNL     1      25.865  51.562  36.830  1.00  0.00    -0.648 OA
HETATM   37  O3  UNL     1      25.326  52.269  38.914  1.00  0.00    -0.648 OA
ENDBRANCH  34  35
ENDBRANCH  33  34
ENDBRANCH  22  32
ENDBRANCH  21  22
ENDBRANCH   1  21
TORSDOF 15
ENDMDL
MODEL 2
REMARK VINA RESULT: -9.156046704      2.422      4.378
REMARK  15 active torsions:
REMARK  status: ('A' for Active; 'I' for Inactive)
REMARK    1  A    between atoms: C2_2  and  C5_9 
REMARK    2  A    between atoms: C3_3  and  C4_4 
REMARK    3  A    between atoms: N1_5  and  O1_7 
REMARK    4  A    between atoms: C5_9  and  C7_11 
REMARK    5  A    between atoms: C5_9  and  C11_17 
REMARK    6  A    between atoms: C8_12  and  C9_13 
REMARK    7  A    between atoms: C9_13  and  C10_14 
REMARK    8  A    between atoms: C11_17  and  C12_18 
REMARK    9  A    between atoms: C13_19  and  C14_20 
REMARK   10  A    between atoms: C14_20  and  C17_23 
REMARK   11  A    between atoms: C17_23  and  C18_24 
REMARK   12  A    between atoms: C19_25  and  C20_26 
REMARK   13  A    between atoms: C22_28  and  O4_29 
REMARK   14  A    between atoms: C23_31  and  O5_32 
REMARK   15  A    between atoms: C25_35  and  O6_36 
ROOT
HETATM    1  C12 UNL     1      18.050  55.418  36.537  1.00  0.00    -0.029 C 
HETATM    2  C13 UNL     1      17.063  56.128  36.948  1.00  0.00    -0.022 C 
ENDROOT
BRANCH   2   3
HETATM    3  C14 UNL     1      15.707  55.864  37.413  1.00  0.00    -0.027 C 
HETATM    4  C15 UNL     1      14.713  56.064  36.304  1.00  0.00     0.019 C 
HETATM    5  C16 UNL     1      15.485  54.533  38.067  1.00  0.00     0.019 C 
BRANCH   3   6
HETATM    6  C17 UNL     1      15.438  56.926  38.521  1.00  0.00     0.039 C 
BRANCH   6   7
HETATM    7  C18 UNL     1      14.147  57.595  38.374  1.00  0.00    -0.025 C 
HETATM    8  C19 UNL     1      13.860  58.748  38.993  1.00  0.00     0.010 C 
BRANCH   8   9
HETATM    9  C20 UNL     1      12.598  59.445  38.879  1.00  0.00    -0.001 A 
HETATM   10  C21 UNL     1      11.401  58.813  38.600  1.00  0.00     0.053 A 
HETATM   11  C22 UNL     1      10.194  59.478  38.480  1.00  0.00     0.099 A 
HETATM   12  C23 UNL     1      10.186  60.842  38.646  1.00  0.00     0.101 A 
HETATM   13  C24 UNL     1      11.360  61.514  38.925  1.00  0.00     0.076 A 
HETATM   14  C25 UNL     1      12.573  60.810  39.042  1.00  0.00     0.078 A 
BRANCH  11  15
HETATM   15  O4  UNL     1       9.002  58.820  38.200  1.00  0.00    -0.358 OA
ATOM     16  H4  UNL     1       8.845  58.372  37.378  1.00  0.00     0.217 HD
ENDBRANCH  11  15
BRANCH  12  17
HETATM   17  O5  UNL     1       8.992  61.552  38.533  1.00  0.00    -0.358 OA
ATOM     18  H5  UNL     1       8.689  61.840  37.680  1.00  0.00     0.217 HD
ENDBRANCH  12  17
BRANCH  14  19
HETATM   19  O6  UNL     1      13.676  61.546  39.316  1.00  0.00    -0.360 OA
ATOM     20  H6  UNL     1      13.935  61.788  40.198  1.00  0.00     0.217 HD
ENDBRANCH  14  19
ENDBRANCH   8   9
ENDBRANCH   6   7
ENDBRANCH   3   6
ENDBRANCH   2   3
BRANCH   1  21
HETATM   21  C11 UNL     1      18.184  53.975  36.381  1.00  0.00     0.044 C 
BRANCH  21  22
HETATM   22  C5  UNL     1      18.855  53.317  37.598  1.00  0.00    -0.000 C 
HETATM   23  C6  UNL     1      18.998  54.290  38.728  1.00  0.00     0.025 C 
BRANCH  22  24
HETATM   24  C2  UNL     1      20.199  52.865  37.163  1.00  0.00    -0.070 C 
HETATM   25  C1  UNL     1      21.425  53.576  37.600  1.00  0.00     0.044 C 
HETATM   26  C3  UNL     1      20.318  51.817  36.389  1.00  0.00     0.022 C 
BRANCH  26  27
HETATM   27  C4  UNL     1      21.614  51.355  35.965  1.00  0.00     0.114 C 
HETATM   28  N1  UNL     1      21.948  51.390  34.734  1.00  0.00    -0.281 N 
ATOM     29  H1  UNL     1      21.265  51.755  34.070  1.00  0.00     0.193 HD
BRANCH  28  30
HETATM   30  O1  UNL     1      23.145  50.979  34.239  1.00  0.00    -0.290 OA
ATOM     31  H1  UNL     1      23.778  51.541  33.807  1.00  0.00     0.244 HD
ENDBRANCH  28  30
ENDBRANCH  26  27
ENDBRANCH  22  24
BRANCH  22  32
HETATM   32  C7  UNL     1      18.059  52.133  37.947  1.00  0.00    -0.016 C 
HETATM   33  C8  UNL     1      16.913  51.759  37.429  1.00  0.00    -0.019 C 
BRANCH  33  34
HETATM   34  C9  UNL     1      16.238  50.534  37.892  1.00  0.00     0.140 C 
BRANCH  34  35
HETATM   35  C10 UNL     1      16.342  49.401  36.967  1.00  0.00     0.176 C 
HETATM   36  O2  UNL     1      15.528  48.452  36.968  1.00  0.00    -0.648 OA
HETATM   37  O3  UNL     1      17.384  49.378  36.055  1.00  0.00    -0.648 OA
ENDBRANCH  34  35
ENDBRANCH  33  34
ENDBRANCH  22  32
ENDBRANCH  21  22
ENDBRANCH   1  21
TORSDOF 15
ENDMDL
MODEL 3
REMARK VINA RESULT: -9.113800235      2.504      3.085
REMARK  15 active torsions:
REMARK  status: ('A' for Active; 'I' for Inactive)
REMARK    1  A    between atoms: C2_2  and  C5_9 
REMARK    2  A    between atoms: C3_3  and  C4_4 
REMARK    3  A    between atoms: N1_5  and  O1_7 
REMARK    4  A    between atoms: C5_9  and  C7_11 
REMARK    5  A    between atoms: C5_9  and  C11_17 
REMARK    6  A    between atoms: C8_12  and  C9_13 
REMARK    7  A    between atoms: C9_13  and  C10_14 
REMARK    8  A    between atoms: C11_17  and  C12_18 
REMARK    9  A    between atoms: C13_19  and  C14_20 
REMARK   10  A    between atoms: C14_20  and  C17_23 
REMARK   11  A    between atoms: C17_23  and  C18_24 
REMARK   12  A    between atoms: C19_25  and  C20_26 
REMARK   13  A    between atoms: C22_28  and  O4_29 
REMARK   14  A    between atoms: C23_31  and  O5_32 
REMARK   15  A    between atoms: C25_35  and  O6_36 
ROOT
HETATM    1  C12 UNL     1      18.429  55.807  36.679  1.00  0.00    -0.029 C 
HETATM    2  C13 UNL     1      17.285  56.195  37.112  1.00  0.00    -0.022 C 
ENDROOT
BRANCH   2   3
HETATM    3  C14 UNL     1      15.909  55.724  37.003  1.00  0.00    -0.027 C 
HETATM    4  C15 UNL     1      15.193  56.421  35.881  1.00  0.00     0.019 C 
HETATM    5  C16 UNL     1      15.732  54.241  36.881  1.00  0.00     0.019 C 
BRANCH   3   6
HETATM    6  C17 UNL     1      15.232  56.119  38.349  1.00  0.00     0.039 C 
BRANCH   6   7
HETATM    7  C18 UNL     1      14.078  57.000  38.174  1.00  0.00    -0.025 C 
HETATM    8  C19 UNL     1      13.885  58.090  38.928  1.00  0.00     0.010 C 
BRANCH   8   9
HETATM    9  C20 UNL     1      12.761  58.989  38.792  1.00  0.00    -0.001 A 
HETATM   10  C21 UNL     1      11.476  58.566  38.511  1.00  0.00     0.053 A 
HETATM   11  C22 UNL     1      10.400  59.424  38.370  1.00  0.00     0.099 A 
HETATM   12  C23 UNL     1      10.623  60.771  38.518  1.00  0.00     0.101 A 
HETATM   13  C24 UNL     1      11.892  61.239  38.800  1.00  0.00     0.076 A 
HETATM   14  C25 UNL     1      12.967  60.341  38.937  1.00  0.00     0.078 A 
BRANCH  11  15
HETATM   15  O4  UNL     1       9.116  58.974  38.088  1.00  0.00    -0.358 OA
ATOM     16  H4  UNL     1       8.375  59.562  38.005  1.00  0.00     0.217 HD
ENDBRANCH  11  15
BRANCH  12  17
HETATM   17  O5  UNL     1       9.568  61.672  38.384  1.00  0.00    -0.358 OA
ATOM     18  H5  UNL     1       8.840  61.469  37.809  1.00  0.00     0.217 HD
ENDBRANCH  12  17
BRANCH  14  19
HETATM   19  O6  UNL     1      14.176  60.883  39.213  1.00  0.00    -0.360 OA
ATOM     20  H6  UNL     1      14.327  61.483  39.934  1.00  0.00     0.217 HD
ENDBRANCH  14  19
ENDBRANCH   8   9
ENDBRANCH   6   7
ENDBRANCH   3   6
ENDBRANCH   2   3
BRANCH   1  21
HETATM   21  C11 UNL     1      18.795  54.659  35.859  1.00  0.00     0.044 C 
BRANCH  21  22
HETATM   22  C5  UNL     1      19.641  53.636  36.634  1.00  0.00    -0.000 C 
HETATM   23  C6  UNL     1      20.750  53.096  35.784  1.00  0.00     0.025 C 
BRANCH  22  24
HETATM   24  C2  UNL     1      18.735  52.529  37.026  1.00  0.00    -0.070 C 
HETATM   25  C1  UNL     1      18.292  52.362  38.431  1.00  0.00     0.044 C 
HETATM   26  C3  UNL     1      18.305  51.685  36.123  1.00  0.00     0.022 C 
BRANCH  26  27
HETATM   27  C4  UNL     1      17.416  50.610  36.481  1.00  0.00     0.114 C 
HETATM   28  N1  UNL     1      17.210  49.639  35.679  1.00  0.00    -0.281 N 
ATOM     29  H1  UNL     1      17.697  49.657  34.783  1.00  0.00     0.193 HD
BRANCH  28  30
HETATM   30  O1  UNL     1      16.393  48.583  35.927  1.00  0.00    -0.290 OA
ATOM     31  H1  UNL     1      16.631  47.818  36.437  1.00  0.00     0.244 HD
ENDBRANCH  28  30
ENDBRANCH  26  27
ENDBRANCH  22  24
BRANCH  22  32
HETATM   32  C7  UNL     1      20.116  54.299  37.855  1.00  0.00    -0.016 C 
HETATM   33  C8  UNL     1      21.345  54.354  38.309  1.00  0.00    -0.019 C 
BRANCH  33  34
HETATM   34  C9  UNL     1      21.659  55.067  39.560  1.00  0.00     0.140 C 
BRANCH  34  35
HETATM   35  C10 UNL     1      23.087  55.106  39.891  1.00  0.00     0.176 C 
HETATM   36  O2  UNL     1      23.506  55.247  41.060  1.00  0.00    -0.648 OA
HETATM   37  O3  UNL     1      24.012  54.983  38.868  1.00  0.00    -0.648 OA
ENDBRANCH  34  35
ENDBRANCH  33  34
ENDBRANCH  22  32
ENDBRANCH  21  22
ENDBRANCH   1  21
TORSDOF 15
ENDMDL
MODEL 4
REMARK VINA RESULT: -8.967005384      1.034      1.351
REMARK  15 active torsions:
REMARK  status: ('A' for Active; 'I' for Inactive)
REMARK    1  A    between atoms: C2_2  and  C5_9 
REMARK    2  A    between atoms: C3_3  and  C4_4 
REMARK    3  A    between atoms: N1_5  and  O1_7 
REMARK    4  A    between atoms: C5_9  and  C7_11 
REMARK    5  A    between atoms: C5_9  and  C11_17 
REMARK    6  A    between atoms: C8_12  and  C9_13 
REMARK    7  A    between atoms: C9_13  and  C10_14 
REMARK    8  A    between atoms: C11_17  and  C12_18 
REMARK    9  A    between atoms: C13_19  and  C14_20 
REMARK   10  A    between atoms: C14_20  and  C17_23 
REMARK   11  A    between atoms: C17_23  and  C18_24 
REMARK   12  A    between atoms: C19_25  and  C20_26 
REMARK   13  A    between atoms: C22_28  and  O4_29 
REMARK   14  A    between atoms: C23_31  and  O5_32 
REMARK   15  A    between atoms: C25_35  and  O6_36 
ROOT
HETATM    1  C12 UNL     1      19.236  53.888  37.888  1.00  0.00    -0.029 C 
HETATM    2  C13 UNL     1      18.157  54.579  37.972  1.00  0.00    -0.022 C 
ENDROOT
BRANCH   2   3
HETATM    3  C14 UNL     1      16.728  54.292  37.984  1.00  0.00    -0.027 C 
HETATM    4  C15 UNL     1      16.126  54.512  36.625  1.00  0.00     0.019 C 
HETATM    5  C16 UNL     1      16.336  52.942  38.506  1.00  0.00     0.019 C 
BRANCH   3   6
HETATM    6  C17 UNL     1      16.110  55.321  38.976  1.00  0.00     0.039 C 
BRANCH   6   7
HETATM    7  C18 UNL     1      15.219  56.281  38.326  1.00  0.00    -0.025 C 
HETATM    8  C19 UNL     1      14.237  56.910  38.985  1.00  0.00     0.010 C 
BRANCH   8   9
HETATM    9  C20 UNL     1      13.332  57.865  38.385  1.00  0.00    -0.001 A 
HETATM   10  C21 UNL     1      12.974  59.057  38.985  1.00  0.00     0.053 A 
HETATM   11  C22 UNL     1      12.100  59.968  38.418  1.00  0.00     0.099 A 
HETATM   12  C23 UNL     1      11.558  59.669  37.192  1.00  0.00     0.101 A 
HETATM   13  C24 UNL     1      11.888  58.487  36.556  1.00  0.00     0.076 A 
HETATM   14  C25 UNL     1      12.780  57.581  37.158  1.00  0.00     0.078 A 
BRANCH  11  15
HETATM   15  O4  UNL     1      11.756  61.162  39.041  1.00  0.00    -0.358 OA
ATOM     16  H4  UNL     1      10.943  61.618  38.859  1.00  0.00     0.217 HD
ENDBRANCH  11  15
BRANCH  12  17
HETATM   17  O5  UNL     1      10.673  60.558  36.585  1.00  0.00    -0.358 OA
ATOM     18  H5  UNL     1      10.692  61.479  36.815  1.00  0.00     0.217 HD
ENDBRANCH  12  17
BRANCH  14  19
HETATM   19  O6  UNL     1      13.049  56.448  36.467  1.00  0.00    -0.360 OA
ATOM     20  H6  UNL     1      13.640  56.418  35.724  1.00  0.00     0.217 HD
ENDBRANCH  14  19
ENDBRANCH   8   9
ENDBRANCH   6   7
ENDBRANCH   3   6
ENDBRANCH   2   3
BRANCH   1  21
HETATM   21  C11 UNL     1      19.436  52.449  37.772  1.00  0.00     0.044 C 
BRANCH  21  22
HETATM   22  C5  UNL     1      20.436  52.087  36.663  1.00  0.00    -0.000 C 
HETATM   23  C6  UNL     1      20.797  53.290  35.847  1.00  0.00     0.025 C 
BRANCH  22  24
HETATM   24  C2  UNL     1      19.778  51.081  35.794  1.00  0.00    -0.070 C 
HETATM   25  C1  UNL     1      20.532  50.383  34.724  1.00  0.00     0.044 C 
HETATM   26  C3  UNL     1      18.515  50.788  35.973  1.00  0.00     0.022 C 
BRANCH  26  27
HETATM   27  C4  UNL     1      17.862  49.805  35.148  1.00  0.00     0.114 C 
HETATM   28  N1  UNL     1      16.968  49.035  35.634  1.00  0.00    -0.281 N 
ATOM     29  H1  UNL     1      16.740  49.144  36.622  1.00  0.00     0.193 HD
BRANCH  28  30
HETATM   30  O1  UNL     1      16.298  48.082  34.937  1.00  0.00    -0.290 OA
ATOM     31  H1  UNL     1      16.387  47.145  35.071  1.00  0.00     0.244 HD
ENDBRANCH  28  30
ENDBRANCH  26  27
ENDBRANCH  22  24
BRANCH  22  32
HETATM   32  C7  UNL     1      21.593  51.455  37.309  1.00  0.00    -0.016 C 
HETATM   33  C8  UNL     1      22.845  51.492  36.919  1.00  0.00    -0.019 C 
BRANCH  33  34
HETATM   34  C9  UNL     1      23.897  50.800  37.686  1.00  0.00     0.140 C 
BRANCH  34  35
HETATM   35  C10 UNL     1      25.137  51.568  37.839  1.00  0.00     0.176 C 
HETATM   36  O2  UNL     1      25.391  52.245  38.859  1.00  0.00    -0.648 OA
HETATM   37  O3  UNL     1      26.066  51.546  36.813  1.00  0.00    -0.648 OA
ENDBRANCH  34  35
ENDBRANCH  33  34
ENDBRANCH  22  32
ENDBRANCH  21  22
ENDBRANCH   1  21
TORSDOF 15
ENDMDL
MODEL 5
REMARK VINA RESULT: -8.959318018      2.684      4.458
REMARK  15 active torsions:
REMARK  status: ('A' for Active; 'I' for Inactive)
REMARK    1  A    between atoms: C2_2  and  C5_9 
REMARK    2  A    between atoms: C3_3  and  C4_4 
REMARK    3  A    between atoms: N1_5  and  O1_7 
REMARK    4  A    between atoms: C5_9  and  C7_11 
REMARK    5  A    between atoms: C5_9  and  C11_17 
REMARK    6  A    between atoms: C8_12  and  C9_13 
REMARK    7  A    between atoms: C9_13  and  C10_14 
REMARK    8  A    between atoms: C11_17  and  C12_18 
REMARK    9  A    between atoms: C13_19  and  C14_20 
REMARK   10  A    between atoms: C14_20  and  C17_23 
REMARK   11  A    between atoms: C17_23  and  C18_24 
REMARK   12  A    between atoms: C19_25  and  C20_26 
REMARK   13  A    between atoms: C22_28  and  O4_29 
REMARK   14  A    between atoms: C23_31  and  O5_32 
REMARK   15  A    between atoms: C25_35  and  O6_36 
ROOT
HETATM    1  C12 UNL     1      16.287  53.385  36.863  1.00  0.00    -0.029 C 
HETATM    2  C13 UNL     1      15.567  54.396  37.191  1.00  0.00    -0.022 C 
ENDROOT
BRANCH   2   3
HETATM    3  C14 UNL     1      15.682  55.845  37.079  1.00  0.00    -0.027 C 
HETATM    4  C15 UNL     1      17.115  56.254  36.887  1.00  0.00     0.019 C 
HETATM    5  C16 UNL     1      14.822  56.492  36.035  1.00  0.00     0.019 C 
BRANCH   3   6
HETATM    6  C17 UNL     1      15.181  56.405  38.443  1.00  0.00     0.039 C 
BRANCH   6   7
HETATM    7  C18 UNL     1      13.948  57.181  38.325  1.00  0.00    -0.025 C 
HETATM    8  C19 UNL     1      13.807  58.395  38.875  1.00  0.00     0.010 C 
BRANCH   8   9
HETATM    9  C20 UNL     1      12.608  59.199  38.786  1.00  0.00    -0.001 A 
HETATM   10  C21 UNL     1      11.355  58.673  38.539  1.00  0.00     0.053 A 
HETATM   11  C22 UNL     1      10.207  59.439  38.444  1.00  0.00     0.099 A 
HETATM   12  C23 UNL     1      10.322  60.799  38.603  1.00  0.00     0.101 A 
HETATM   13  C24 UNL     1      11.557  61.368  38.851  1.00  0.00     0.076 A 
HETATM   14  C25 UNL     1      12.706  60.561  38.943  1.00  0.00     0.078 A 
BRANCH  11  15
HETATM   15  O4  UNL     1       8.956  58.887  38.195  1.00  0.00    -0.358 OA
ATOM     16  H4  UNL     1       8.296  59.329  37.675  1.00  0.00     0.217 HD
ENDBRANCH  11  15
BRANCH  12  17
HETATM   17  O5  UNL     1       9.192  61.610  38.514  1.00  0.00    -0.358 OA
ATOM     18  H5  UNL     1       8.444  61.446  39.077  1.00  0.00     0.217 HD
ENDBRANCH  12  17
BRANCH  14  19
HETATM   19  O6  UNL     1      13.875  61.199  39.188  1.00  0.00    -0.360 OA
ATOM     20  H6  UNL     1      13.940  61.977  39.730  1.00  0.00     0.217 HD
ENDBRANCH  14  19
ENDBRANCH   8   9
ENDBRANCH   6   7
ENDBRANCH   3   6
ENDBRANCH   2   3
BRANCH   1  21
HETATM   21  C11 UNL     1      17.582  53.317  36.198  1.00  0.00     0.044 C 
BRANCH  21  22
HETATM   22  C5  UNL     1      18.651  52.643  37.072  1.00  0.00    -0.000 C 
HETATM   23  C6  UNL     1      18.127  52.365  38.448  1.00  0.00     0.025 C 
BRANCH  22  24
HETATM   24  C2  UNL     1      19.797  53.580  37.160  1.00  0.00    -0.070 C 
HETATM   25  C1  UNL     1      20.212  54.394  35.992  1.00  0.00     0.044 C 
HETATM   26  C3  UNL     1      20.453  53.707  38.285  1.00  0.00     0.022 C 
BRANCH  26  27
HETATM   27  C4  UNL     1      21.562  54.620  38.394  1.00  0.00     0.114 C 
HETATM   28  N1  UNL     1      22.718  54.204  38.739  1.00  0.00    -0.281 N 
ATOM     29  H1  UNL     1      22.822  53.208  38.932  1.00  0.00     0.193 HD
BRANCH  28  30
HETATM   30  O1  UNL     1      23.821  54.986  38.868  1.00  0.00    -0.290 OA
ATOM     31  H1  UNL     1      23.901  55.720  39.465  1.00  0.00     0.244 HD
ENDBRANCH  28  30
ENDBRANCH  26  27
ENDBRANCH  22  24
BRANCH  22  32
HETATM   32  C7  UNL     1      19.094  51.435  36.364  1.00  0.00    -0.016 C 
HETATM   33  C8  UNL     1      18.592  50.922  35.266  1.00  0.00    -0.019 C 
BRANCH  33  34
HETATM   34  C9  UNL     1      19.156  49.695  34.677  1.00  0.00     0.140 C 
BRANCH  34  35
HETATM   35  C10 UNL     1      20.251  49.929  33.729  1.00  0.00     0.176 C 
HETATM   36  O2  UNL     1      20.171  49.631  32.518  1.00  0.00    -0.648 OA
HETATM   37  O3  UNL     1      21.423  50.502  34.193  1.00  0.00    -0.648 OA
ENDBRANCH  34  35
ENDBRANCH  33  34
ENDBRANCH  22  32
ENDBRANCH  21  22
ENDBRANCH   1  21
TORSDOF 15
ENDMDL
