MODEL 1
REMARK VINA RESULT: -9.254723851      0.000      0.000
REMARK  19 active torsions:
REMARK  status: ('A' for Active; 'I' for Inactive)
REMARK    1  A    between atoms: C2_2  and  O1_3 
REMARK    2  A    between atoms: C2_2  and  C3_5 
REMARK    3  A    between atoms: C4_6  and  O2_7 
REMARK    4  A    between atoms: C5_9  and  O3_10 
REMARK    5  A    between atoms: C6_12  and  O4_13 
REMARK    6  A    between atoms: C7_15  and  C8_16 
REMARK    7  A    between atoms: C9_17  and  C10_18 
REMARK    8  A    between atoms: C10_18  and  C11_19 
REMARK    9  A    between atoms: C11_19  and  C12_20 
REMARK   10  A    between atoms: C12_20  and  C13_21 
REMARK   11  A    between atoms: C13_21  and  C14_22 
REMARK   12  A    between atoms: C14_22  and  C15_23 
REMARK   13  A    between atoms: C15_23  and  C16_24 
REMARK   14  A    between atoms: C16_24  and  C17_25 
REMARK   15  A    between atoms: C18_26  and  C19_27 
REMARK   16  A    between atoms: C20_28  and  C21_29 
REMARK   17  A    between atoms: C22_30  and  C23_31 
REMARK   18  A    between atoms: C23_31  and  C24_32 
REMARK   19  A    between atoms: C25_35  and  O7_36 
ROOT
HETATM    1  C8  UNL     1      19.837  53.029  37.384  1.00  0.00     0.014 C 
HETATM    2  C9  UNL     1      19.760  54.297  37.406  1.00  0.00    -0.014 C 
ENDROOT
BRANCH   1   3
HETATM    3  C7  UNL     1      19.915  52.021  36.343  1.00  0.00     0.034 A 
HETATM    4  C6  UNL     1      18.784  51.263  36.078  1.00  0.00     0.114 A 
HETATM    5  C5  UNL     1      18.807  50.182  35.253  1.00  0.00     0.134 A 
HETATM    6  C4  UNL     1      19.993  49.775  34.620  1.00  0.00     0.117 A 
HETATM    7  C3  UNL     1      21.117  50.504  34.862  1.00  0.00     0.063 A 
HETATM    8  C25 UNL     1      21.098  51.652  35.739  1.00  0.00     0.094 A 
BRANCH   4   9
HETATM    9  O4  UNL     1      17.580  51.659  36.705  1.00  0.00    -0.357 OA
ATOM     10  H4  UNL     1      16.742  51.371  36.365  1.00  0.00     0.217 HD
ENDBRANCH   4   9
BRANCH   5  11
HETATM   11  O3  UNL     1      17.662  49.448  35.013  1.00  0.00    -0.356 OA
ATOM     12  H3  UNL     1      16.840  49.783  35.351  1.00  0.00     0.218 HD
ENDBRANCH   5  11
BRANCH   6  13
HETATM   13  O2  UNL     1      19.940  48.694  33.800  1.00  0.00    -0.357 OA
ATOM     14  H2  UNL     1      19.438  47.908  33.979  1.00  0.00     0.217 HD
ENDBRANCH   6  13
BRANCH   7  15
HETATM   15  C2  UNL     1      22.408  50.189  34.315  1.00  0.00     0.055 C 
HETATM   16  C1  UNL     1      23.308  49.113  34.709  1.00  0.00     0.077 C 
BRANCH  15  17
HETATM   17  O1  UNL     1      22.883  50.916  33.344  1.00  0.00    -0.364 OA
ATOM     18  H1  UNL     1      22.894  50.459  32.512  1.00  0.00     0.217 HD
ENDBRANCH  15  17
ENDBRANCH   7  15
BRANCH   8  19
HETATM   19  O7  UNL     1      22.224  52.312  35.942  1.00  0.00    -0.359 OA
ATOM     20  H7  UNL     1      22.834  51.981  36.590  1.00  0.00     0.217 HD
ENDBRANCH   8  19
ENDBRANCH   1   3
BRANCH   2  21
HETATM   21  C10 UNL     1      19.689  55.359  36.403  1.00  0.00     0.112 C 
BRANCH  21  22
HETATM   22  C11 UNL     1      18.382  55.743  35.930  1.00  0.00    -0.152 C 
BRANCH  22  23
HETATM   23  C12 UNL     1      17.230  56.089  35.548  1.00  0.00     0.051 C 
BRANCH  23  24
HETATM   24  C13 UNL     1      15.916  55.912  36.186  1.00  0.00     0.008 C 
BRANCH  24  25
HETATM   25  C14 UNL     1      15.700  54.939  37.011  1.00  0.00     0.009 C 
BRANCH  25  26
HETATM   26  C15 UNL     1      15.933  55.080  38.425  1.00  0.00     0.055 C 
BRANCH  26  27
HETATM   27  C16 UNL     1      15.568  56.068  39.163  1.00  0.00    -0.128 C 
BRANCH  27  28
HETATM   28  C17 UNL     1      15.176  57.087  39.939  1.00  0.00     0.055 C 
HETATM   29  C18 UNL     1      14.132  57.865  39.569  1.00  0.00     0.008 C 
BRANCH  29  30
HETATM   30  C19 UNL     1      13.437  57.634  38.338  1.00  0.00     0.001 C 
HETATM   31  C20 UNL     1      12.756  58.517  37.657  1.00  0.00    -0.000 C 
BRANCH  31  32
HETATM   32  C21 UNL     1      12.597  59.881  38.070  1.00  0.00    -0.004 C 
HETATM   33  C22 UNL     1      11.548  60.343  38.699  1.00  0.00    -0.016 C 
BRANCH  33  34
HETATM   34  C23 UNL     1      10.377  59.562  39.062  1.00  0.00     0.140 C 
BRANCH  34  35
HETATM   35  C24 UNL     1       9.194  60.193  38.403  1.00  0.00     0.176 C 
HETATM   36  O5  UNL     1       9.177  61.260  37.799  1.00  0.00    -0.648 OA
HETATM   37  O6  UNL     1       7.946  59.513  38.456  1.00  0.00    -0.648 OA
ENDBRANCH  34  35
ENDBRANCH  33  34
ENDBRANCH  31  32
ENDBRANCH  29  30
ENDBRANCH  27  28
ENDBRANCH  26  27
ENDBRANCH  25  26
ENDBRANCH  24  25
ENDBRANCH  23  24
ENDBRANCH  22  23
ENDBRANCH  21  22
ENDBRANCH   2  21
TORSDOF 19
ENDMDL
MODEL 2
REMARK VINA RESULT: -9.007603901      1.914      3.612
REMARK  19 active torsions:
REMARK  status: ('A' for Active; 'I' for Inactive)
REMARK    1  A    between atoms: C2_2  and  O1_3 
REMARK    2  A    between atoms: C2_2  and  C3_5 
REMARK    3  A    between atoms: C4_6  and  O2_7 
REMARK    4  A    between atoms: C5_9  and  O3_10 
REMARK    5  A    between atoms: C6_12  and  O4_13 
REMARK    6  A    between atoms: C7_15  and  C8_16 
REMARK    7  A    between atoms: C9_17  and  C10_18 
REMARK    8  A    between atoms: C10_18  and  C11_19 
REMARK    9  A    between atoms: C11_19  and  C12_20 
REMARK   10  A    between atoms: C12_20  and  C13_21 
REMARK   11  A    between atoms: C13_21  and  C14_22 
REMARK   12  A    between atoms: C14_22  and  C15_23 
REMARK   13  A    between atoms: C15_23  and  C16_24 
REMARK   14  A    between atoms: C16_24  and  C17_25 
REMARK   15  A    between atoms: C18_26  and  C19_27 
REMARK   16  A    between atoms: C20_28  and  C21_29 
REMARK   17  A    between atoms: C22_30  and  C23_31 
REMARK   18  A    between atoms: C23_31  and  C24_32 
REMARK   19  A    between atoms: C25_35  and  O7_36 
ROOT
HETATM    1  C8  UNL     1      20.380  53.631  37.151  1.00  0.00     0.014 C 
HETATM    2  C9  UNL     1      20.596  54.739  36.569  1.00  0.00    -0.014 C 
ENDROOT
BRANCH   1   3
HETATM    3  C7  UNL     1      19.255  52.718  37.241  1.00  0.00     0.034 A 
HETATM    4  C6  UNL     1      19.105  51.763  36.246  1.00  0.00     0.114 A 
HETATM    5  C5  UNL     1      17.994  50.984  36.144  1.00  0.00     0.134 A 
HETATM    6  C4  UNL     1      16.932  51.111  37.054  1.00  0.00     0.117 A 
HETATM    7  C3  UNL     1      17.056  52.040  38.040  1.00  0.00     0.063 A 
HETATM    8  C25 UNL     1      18.232  52.870  38.152  1.00  0.00     0.094 A 
BRANCH   4   9
HETATM    9  O4  UNL     1      20.166  51.621  35.322  1.00  0.00    -0.357 OA
ATOM     10  H4  UNL     1      20.522  52.380  34.876  1.00  0.00     0.217 HD
ENDBRANCH   4   9
BRANCH   5  11
HETATM   11  O3  UNL     1      17.877  50.044  35.140  1.00  0.00    -0.356 OA
ATOM     12  H3  UNL     1      18.304  49.205  35.264  1.00  0.00     0.218 HD
ENDBRANCH   5  11
BRANCH   6  13
HETATM   13  O2  UNL     1      15.859  50.292  36.899  1.00  0.00    -0.357 OA
ATOM     14  H2  UNL     1      15.035  50.392  37.362  1.00  0.00     0.217 HD
ENDBRANCH   6  13
BRANCH   7  15
HETATM   15  C2  UNL     1      16.038  52.307  39.020  1.00  0.00     0.055 C 
HETATM   16  C1  UNL     1      15.543  51.416  40.062  1.00  0.00     0.077 C 
BRANCH  15  17
HETATM   17  O1  UNL     1      15.453  53.471  39.030  1.00  0.00    -0.364 OA
ATOM     18  H1  UNL     1      16.042  54.181  38.806  1.00  0.00     0.217 HD
ENDBRANCH  15  17
ENDBRANCH   7  15
BRANCH   8  19
HETATM   19  O7  UNL     1      18.289  53.761  39.126  1.00  0.00    -0.359 OA
ATOM     20  H7  UNL     1      18.228  54.682  38.904  1.00  0.00     0.217 HD
ENDBRANCH   8  19
ENDBRANCH   1   3
BRANCH   2  21
HETATM   21  C10 UNL     1      19.818  55.649  35.728  1.00  0.00     0.112 C 
BRANCH  21  22
HETATM   22  C11 UNL     1      18.401  55.409  35.620  1.00  0.00    -0.152 C 
BRANCH  22  23
HETATM   23  C12 UNL     1      17.154  55.224  35.547  1.00  0.00     0.051 C 
BRANCH  23  24
HETATM   24  C13 UNL     1      16.036  56.168  35.702  1.00  0.00     0.008 C 
BRANCH  24  25
HETATM   25  C14 UNL     1      15.288  56.151  36.758  1.00  0.00     0.009 C 
BRANCH  25  26
HETATM   26  C15 UNL     1      15.800  56.521  38.051  1.00  0.00     0.055 C 
BRANCH  26  27
HETATM   27  C16 UNL     1      15.129  57.040  39.017  1.00  0.00    -0.128 C 
BRANCH  27  28
HETATM   28  C17 UNL     1      14.416  57.570  40.020  1.00  0.00     0.055 C 
HETATM   29  C18 UNL     1      13.439  58.472  39.762  1.00  0.00     0.008 C 
BRANCH  29  30
HETATM   30  C19 UNL     1      13.156  58.893  38.423  1.00  0.00     0.001 C 
HETATM   31  C20 UNL     1      12.486  59.959  38.073  1.00  0.00    -0.000 C 
BRANCH  31  32
HETATM   32  C21 UNL     1      11.912  60.875  39.015  1.00  0.00    -0.004 C 
HETATM   33  C22 UNL     1      10.700  61.356  38.931  1.00  0.00    -0.016 C 
BRANCH  33  34
HETATM   34  C23 UNL     1       9.752  61.058  37.871  1.00  0.00     0.140 C 
BRANCH  34  35
HETATM   35  C24 UNL     1       8.924  59.899  38.320  1.00  0.00     0.176 C 
HETATM   36  O5  UNL     1       9.312  58.748  38.497  1.00  0.00    -0.648 OA
HETATM   37  O6  UNL     1       7.544  60.113  38.584  1.00  0.00    -0.648 OA
ENDBRANCH  34  35
ENDBRANCH  33  34
ENDBRANCH  31  32
ENDBRANCH  29  30
ENDBRANCH  27  28
ENDBRANCH  26  27
ENDBRANCH  25  26
ENDBRANCH  24  25
ENDBRANCH  23  24
ENDBRANCH  22  23
ENDBRANCH  21  22
ENDBRANCH   2  21
TORSDOF 19
ENDMDL
MODEL 3
REMARK VINA RESULT: -8.844397649      0.921      1.339
REMARK  19 active torsions:
REMARK  status: ('A' for Active; 'I' for Inactive)
REMARK    1  A    between atoms: C2_2  and  O1_3 
REMARK    2  A    between atoms: C2_2  and  C3_5 
REMARK    3  A    between atoms: C4_6  and  O2_7 
REMARK    4  A    between atoms: C5_9  and  O3_10 
REMARK    5  A    between atoms: C6_12  and  O4_13 
REMARK    6  A    between atoms: C7_15  and  C8_16 
REMARK    7  A    between atoms: C9_17  and  C10_18 
REMARK    8  A    between atoms: C10_18  and  C11_19 
REMARK    9  A    between atoms: C11_19  and  C12_20 
REMARK   10  A    between atoms: C12_20  and  C13_21 
REMARK   11  A    between atoms: C13_21  and  C14_22 
REMARK   12  A    between atoms: C14_22  and  C15_23 
REMARK   13  A    between atoms: C15_23  and  C16_24 
REMARK   14  A    between atoms: C16_24  and  C17_25 
REMARK   15  A    between atoms: C18_26  and  C19_27 
REMARK   16  A    between atoms: C20_28  and  C21_29 
REMARK   17  A    between atoms: C22_30  and  C23_31 
REMARK   18  A    between atoms: C23_31  and  C24_32 
REMARK   19  A    between atoms: C25_35  and  O7_36 
ROOT
HETATM    1  C8  UNL     1      20.262  53.371  37.111  1.00  0.00     0.014 C 
HETATM    2  C9  UNL     1      20.410  54.622  36.951  1.00  0.00    -0.014 C 
ENDROOT
BRANCH   1   3
HETATM    3  C7  UNL     1      19.613  52.308  36.366  1.00  0.00     0.034 A 
HETATM    4  C6  UNL     1      18.357  51.888  36.782  1.00  0.00     0.114 A 
HETATM    5  C5  UNL     1      17.749  50.787  36.264  1.00  0.00     0.134 A 
HETATM    6  C4  UNL     1      18.369  50.012  35.270  1.00  0.00     0.117 A 
HETATM    7  C3  UNL     1      19.600  50.405  34.845  1.00  0.00     0.063 A 
HETATM    8  C25 UNL     1      20.252  51.572  35.392  1.00  0.00     0.094 A 
BRANCH   4   9
HETATM    9  O4  UNL     1      17.717  52.658  37.780  1.00  0.00    -0.357 OA
ATOM     10  H4  UNL     1      18.124  52.778  38.630  1.00  0.00     0.217 HD
ENDBRANCH   4   9
BRANCH   5  11
HETATM   11  O3  UNL     1      16.499  50.396  36.702  1.00  0.00    -0.356 OA
ATOM     12  H3  UNL     1      15.910  50.000  36.071  1.00  0.00     0.218 HD
ENDBRANCH   5  11
BRANCH   6  13
HETATM   13  O2  UNL     1      17.698  48.934  34.791  1.00  0.00    -0.357 OA
ATOM     14  H2  UNL     1      17.465  48.172  35.308  1.00  0.00     0.217 HD
ENDBRANCH   6  13
BRANCH   7  15
HETATM   15  C2  UNL     1      20.371  49.694  33.862  1.00  0.00     0.055 C 
HETATM   16  C1  UNL     1      21.597  48.932  34.065  1.00  0.00     0.077 C 
BRANCH  15  17
HETATM   17  O1  UNL     1      19.974  49.691  32.621  1.00  0.00    -0.364 OA
ATOM     18  H1  UNL     1      19.074  49.979  32.521  1.00  0.00     0.217 HD
ENDBRANCH  15  17
ENDBRANCH   7  15
BRANCH   8  19
HETATM   19  O7  UNL     1      21.452  51.895  34.944  1.00  0.00    -0.359 OA
ATOM     20  H7  UNL     1      21.988  52.482  35.463  1.00  0.00     0.217 HD
ENDBRANCH   8  19
ENDBRANCH   1   3
BRANCH   2  21
HETATM   21  C10 UNL     1      19.986  55.608  35.957  1.00  0.00     0.112 C 
BRANCH  21  22
HETATM   22  C11 UNL     1      18.582  55.668  35.636  1.00  0.00    -0.152 C 
BRANCH  22  23
HETATM   23  C12 UNL     1      17.359  55.743  35.331  1.00  0.00     0.051 C 
BRANCH  23  24
HETATM   24  C13 UNL     1      16.181  56.036  36.163  1.00  0.00     0.008 C 
BRANCH  24  25
HETATM   25  C14 UNL     1      15.636  55.120  36.896  1.00  0.00     0.009 C 
BRANCH  25  26
HETATM   26  C15 UNL     1      15.740  55.140  38.332  1.00  0.00     0.055 C 
BRANCH  26  27
HETATM   27  C16 UNL     1      15.490  56.140  39.100  1.00  0.00    -0.128 C 
BRANCH  27  28
HETATM   28  C17 UNL     1      15.224  57.191  39.888  1.00  0.00     0.055 C 
HETATM   29  C18 UNL     1      14.128  57.954  39.661  1.00  0.00     0.008 C 
BRANCH  29  30
HETATM   30  C19 UNL     1      13.244  57.672  38.571  1.00  0.00     0.001 C 
HETATM   31  C20 UNL     1      12.628  58.554  37.827  1.00  0.00    -0.000 C 
BRANCH  31  32
HETATM   32  C21 UNL     1      12.750  59.970  38.018  1.00  0.00    -0.004 C 
HETATM   33  C22 UNL     1      11.906  60.696  38.701  1.00  0.00    -0.016 C 
BRANCH  33  34
HETATM   34  C23 UNL     1      10.710  60.196  39.359  1.00  0.00     0.140 C 
BRANCH  34  35
HETATM   35  C24 UNL     1       9.605  60.209  38.353  1.00  0.00     0.176 C 
HETATM   36  O5  UNL     1       8.778  59.322  38.165  1.00  0.00    -0.648 OA
HETATM   37  O6  UNL     1       9.464  61.349  37.516  1.00  0.00    -0.648 OA
ENDBRANCH  34  35
ENDBRANCH  33  34
ENDBRANCH  31  32
ENDBRANCH  29  30
ENDBRANCH  27  28
ENDBRANCH  26  27
ENDBRANCH  25  26
ENDBRANCH  24  25
ENDBRANCH  23  24
ENDBRANCH  22  23
ENDBRANCH  21  22
ENDBRANCH   2  21
TORSDOF 19
ENDMDL
MODEL 4
REMARK VINA RESULT: -8.836328982      1.152      2.377
REMARK  19 active torsions:
REMARK  status: ('A' for Active; 'I' for Inactive)
REMARK    1  A    between atoms: C2_2  and  O1_3 
REMARK    2  A    between atoms: C2_2  and  C3_5 
REMARK    3  A    between atoms: C4_6  and  O2_7 
REMARK    4  A    between atoms: C5_9  and  O3_10 
REMARK    5  A    between atoms: C6_12  and  O4_13 
REMARK    6  A    between atoms: C7_15  and  C8_16 
REMARK    7  A    between atoms: C9_17  and  C10_18 
REMARK    8  A    between atoms: C10_18  and  C11_19 
REMARK    9  A    between atoms: C11_19  and  C12_20 
REMARK   10  A    between atoms: C12_20  and  C13_21 
REMARK   11  A    between atoms: C13_21  and  C14_22 
REMARK   12  A    between atoms: C14_22  and  C15_23 
REMARK   13  A    between atoms: C15_23  and  C16_24 
REMARK   14  A    between atoms: C16_24  and  C17_25 
REMARK   15  A    between atoms: C18_26  and  C19_27 
REMARK   16  A    between atoms: C20_28  and  C21_29 
REMARK   17  A    between atoms: C22_30  and  C23_31 
REMARK   18  A    between atoms: C23_31  and  C24_32 
REMARK   19  A    between atoms: C25_35  and  O7_36 
ROOT
HETATM    1  C8  UNL     1      19.895  52.218  37.213  1.00  0.00     0.014 C 
HETATM    2  C9  UNL     1      19.382  53.376  37.111  1.00  0.00    -0.014 C 
ENDROOT
BRANCH   1   3
HETATM    3  C7  UNL     1      20.931  51.486  36.509  1.00  0.00     0.034 A 
HETATM    4  C6  UNL     1      22.254  51.824  36.752  1.00  0.00     0.114 A 
HETATM    5  C5  UNL     1      23.282  51.323  36.015  1.00  0.00     0.134 A 
HETATM    6  C4  UNL     1      23.051  50.426  34.959  1.00  0.00     0.117 A 
HETATM    7  C3  UNL     1      21.761  50.077  34.702  1.00  0.00     0.063 A 
HETATM    8  C25 UNL     1      20.666  50.608  35.480  1.00  0.00     0.094 A 
BRANCH   4   9
HETATM    9  O4  UNL     1      22.506  52.724  37.813  1.00  0.00    -0.357 OA
ATOM     10  H4  UNL     1      21.833  52.909  38.458  1.00  0.00     0.217 HD
ENDBRANCH   4   9
BRANCH   5  11
HETATM   11  O3  UNL     1      24.588  51.683  36.283  1.00  0.00    -0.356 OA
ATOM     12  H3  UNL     1      25.282  51.139  35.929  1.00  0.00     0.218 HD
ENDBRANCH   5  11
BRANCH   6  13
HETATM   13  O2  UNL     1      24.126  49.958  34.274  1.00  0.00    -0.357 OA
ATOM     14  H2  UNL     1      24.949  50.422  34.182  1.00  0.00     0.217 HD
ENDBRANCH   6  13
BRANCH   7  15
HETATM   15  C2  UNL     1      21.368  49.200  33.634  1.00  0.00     0.055 C 
HETATM   16  C1  UNL     1      21.564  47.759  33.542  1.00  0.00     0.077 C 
BRANCH  15  17
HETATM   17  O1  UNL     1      20.757  49.694  32.595  1.00  0.00    -0.364 OA
ATOM     18  H1  UNL     1      20.552  50.617  32.693  1.00  0.00     0.217 HD
ENDBRANCH  15  17
ENDBRANCH   7  15
BRANCH   8  19
HETATM   19  O7  UNL     1      19.435  50.238  35.175  1.00  0.00    -0.359 OA
ATOM     20  H7  UNL     1      19.314  49.535  34.547  1.00  0.00     0.217 HD
ENDBRANCH   8  19
ENDBRANCH   1   3
BRANCH   2  21
HETATM   21  C10 UNL     1      19.564  54.526  36.225  1.00  0.00     0.112 C 
BRANCH  21  22
HETATM   22  C11 UNL     1      18.401  55.321  35.920  1.00  0.00    -0.152 C 
BRANCH  22  23
HETATM   23  C12 UNL     1      17.363  55.992  35.660  1.00  0.00     0.051 C 
BRANCH  23  24
HETATM   24  C13 UNL     1      15.982  55.844  36.145  1.00  0.00     0.008 C 
BRANCH  24  25
HETATM   25  C14 UNL     1      15.682  54.971  37.053  1.00  0.00     0.009 C 
BRANCH  25  26
HETATM   26  C15 UNL     1      15.975  55.198  38.444  1.00  0.00     0.055 C 
BRANCH  26  27
HETATM   27  C16 UNL     1      15.571  56.189  39.156  1.00  0.00    -0.128 C 
BRANCH  27  28
HETATM   28  C17 UNL     1      15.142  57.228  39.886  1.00  0.00     0.055 C 
HETATM   29  C18 UNL     1      14.117  57.995  39.445  1.00  0.00     0.008 C 
BRANCH  29  30
HETATM   30  C19 UNL     1      13.482  57.730  38.189  1.00  0.00     0.001 C 
HETATM   31  C20 UNL     1      12.706  58.547  37.527  1.00  0.00    -0.000 C 
BRANCH  31  32
HETATM   32  C21 UNL     1      12.364  59.860  37.992  1.00  0.00    -0.004 C 
HETATM   33  C22 UNL     1      11.203  60.183  38.497  1.00  0.00    -0.016 C 
BRANCH  33  34
HETATM   34  C23 UNL     1      10.076  59.279  38.654  1.00  0.00     0.140 C 
BRANCH  34  35
HETATM   35  C24 UNL     1       8.828  60.085  38.499  1.00  0.00     0.176 C 
HETATM   36  O5  UNL     1       8.756  61.303  38.366  1.00  0.00    -0.648 OA
HETATM   37  O6  UNL     1       7.578  59.406  38.494  1.00  0.00    -0.648 OA
ENDBRANCH  34  35
ENDBRANCH  33  34
ENDBRANCH  31  32
ENDBRANCH  29  30
ENDBRANCH  27  28
ENDBRANCH  26  27
ENDBRANCH  25  26
ENDBRANCH  24  25
ENDBRANCH  23  24
ENDBRANCH  22  23
ENDBRANCH  21  22
ENDBRANCH   2  21
TORSDOF 19
ENDMDL
MODEL 5
REMARK VINA RESULT: -8.783860281      1.277      2.858
REMARK  19 active torsions:
REMARK  status: ('A' for Active; 'I' for Inactive)
REMARK    1  A    between atoms: C2_2  and  O1_3 
REMARK    2  A    between atoms: C2_2  and  C3_5 
REMARK    3  A    between atoms: C4_6  and  O2_7 
REMARK    4  A    between atoms: C5_9  and  O3_10 
REMARK    5  A    between atoms: C6_12  and  O4_13 
REMARK    6  A    between atoms: C7_15  and  C8_16 
REMARK    7  A    between atoms: C9_17  and  C10_18 
REMARK    8  A    between atoms: C10_18  and  C11_19 
REMARK    9  A    between atoms: C11_19  and  C12_20 
REMARK   10  A    between atoms: C12_20  and  C13_21 
REMARK   11  A    between atoms: C13_21  and  C14_22 
REMARK   12  A    between atoms: C14_22  and  C15_23 
REMARK   13  A    between atoms: C15_23  and  C16_24 
REMARK   14  A    between atoms: C16_24  and  C17_25 
REMARK   15  A    between atoms: C18_26  and  C19_27 
REMARK   16  A    between atoms: C20_28  and  C21_29 
REMARK   17  A    between atoms: C22_30  and  C23_31 
REMARK   18  A    between atoms: C23_31  and  C24_32 
REMARK   19  A    between atoms: C25_35  and  O7_36 
ROOT
HETATM    1  C8  UNL     1      20.477  53.436  37.004  1.00  0.00     0.014 C 
HETATM    2  C9  UNL     1      20.452  54.668  36.695  1.00  0.00    -0.014 C 
ENDROOT
BRANCH   1   3
HETATM    3  C7  UNL     1      19.793  52.244  36.537  1.00  0.00     0.034 A 
HETATM    4  C6  UNL     1      20.300  51.592  35.422  1.00  0.00     0.114 A 
HETATM    5  C5  UNL     1      19.633  50.579  34.805  1.00  0.00     0.134 A 
HETATM    6  C4  UNL     1      18.385  50.137  35.274  1.00  0.00     0.117 A 
HETATM    7  C3  UNL     1      17.868  50.760  36.367  1.00  0.00     0.063 A 
HETATM    8  C25 UNL     1      18.570  51.838  37.025  1.00  0.00     0.094 A 
BRANCH   4   9
HETATM    9  O4  UNL     1      21.557  52.022  34.938  1.00  0.00    -0.357 OA
ATOM     10  H4  UNL     1      22.307  51.440  34.963  1.00  0.00     0.217 HD
ENDBRANCH   4   9
BRANCH   5  11
HETATM   11  O3  UNL     1      20.166  49.952  33.696  1.00  0.00    -0.356 OA
ATOM     12  H3  UNL     1      20.199  49.003  33.693  1.00  0.00     0.218 HD
ENDBRANCH   5  11
BRANCH   6  13
HETATM   13  O2  UNL     1      17.784  49.113  34.616  1.00  0.00    -0.357 OA
ATOM     14  H2  UNL     1      18.219  48.309  34.359  1.00  0.00     0.217 HD
ENDBRANCH   6  13
BRANCH   7  15
HETATM   15  C2  UNL     1      16.588  50.442  36.938  1.00  0.00     0.055 C 
HETATM   16  C1  UNL     1      16.108  49.143  37.392  1.00  0.00     0.077 C 
BRANCH  15  17
HETATM   17  O1  UNL     1      15.708  51.389  37.096  1.00  0.00    -0.364 OA
ATOM     18  H1  UNL     1      16.095  52.256  37.088  1.00  0.00     0.217 HD
ENDBRANCH  15  17
ENDBRANCH   7  15
BRANCH   8  19
HETATM   19  O7  UNL     1      18.011  52.408  38.077  1.00  0.00    -0.359 OA
ATOM     20  H7  UNL     1      18.572  52.724  38.775  1.00  0.00     0.217 HD
ENDBRANCH   8  19
ENDBRANCH   1   3
BRANCH   2  21
HETATM   21  C10 UNL     1      19.712  55.492  35.740  1.00  0.00     0.112 C 
BRANCH  21  22
HETATM   22  C11 UNL     1      18.358  55.852  36.080  1.00  0.00    -0.152 C 
BRANCH  22  23
HETATM   23  C12 UNL     1      17.166  56.135  36.385  1.00  0.00     0.051 C 
BRANCH  23  24
HETATM   24  C13 UNL     1      16.004  55.262  36.615  1.00  0.00     0.008 C 
BRANCH  24  25
HETATM   25  C14 UNL     1      15.737  54.800  37.794  1.00  0.00     0.009 C 
BRANCH  25  26
HETATM   26  C15 UNL     1      16.036  55.552  38.984  1.00  0.00     0.055 C 
BRANCH  26  27
HETATM   27  C16 UNL     1      15.450  56.627  39.375  1.00  0.00    -0.128 C 
BRANCH  27  28
HETATM   28  C17 UNL     1      14.853  57.756  39.781  1.00  0.00     0.055 C 
HETATM   29  C18 UNL     1      13.763  58.226  39.128  1.00  0.00     0.008 C 
BRANCH  29  30
HETATM   30  C19 UNL     1      13.235  57.544  37.985  1.00  0.00     0.001 C 
HETATM   31  C20 UNL     1      12.525  58.078  37.026  1.00  0.00    -0.000 C 
BRANCH  31  32
HETATM   32  C21 UNL     1      12.155  59.463  36.996  1.00  0.00    -0.004 C 
HETATM   33  C22 UNL     1      11.045  59.940  37.491  1.00  0.00    -0.016 C 
BRANCH  33  34
HETATM   34  C23 UNL     1      10.005  59.151  38.132  1.00  0.00     0.140 C 
BRANCH  34  35
HETATM   35  C24 UNL     1       8.847  60.057  38.390  1.00  0.00     0.176 C 
HETATM   36  O5  UNL     1       8.876  61.283  38.447  1.00  0.00    -0.648 OA
HETATM   37  O6  UNL     1       7.564  59.478  38.589  1.00  0.00    -0.648 OA
ENDBRANCH  34  35
ENDBRANCH  33  34
ENDBRANCH  31  32
ENDBRANCH  29  30
ENDBRANCH  27  28
ENDBRANCH  26  27
ENDBRANCH  25  26
ENDBRANCH  24  25
ENDBRANCH  23  24
ENDBRANCH  22  23
ENDBRANCH  21  22
ENDBRANCH   2  21
TORSDOF 19
ENDMDL
