MODEL 1
REMARK VINA RESULT: -9.714028342      0.000      0.000
REMARK  10 active torsions:
REMARK  status: ('A' for Active; 'I' for Inactive)
REMARK    1  A    between atoms: N1_2  and  C2_4 
REMARK    2  A    between atoms: C3_5  and  O1_6 
REMARK    3  A    between atoms: C4_8  and  O2_9 
REMARK    4  A    between atoms: C5_11  and  O3_12 
REMARK    5  A    between atoms: C7_17  and  C8_18 
REMARK       I    between atoms: C8_18  and  N3_20 
REMARK    6  A    between atoms: N3_20  and  C9_22 
REMARK    7  A    between atoms: C9_22  and  C10_23 
REMARK    8  A    between atoms: C10_23  and  C11_24 
REMARK    9  A    between atoms: C11_24  and  C12_25 
REMARK   10  A    between atoms: C12_25  and  C13_26 
ROOT
HETATM    1  C2  UNL     1      56.577   9.544  51.647  1.00  0.00     0.077 A 
HETATM    2  C3  UNL     1      55.979   8.315  51.807  1.00  0.00     0.129 A 
HETATM    3  C4  UNL     1      54.882   8.250  52.665  1.00  0.00     0.137 A 
HETATM    4  C5  UNL     1      54.399   9.343  53.327  1.00  0.00     0.129 A 
HETATM    5  C6  UNL     1      55.004  10.567  53.159  1.00  0.00     0.082 A 
HETATM    6  N2  UNL     1      54.776  11.798  53.656  1.00  0.00    -0.349 N 
ATOM      7  H2  UNL     1      54.030  12.034  54.311  1.00  0.00     0.166 HD
HETATM    8  C7  UNL     1      55.672  12.670  53.165  1.00  0.00     0.102 A 
HETATM    9  C19 UNL     1      56.510  11.976  52.321  1.00  0.00     0.051 A 
HETATM   10  C20 UNL     1      56.099  10.660  52.312  1.00  0.00     0.025 A 
ENDROOT
BRANCH   8  11
HETATM   11  C8  UNL     1      55.758  14.097  53.463  1.00  0.00     0.268 C 
HETATM   12  O4  UNL     1      55.704  14.920  52.529  1.00  0.00    -0.266 OA
HETATM   13  N3  UNL     1      55.900  14.581  54.788  1.00  0.00    -0.356 N 
ATOM     14  H3  UNL     1      55.944  13.915  55.558  1.00  0.00     0.162 HD
BRANCH  13  15
HETATM   15  C9  UNL     1      55.983  16.000  55.076  1.00  0.00     0.123 C 
BRANCH  15  16
HETATM   16  C10 UNL     1      57.338  16.291  55.630  1.00  0.00     0.020 C 
BRANCH  16  17
HETATM   17  C11 UNL     1      58.252  16.968  54.643  1.00  0.00     0.002 C 
BRANCH  17  18
HETATM   18  C12 UNL     1      57.504  17.742  53.614  1.00  0.00     0.005 C 
BRANCH  18  19
HETATM   19  C13 UNL     1      57.520  19.227  53.778  1.00  0.00    -0.014 C 
HETATM   20  C14 UNL     1      57.082  19.907  52.527  1.00  0.00     0.004 C 
HETATM   21  C15 UNL     1      57.073  21.418  52.664  1.00  0.00     0.000 C 
HETATM   22  C16 UNL     1      58.324  21.925  53.337  1.00  0.00     0.000 C 
HETATM   23  C17 UNL     1      58.587  21.222  54.633  1.00  0.00     0.000 C 
HETATM   24  C18 UNL     1      58.845  19.747  54.292  1.00  0.00     0.004 C 
ENDBRANCH  18  19
ENDBRANCH  17  18
ENDBRANCH  16  17
ENDBRANCH  15  16
ENDBRANCH  13  15
ENDBRANCH   8  11
BRANCH   4  25
HETATM   25  O3  UNL     1      53.313   9.238  54.165  1.00  0.00    -0.356 OA
ATOM     26  H3  UNL     1      52.837  10.012  54.445  1.00  0.00     0.218 HD
ENDBRANCH   4  25
BRANCH   1  27
HETATM   27  N1  UNL     1      57.709   9.708  50.788  1.00  0.00    -0.391 N 
HETATM   28  C1  UNL     1      58.839  10.527  51.097  1.00  0.00     0.146 C 
ATOM     29  H1  UNL     1      57.710   9.209  49.897  1.00  0.00     0.159 HD
ENDBRANCH   1  27
BRANCH   3  30
HETATM   30  O2  UNL     1      54.308   6.989  52.798  1.00  0.00    -0.356 OA
ATOM     31  H2  UNL     1      53.565   6.822  52.231  1.00  0.00     0.218 HD
ENDBRANCH   3  30
BRANCH   2  32
HETATM   32  O1  UNL     1      56.470   7.208  51.134  1.00  0.00    -0.356 OA
ATOM     33  H1  UNL     1      56.329   7.118  50.198  1.00  0.00     0.218 HD
ENDBRANCH   2  32
TORSDOF 10
ENDMDL
MODEL 2
REMARK VINA RESULT: -9.668428057      1.581      1.950
REMARK  10 active torsions:
REMARK  status: ('A' for Active; 'I' for Inactive)
REMARK    1  A    between atoms: N1_2  and  C2_4 
REMARK    2  A    between atoms: C3_5  and  O1_6 
REMARK    3  A    between atoms: C4_8  and  O2_9 
REMARK    4  A    between atoms: C5_11  and  O3_12 
REMARK    5  A    between atoms: C7_17  and  C8_18 
REMARK       I    between atoms: C8_18  and  N3_20 
REMARK    6  A    between atoms: N3_20  and  C9_22 
REMARK    7  A    between atoms: C9_22  and  C10_23 
REMARK    8  A    between atoms: C10_23  and  C11_24 
REMARK    9  A    between atoms: C11_24  and  C12_25 
REMARK   10  A    between atoms: C12_25  and  C13_26 
ROOT
HETATM    1  C2  UNL     1      56.256   8.607  52.195  1.00  0.00     0.077 A 
HETATM    2  C3  UNL     1      55.249   7.689  51.998  1.00  0.00     0.129 A 
HETATM    3  C4  UNL     1      53.996   8.189  51.649  1.00  0.00     0.137 A 
HETATM    4  C5  UNL     1      53.750   9.524  51.500  1.00  0.00     0.129 A 
HETATM    5  C6  UNL     1      54.763  10.432  51.698  1.00  0.00     0.082 A 
HETATM    6  N2  UNL     1      54.840  11.776  51.632  1.00  0.00    -0.349 N 
ATOM      7  H2  UNL     1      54.064  12.394  51.397  1.00  0.00     0.166 HD
HETATM    8  C7  UNL     1      56.087  12.184  51.921  1.00  0.00     0.102 A 
HETATM    9  C19 UNL     1      56.842  11.062  52.185  1.00  0.00     0.051 A 
HETATM   10  C20 UNL     1      56.021   9.963  52.047  1.00  0.00     0.025 A 
ENDROOT
BRANCH   8  11
HETATM   11  C8  UNL     1      56.571  13.561  51.956  1.00  0.00     0.268 C 
HETATM   12  O4  UNL     1      57.214  14.007  50.987  1.00  0.00    -0.266 OA
HETATM   13  N3  UNL     1      56.330  14.414  53.062  1.00  0.00    -0.356 N 
ATOM     14  H3  UNL     1      55.804  14.058  53.860  1.00  0.00     0.162 HD
BRANCH  13  15
HETATM   15  C9  UNL     1      56.813  15.782  53.090  1.00  0.00     0.123 C 
BRANCH  15  16
HETATM   16  C10 UNL     1      57.549  15.998  54.370  1.00  0.00     0.020 C 
BRANCH  16  17
HETATM   17  C11 UNL     1      57.536  17.432  54.829  1.00  0.00     0.002 C 
BRANCH  17  18
HETATM   18  C12 UNL     1      58.732  18.188  54.364  1.00  0.00     0.005 C 
BRANCH  18  19
HETATM   19  C13 UNL     1      58.455  19.492  53.689  1.00  0.00    -0.014 C 
HETATM   20  C14 UNL     1      58.814  20.637  54.571  1.00  0.00     0.004 C 
HETATM   21  C15 UNL     1      58.558  21.979  53.910  1.00  0.00     0.000 C 
HETATM   22  C16 UNL     1      57.215  22.015  53.224  1.00  0.00     0.000 C 
HETATM   23  C17 UNL     1      57.031  20.859  52.291  1.00  0.00     0.000 C 
HETATM   24  C18 UNL     1      57.042  19.588  53.153  1.00  0.00     0.004 C 
ENDBRANCH  18  19
ENDBRANCH  17  18
ENDBRANCH  16  17
ENDBRANCH  15  16
ENDBRANCH  13  15
ENDBRANCH   8  11
BRANCH   4  25
HETATM   25  O3  UNL     1      52.497   9.977  51.154  1.00  0.00    -0.356 OA
ATOM     26  H3  UNL     1      52.375  10.545  50.401  1.00  0.00     0.218 HD
ENDBRANCH   4  25
BRANCH   1  27
HETATM   27  N1  UNL     1      57.575   8.189  52.556  1.00  0.00    -0.391 N 
HETATM   28  C1  UNL     1      58.010   7.977  53.901  1.00  0.00     0.146 C 
ATOM     29  H1  UNL     1      58.249   8.032  51.806  1.00  0.00     0.159 HD
ENDBRANCH   1  27
BRANCH   3  30
HETATM   30  O2  UNL     1      53.008   7.227  51.459  1.00  0.00    -0.356 OA
ATOM     31  H2  UNL     1      52.300   7.245  52.092  1.00  0.00     0.218 HD
ENDBRANCH   3  30
BRANCH   2  32
HETATM   32  O1  UNL     1      55.501   6.336  52.149  1.00  0.00    -0.356 OA
ATOM     33  H1  UNL     1      54.929   5.801  52.687  1.00  0.00     0.218 HD
ENDBRANCH   2  32
TORSDOF 10
ENDMDL
MODEL 3
REMARK VINA RESULT: -9.595938334      1.633      2.654
REMARK  10 active torsions:
REMARK  status: ('A' for Active; 'I' for Inactive)
REMARK    1  A    between atoms: N1_2  and  C2_4 
REMARK    2  A    between atoms: C3_5  and  O1_6 
REMARK    3  A    between atoms: C4_8  and  O2_9 
REMARK    4  A    between atoms: C5_11  and  O3_12 
REMARK    5  A    between atoms: C7_17  and  C8_18 
REMARK       I    between atoms: C8_18  and  N3_20 
REMARK    6  A    between atoms: N3_20  and  C9_22 
REMARK    7  A    between atoms: C9_22  and  C10_23 
REMARK    8  A    between atoms: C10_23  and  C11_24 
REMARK    9  A    between atoms: C11_24  and  C12_25 
REMARK   10  A    between atoms: C12_25  and  C13_26 
ROOT
HETATM    1  C2  UNL     1      54.650   8.783  51.904  1.00  0.00     0.077 A 
HETATM    2  C3  UNL     1      55.090   7.493  52.102  1.00  0.00     0.129 A 
HETATM    3  C4  UNL     1      56.428   7.327  52.453  1.00  0.00     0.137 A 
HETATM    4  C5  UNL     1      57.287   8.378  52.604  1.00  0.00     0.129 A 
HETATM    5  C6  UNL     1      56.836   9.662  52.405  1.00  0.00     0.082 A 
HETATM    6  N2  UNL     1      57.416  10.877  52.473  1.00  0.00    -0.349 N 
ATOM      7  H2  UNL     1      58.394  11.044  52.710  1.00  0.00     0.166 HD
HETATM    8  C7  UNL     1      56.521  11.835  52.182  1.00  0.00     0.102 A 
HETATM    9  C19 UNL     1      55.320  11.217  51.916  1.00  0.00     0.051 A 
HETATM   10  C20 UNL     1      55.509   9.858  52.054  1.00  0.00     0.025 A 
ENDROOT
BRANCH   8  11
HETATM   11  C8  UNL     1      56.761  13.275  52.148  1.00  0.00     0.268 C 
HETATM   12  O4  UNL     1      57.125  13.809  51.082  1.00  0.00    -0.266 OA
HETATM   13  N3  UNL     1      56.593  14.093  53.294  1.00  0.00    -0.356 N 
ATOM     14  H3  UNL     1      56.296  13.664  54.171  1.00  0.00     0.162 HD
BRANCH  13  15
HETATM   15  C9  UNL     1      56.833  15.522  53.253  1.00  0.00     0.123 C 
BRANCH  15  16
HETATM   16  C10 UNL     1      57.605  15.908  54.471  1.00  0.00     0.020 C 
BRANCH  16  17
HETATM   17  C11 UNL     1      57.513  17.376  54.793  1.00  0.00     0.002 C 
BRANCH  17  18
HETATM   18  C12 UNL     1      58.730  18.127  54.377  1.00  0.00     0.005 C 
BRANCH  18  19
HETATM   19  C13 UNL     1      58.486  19.429  53.687  1.00  0.00    -0.014 C 
HETATM   20  C14 UNL     1      58.752  20.576  54.600  1.00  0.00     0.004 C 
HETATM   21  C15 UNL     1      58.527  21.917  53.924  1.00  0.00     0.000 C 
HETATM   22  C16 UNL     1      57.244  21.933  53.131  1.00  0.00     0.000 C 
HETATM   23  C17 UNL     1      57.157  20.778  52.182  1.00  0.00     0.000 C 
HETATM   24  C18 UNL     1      57.120  19.503  53.038  1.00  0.00     0.004 C 
ENDBRANCH  18  19
ENDBRANCH  17  18
ENDBRANCH  16  17
ENDBRANCH  15  16
ENDBRANCH  13  15
ENDBRANCH   8  11
BRANCH   4  25
HETATM   25  O3  UNL     1      58.602   8.172  52.953  1.00  0.00    -0.356 OA
ATOM     26  H3  UNL     1      59.247   8.863  52.854  1.00  0.00     0.218 HD
ENDBRANCH   4  25
BRANCH   1  27
HETATM   27  N1  UNL     1      53.293   9.052  51.541  1.00  0.00    -0.391 N 
HETATM   28  C1  UNL     1      52.786   8.958  50.207  1.00  0.00     0.146 C 
ATOM     29  H1  UNL     1      52.646   9.329  52.279  1.00  0.00     0.159 HD
ENDBRANCH   1  27
BRANCH   3  30
HETATM   30  O2  UNL     1      56.830   6.008  52.643  1.00  0.00    -0.356 OA
ATOM     31  H2  UNL     1      57.442   5.871  53.356  1.00  0.00     0.218 HD
ENDBRANCH   3  30
BRANCH   2  32
HETATM   32  O1  UNL     1      54.217   6.429  51.948  1.00  0.00    -0.356 OA
ATOM     33  H1  UNL     1      53.877   5.976  52.712  1.00  0.00     0.218 HD
ENDBRANCH   2  32
TORSDOF 10
ENDMDL
MODEL 4
REMARK VINA RESULT: -9.566760245      1.765      2.298
REMARK  10 active torsions:
REMARK  status: ('A' for Active; 'I' for Inactive)
REMARK    1  A    between atoms: N1_2  and  C2_4 
REMARK    2  A    between atoms: C3_5  and  O1_6 
REMARK    3  A    between atoms: C4_8  and  O2_9 
REMARK    4  A    between atoms: C5_11  and  O3_12 
REMARK    5  A    between atoms: C7_17  and  C8_18 
REMARK       I    between atoms: C8_18  and  N3_20 
REMARK    6  A    between atoms: N3_20  and  C9_22 
REMARK    7  A    between atoms: C9_22  and  C10_23 
REMARK    8  A    between atoms: C10_23  and  C11_24 
REMARK    9  A    between atoms: C11_24  and  C12_25 
REMARK   10  A    between atoms: C12_25  and  C13_26 
ROOT
HETATM    1  C2  UNL     1      55.860   8.387  51.882  1.00  0.00     0.077 A 
HETATM    2  C3  UNL     1      56.620   7.272  52.151  1.00  0.00     0.129 A 
HETATM    3  C4  UNL     1      57.527   7.361  53.205  1.00  0.00     0.137 A 
HETATM    4  C5  UNL     1      57.675   8.493  53.955  1.00  0.00     0.129 A 
HETATM    5  C6  UNL     1      56.910   9.602  53.678  1.00  0.00     0.082 A 
HETATM    6  N2  UNL     1      56.821  10.834  54.217  1.00  0.00    -0.349 N 
ATOM      7  H2  UNL     1      57.376  11.168  55.005  1.00  0.00     0.166 HD
HETATM    8  C7  UNL     1      55.897  11.559  53.565  1.00  0.00     0.102 A 
HETATM    9  C19 UNL     1      55.370  10.766  52.570  1.00  0.00     0.051 A 
HETATM   10  C20 UNL     1      55.999   9.541  52.634  1.00  0.00     0.025 A 
ENDROOT
BRANCH   8  11
HETATM   11  C8  UNL     1      55.510  12.939  53.847  1.00  0.00     0.268 C 
HETATM   12  O4  UNL     1      54.308  13.209  54.040  1.00  0.00    -0.266 OA
HETATM   13  N3  UNL     1      56.460  13.988  53.910  1.00  0.00    -0.356 N 
ATOM     14  H3  UNL     1      57.446  13.776  53.754  1.00  0.00     0.162 HD
BRANCH  13  15
HETATM   15  C9  UNL     1      56.068  15.356  54.191  1.00  0.00     0.123 C 
BRANCH  15  16
HETATM   16  C10 UNL     1      56.983  15.905  55.235  1.00  0.00     0.020 C 
BRANCH  16  17
HETATM   17  C11 UNL     1      58.002  16.868  54.686  1.00  0.00     0.002 C 
BRANCH  17  18
HETATM   18  C12 UNL     1      57.479  17.654  53.535  1.00  0.00     0.005 C 
BRANCH  18  19
HETATM   19  C13 UNL     1      57.501  19.139  53.696  1.00  0.00    -0.014 C 
HETATM   20  C14 UNL     1      57.176  19.821  52.413  1.00  0.00     0.004 C 
HETATM   21  C15 UNL     1      57.176  21.333  52.545  1.00  0.00     0.000 C 
HETATM   22  C16 UNL     1      58.374  21.825  53.317  1.00  0.00     0.000 C 
HETATM   23  C17 UNL     1      58.521  21.122  54.632  1.00  0.00     0.000 C 
HETATM   24  C18 UNL     1      58.787  19.643  54.316  1.00  0.00     0.004 C 
ENDBRANCH  18  19
ENDBRANCH  17  18
ENDBRANCH  16  17
ENDBRANCH  15  16
ENDBRANCH  13  15
ENDBRANCH   8  11
BRANCH   4  25
HETATM   25  O3  UNL     1      58.582   8.541  54.989  1.00  0.00    -0.356 OA
ATOM     26  H3  UNL     1      58.318   8.826  55.856  1.00  0.00     0.218 HD
ENDBRANCH   4  25
BRANCH   1  27
HETATM   27  N1  UNL     1      54.902   8.390  50.819  1.00  0.00    -0.391 N 
HETATM   28  C1  UNL     1      53.554   7.934  50.953  1.00  0.00     0.146 C 
ATOM     29  H1  UNL     1      55.200   8.739  49.908  1.00  0.00     0.159 HD
ENDBRANCH   1  27
BRANCH   3  30
HETATM   30  O2  UNL     1      58.274   6.211  53.442  1.00  0.00    -0.356 OA
ATOM     31  H2  UNL     1      59.080   6.346  53.926  1.00  0.00     0.218 HD
ENDBRANCH   3  30
BRANCH   2  32
HETATM   32  O1  UNL     1      56.467   6.125  51.388  1.00  0.00    -0.356 OA
ATOM     33  H1  UNL     1      57.006   5.361  51.561  1.00  0.00     0.218 HD
ENDBRANCH   2  32
TORSDOF 10
ENDMDL
MODEL 5
REMARK VINA RESULT: -9.566212922      1.281      1.349
REMARK  10 active torsions:
REMARK  status: ('A' for Active; 'I' for Inactive)
REMARK    1  A    between atoms: N1_2  and  C2_4 
REMARK    2  A    between atoms: C3_5  and  O1_6 
REMARK    3  A    between atoms: C4_8  and  O2_9 
REMARK    4  A    between atoms: C5_11  and  O3_12 
REMARK    5  A    between atoms: C7_17  and  C8_18 
REMARK       I    between atoms: C8_18  and  N3_20 
REMARK    6  A    between atoms: N3_20  and  C9_22 
REMARK    7  A    between atoms: C9_22  and  C10_23 
REMARK    8  A    between atoms: C10_23  and  C11_24 
REMARK    9  A    between atoms: C11_24  and  C12_25 
REMARK   10  A    between atoms: C12_25  and  C13_26 
ROOT
HETATM    1  C2  UNL     1      56.064   9.285  52.005  1.00  0.00     0.077 A 
HETATM    2  C3  UNL     1      55.192   8.325  51.544  1.00  0.00     0.129 A 
HETATM    3  C4  UNL     1      53.889   8.732  51.266  1.00  0.00     0.137 A 
HETATM    4  C5  UNL     1      53.469  10.022  51.433  1.00  0.00     0.129 A 
HETATM    5  C6  UNL     1      54.349  10.973  51.894  1.00  0.00     0.082 A 
HETATM    6  N2  UNL     1      54.247  12.291  52.158  1.00  0.00    -0.349 N 
ATOM      7  H2  UNL     1      53.398  12.845  52.042  1.00  0.00     0.166 HD
HETATM    8  C7  UNL     1      55.423  12.768  52.597  1.00  0.00     0.102 A 
HETATM    9  C19 UNL     1      56.317  11.721  52.618  1.00  0.00     0.051 A 
HETATM   10  C20 UNL     1      55.653  10.595  52.179  1.00  0.00     0.025 A 
ENDROOT
BRANCH   8  11
HETATM   11  C8  UNL     1      55.717  14.144  52.987  1.00  0.00     0.268 C 
HETATM   12  O4  UNL     1      55.993  14.983  52.107  1.00  0.00    -0.266 OA
HETATM   13  N3  UNL     1      55.699  14.562  54.342  1.00  0.00    -0.356 N 
ATOM     14  H3  UNL     1      55.474  13.882  55.068  1.00  0.00     0.162 HD
BRANCH  13  15
HETATM   15  C9  UNL     1      55.991  15.930  54.722  1.00  0.00     0.123 C 
BRANCH  15  16
HETATM   16  C10 UNL     1      57.357  15.973  55.322  1.00  0.00     0.020 C 
BRANCH  16  17
HETATM   17  C11 UNL     1      58.272  16.962  54.648  1.00  0.00     0.002 C 
BRANCH  17  18
HETATM   18  C12 UNL     1      57.581  17.745  53.587  1.00  0.00     0.005 C 
BRANCH  18  19
HETATM   19  C13 UNL     1      57.561  19.226  53.780  1.00  0.00    -0.014 C 
HETATM   20  C14 UNL     1      57.083  19.918  52.550  1.00  0.00     0.004 C 
HETATM   21  C15 UNL     1      57.038  21.426  52.716  1.00  0.00     0.000 C 
HETATM   22  C16 UNL     1      58.288  21.952  53.377  1.00  0.00     0.000 C 
HETATM   23  C17 UNL     1      58.593  21.232  54.654  1.00  0.00     0.000 C 
HETATM   24  C18 UNL     1      58.882  19.771  54.280  1.00  0.00     0.004 C 
ENDBRANCH  18  19
ENDBRANCH  17  18
ENDBRANCH  16  17
ENDBRANCH  15  16
ENDBRANCH  13  15
ENDBRANCH   8  11
BRANCH   4  25
HETATM   25  O3  UNL     1      52.173  10.385  51.147  1.00  0.00    -0.356 OA
ATOM     26  H3  UNL     1      51.988  11.110  50.560  1.00  0.00     0.218 HD
ENDBRANCH   4  25
BRANCH   1  27
HETATM   27  N1  UNL     1      57.422   8.960  52.318  1.00  0.00    -0.391 N 
HETATM   28  C1  UNL     1      57.859   8.480  53.591  1.00  0.00     0.146 C 
ATOM     29  H1  UNL     1      58.123   9.079  51.585  1.00  0.00     0.159 HD
ENDBRANCH   1  27
BRANCH   3  30
HETATM   30  O2  UNL     1      53.041   7.731  50.803  1.00  0.00    -0.356 OA
ATOM     31  H2  UNL     1      52.321   8.030  50.260  1.00  0.00     0.218 HD
ENDBRANCH   3  30
BRANCH   2  32
HETATM   32  O1  UNL     1      55.621   7.018  51.376  1.00  0.00    -0.356 OA
ATOM     33  H1  UNL     1      55.543   6.596  50.528  1.00  0.00     0.218 HD
ENDBRANCH   2  32
TORSDOF 10
ENDMDL
