MODEL 1
REMARK VINA RESULT: -8.354300200      0.000      0.000
REMARK  10 active torsions:
REMARK  status: ('A' for Active; 'I' for Inactive)
REMARK    1  A    between atoms: C2_2  and  C4_4 
REMARK    2  A    between atoms: C4_4  and  C5_5 
REMARK    3  A    between atoms: C6_6  and  O1_7 
REMARK    4  A    between atoms: C7_9  and  O2_10 
REMARK    5  A    between atoms: C10_14  and  C11_15 
REMARK    6  A    between atoms: C11_15  and  O3_16 
REMARK    7  A    between atoms: C12_19  and  C14_21 
REMARK    8  A    between atoms: C14_21  and  C15_22 
REMARK    9  A    between atoms: C16_23  and  C18_25 
REMARK   10  A    between atoms: C18_25  and  C19_26 
ROOT
HETATM    1  C5  UNL     1      55.884   8.962  52.042  1.00  0.00    -0.007 A 
HETATM    2  C6  UNL     1      54.574   9.065  52.465  1.00  0.00     0.108 A 
HETATM    3  C7  UNL     1      54.009  10.309  52.802  1.00  0.00     0.129 A 
HETATM    4  C8  UNL     1      54.761  11.466  52.719  1.00  0.00     0.099 A 
HETATM    5  C9  UNL     1      56.060  11.375  52.303  1.00  0.00     0.108 A 
HETATM    6  C10 UNL     1      56.587  10.147  51.977  1.00  0.00     0.010 A 
HETATM    7  O4  UNL     1      56.815  12.515  52.217  1.00  0.00    -0.336 OA
HETATM    8  C12 UNL     1      56.385  13.834  52.366  1.00  0.00     0.083 C 
HETATM    9  C13 UNL     1      56.414  14.469  50.975  1.00  0.00     0.049 C 
HETATM   10  C20 UNL     1      55.007  13.986  52.898  1.00  0.00     0.158 C 
HETATM   11  N1  UNL     1      54.275  12.754  53.037  1.00  0.00    -0.382 N 
ATOM     12  H1  UNL     1      53.322  12.817  53.396  1.00  0.00     0.160 HD
ENDROOT
BRANCH   8  13
HETATM   13  C14 UNL     1      57.428  14.597  53.196  1.00  0.00     0.067 C 
BRANCH  13  14
HETATM   14  C15 UNL     1      56.887  15.005  54.500  1.00  0.00    -0.021 C 
HETATM   15  C16 UNL     1      57.260  16.052  55.192  1.00  0.00    -0.087 C 
HETATM   16  C17 UNL     1      56.602  16.333  56.522  1.00  0.00     0.043 C 
BRANCH  15  17
HETATM   17  C18 UNL     1      58.301  17.017  54.786  1.00  0.00     0.044 C 
BRANCH  17  18
HETATM   18  C19 UNL     1      57.651  18.359  54.418  1.00  0.00     0.090 C 
HETATM   19  S1  UNL     1      57.310  18.363  52.629  1.00  0.00    -0.097 SA
ENDBRANCH  17  18
ENDBRANCH  15  17
ENDBRANCH  13  14
ENDBRANCH   8  13
BRANCH   6  20
HETATM   20  C11 UNL     1      57.999  10.108  51.536  1.00  0.00     0.206 C 
BRANCH  20  21
HETATM   21  O3  UNL     1      58.174  10.786  50.320  1.00  0.00    -0.396 OA
ATOM     22  H3  UNL     1      58.246  11.723  50.455  1.00  0.00     0.209 HD
ENDBRANCH  20  21
ENDBRANCH   6  20
BRANCH   3  23
HETATM   23  O2  UNL     1      52.691  10.370  53.220  1.00  0.00    -0.356 OA
ATOM     24  H2  UNL     1      52.218  11.192  53.162  1.00  0.00     0.218 HD
ENDBRANCH   3  23
BRANCH   1  25
HETATM   25  C4  UNL     1      56.482   7.681  51.634  1.00  0.00     0.075 C 
BRANCH  25  26
HETATM   26  C2  UNL     1      56.910   6.775  52.689  1.00  0.00    -0.089 C 
HETATM   27  C1  UNL     1      56.450   5.520  52.704  1.00  0.00     0.014 C 
HETATM   28  C3  UNL     1      57.824   7.169  53.773  1.00  0.00     0.043 C 
ENDBRANCH  25  26
ENDBRANCH   1  25
BRANCH   2  29
HETATM   29  O1  UNL     1      53.716   7.999  52.605  1.00  0.00    -0.357 OA
ATOM     30  H1  UNL     1      52.898   8.028  53.088  1.00  0.00     0.217 HD
ENDBRANCH   2  29
TORSDOF 10
ENDMDL
MODEL 2
REMARK VINA RESULT: -7.921099885      2.625      3.973
REMARK  10 active torsions:
REMARK  status: ('A' for Active; 'I' for Inactive)
REMARK    1  A    between atoms: C2_2  and  C4_4 
REMARK    2  A    between atoms: C4_4  and  C5_5 
REMARK    3  A    between atoms: C6_6  and  O1_7 
REMARK    4  A    between atoms: C7_9  and  O2_10 
REMARK    5  A    between atoms: C10_14  and  C11_15 
REMARK    6  A    between atoms: C11_15  and  O3_16 
REMARK    7  A    between atoms: C12_19  and  C14_21 
REMARK    8  A    between atoms: C14_21  and  C15_22 
REMARK    9  A    between atoms: C16_23  and  C18_25 
REMARK   10  A    between atoms: C18_25  and  C19_26 
ROOT
HETATM    1  C5  UNL     1      54.288   7.577  50.319  1.00  0.00    -0.007 A 
HETATM    2  C6  UNL     1      55.344   6.916  50.916  1.00  0.00     0.108 A 
HETATM    3  C7  UNL     1      56.104   7.521  51.933  1.00  0.00     0.129 A 
HETATM    4  C8  UNL     1      55.812   8.802  52.361  1.00  0.00     0.099 A 
HETATM    5  C9  UNL     1      54.770   9.466  51.776  1.00  0.00     0.108 A 
HETATM    6  C10 UNL     1      54.041   8.852  50.785  1.00  0.00     0.010 A 
HETATM    7  O4  UNL     1      54.471  10.737  52.191  1.00  0.00    -0.336 OA
HETATM    8  C12 UNL     1      55.016  11.429  53.273  1.00  0.00     0.083 C 
HETATM    9  C13 UNL     1      53.925  11.504  54.344  1.00  0.00     0.049 C 
HETATM   10  C20 UNL     1      56.205  10.790  53.891  1.00  0.00     0.158 C 
HETATM   11  N1  UNL     1      56.523   9.484  53.374  1.00  0.00    -0.382 N 
ATOM     12  H1  UNL     1      57.332   9.009  53.775  1.00  0.00     0.160 HD
ENDROOT
BRANCH   8  13
HETATM   13  C14 UNL     1      55.279  12.879  52.844  1.00  0.00     0.067 C 
BRANCH  13  14
HETATM   14  C15 UNL     1      55.814  13.682  53.951  1.00  0.00    -0.021 C 
HETATM   15  C16 UNL     1      56.518  14.780  53.834  1.00  0.00    -0.087 C 
HETATM   16  C17 UNL     1      56.996  15.490  55.079  1.00  0.00     0.043 C 
BRANCH  15  17
HETATM   17  C18 UNL     1      56.907  15.413  52.558  1.00  0.00     0.044 C 
BRANCH  17  18
HETATM   18  C19 UNL     1      55.929  16.547  52.221  1.00  0.00     0.090 C 
HETATM   19  S1  UNL     1      56.814  18.133  52.368  1.00  0.00    -0.097 SA
ENDBRANCH  17  18
ENDBRANCH  15  17
ENDBRANCH  13  14
ENDBRANCH   8  13
BRANCH   6  20
HETATM   20  C11 UNL     1      52.926   9.619  50.185  1.00  0.00     0.206 C 
BRANCH  20  21
HETATM   21  O3  UNL     1      52.052  10.103  51.169  1.00  0.00    -0.396 OA
ATOM     22  H3  UNL     1      52.360   9.889  52.041  1.00  0.00     0.209 HD
ENDBRANCH  20  21
ENDBRANCH   6  20
BRANCH   3  23
HETATM   23  O2  UNL     1      57.154   6.824  52.507  1.00  0.00    -0.356 OA
ATOM     24  H2  UNL     1      58.031   6.922  52.155  1.00  0.00     0.218 HD
ENDBRANCH   3  23
BRANCH   1  25
HETATM   25  C4  UNL     1      53.445   6.949  49.290  1.00  0.00     0.075 C 
BRANCH  25  26
HETATM   26  C2  UNL     1      52.177   6.378  49.719  1.00  0.00    -0.089 C 
HETATM   27  C1  UNL     1      51.061   6.678  49.047  1.00  0.00     0.014 C 
HETATM   28  C3  UNL     1      52.043   5.485  50.881  1.00  0.00     0.043 C 
ENDBRANCH  25  26
ENDBRANCH   1  25
BRANCH   2  29
HETATM   29  O1  UNL     1      55.753   5.646  50.583  1.00  0.00    -0.357 OA
ATOM     30  H1  UNL     1      56.636   5.419  50.316  1.00  0.00     0.217 HD
ENDBRANCH   2  29
TORSDOF 10
ENDMDL
MODEL 3
REMARK VINA RESULT: -7.760113899      1.200      1.489
REMARK  10 active torsions:
REMARK  status: ('A' for Active; 'I' for Inactive)
REMARK    1  A    between atoms: C2_2  and  C4_4 
REMARK    2  A    between atoms: C4_4  and  C5_5 
REMARK    3  A    between atoms: C6_6  and  O1_7 
REMARK    4  A    between atoms: C7_9  and  O2_10 
REMARK    5  A    between atoms: C10_14  and  C11_15 
REMARK    6  A    between atoms: C11_15  and  O3_16 
REMARK    7  A    between atoms: C12_19  and  C14_21 
REMARK    8  A    between atoms: C14_21  and  C15_22 
REMARK    9  A    between atoms: C16_23  and  C18_25 
REMARK   10  A    between atoms: C18_25  and  C19_26 
ROOT
HETATM    1  C5  UNL     1      55.558   8.566  52.195  1.00  0.00    -0.007 A 
HETATM    2  C6  UNL     1      54.212   8.864  52.109  1.00  0.00     0.108 A 
HETATM    3  C7  UNL     1      53.762  10.194  52.025  1.00  0.00     0.129 A 
HETATM    4  C8  UNL     1      54.663  11.242  52.030  1.00  0.00     0.099 A 
HETATM    5  C9  UNL     1      55.997  10.958  52.118  1.00  0.00     0.108 A 
HETATM    6  C10 UNL     1      56.411   9.649  52.197  1.00  0.00     0.010 A 
HETATM    7  O4  UNL     1      56.901  11.989  52.125  1.00  0.00    -0.336 OA
HETATM    8  C12 UNL     1      56.647  13.343  51.904  1.00  0.00     0.083 C 
HETATM    9  C13 UNL     1      57.229  13.683  50.530  1.00  0.00     0.049 C 
HETATM   10  C20 UNL     1      55.211  13.717  51.886  1.00  0.00     0.158 C 
HETATM   11  N1  UNL     1      54.298  12.605  51.950  1.00  0.00    -0.382 N 
ATOM     12  H1  UNL     1      53.300  12.820  51.936  1.00  0.00     0.160 HD
ENDROOT
BRANCH   8  13
HETATM   13  C14 UNL     1      57.460  14.163  52.916  1.00  0.00     0.067 C 
BRANCH  13  14
HETATM   14  C15 UNL     1      56.621  14.637  54.025  1.00  0.00    -0.021 C 
HETATM   15  C16 UNL     1      56.871  15.670  54.790  1.00  0.00    -0.087 C 
HETATM   16  C17 UNL     1      55.902  16.027  55.893  1.00  0.00     0.043 C 
BRANCH  15  17
HETATM   17  C18 UNL     1      58.052  16.549  54.679  1.00  0.00     0.044 C 
BRANCH  17  18
HETATM   18  C19 UNL     1      57.603  17.999  54.457  1.00  0.00     0.090 C 
HETATM   19  S1  UNL     1      57.146  18.199  52.704  1.00  0.00    -0.097 SA
ENDBRANCH  17  18
ENDBRANCH  15  17
ENDBRANCH  13  14
ENDBRANCH   8  13
BRANCH   6  20
HETATM   20  C11 UNL     1      57.868   9.401  52.293  1.00  0.00     0.206 C 
BRANCH  20  21
HETATM   21  O3  UNL     1      58.338   9.622  53.596  1.00  0.00    -0.396 OA
ATOM     22  H3  UNL     1      58.044   8.942  54.190  1.00  0.00     0.209 HD
ENDBRANCH  20  21
ENDBRANCH   6  20
BRANCH   3  23
HETATM   23  O2  UNL     1      52.404  10.451  51.937  1.00  0.00    -0.356 OA
ATOM     24  H2  UNL     1      52.078  11.321  52.133  1.00  0.00     0.218 HD
ENDBRANCH   3  23
BRANCH   1  25
HETATM   25  C4  UNL     1      56.058   7.183  52.232  1.00  0.00     0.075 C 
BRANCH  25  26
HETATM   26  C2  UNL     1      55.556   6.262  51.223  1.00  0.00    -0.089 C 
HETATM   27  C1  UNL     1      55.559   6.630  49.938  1.00  0.00     0.014 C 
HETATM   28  C3  UNL     1      55.021   4.928  51.539  1.00  0.00     0.043 C 
ENDBRANCH  25  26
ENDBRANCH   1  25
BRANCH   2  29
HETATM   29  O1  UNL     1      53.207   7.925  52.104  1.00  0.00    -0.357 OA
ATOM     30  H1  UNL     1      53.187   7.163  51.538  1.00  0.00     0.217 HD
ENDBRANCH   2  29
TORSDOF 10
ENDMDL
MODEL 4
REMARK VINA RESULT: -7.620526763      3.255      8.187
REMARK  10 active torsions:
REMARK  status: ('A' for Active; 'I' for Inactive)
REMARK    1  A    between atoms: C2_2  and  C4_4 
REMARK    2  A    between atoms: C4_4  and  C5_5 
REMARK    3  A    between atoms: C6_6  and  O1_7 
REMARK    4  A    between atoms: C7_9  and  O2_10 
REMARK    5  A    between atoms: C10_14  and  C11_15 
REMARK    6  A    between atoms: C11_15  and  O3_16 
REMARK    7  A    between atoms: C12_19  and  C14_21 
REMARK    8  A    between atoms: C14_21  and  C15_22 
REMARK    9  A    between atoms: C16_23  and  C18_25 
REMARK   10  A    between atoms: C18_25  and  C19_26 
ROOT
HETATM    1  C5  UNL     1      57.039  17.742  53.958  1.00  0.00    -0.007 A 
HETATM    2  C6  UNL     1      56.648  18.052  52.670  1.00  0.00     0.108 A 
HETATM    3  C7  UNL     1      56.043  17.092  51.838  1.00  0.00     0.129 A 
HETATM    4  C8  UNL     1      55.827  15.806  52.294  1.00  0.00     0.099 A 
HETATM    5  C9  UNL     1      56.212  15.487  53.566  1.00  0.00     0.108 A 
HETATM    6  C10 UNL     1      56.799  16.444  54.359  1.00  0.00     0.010 A 
HETATM    7  O4  UNL     1      56.003  14.214  54.029  1.00  0.00    -0.336 OA
HETATM    8  C12 UNL     1      55.293  13.188  53.404  1.00  0.00     0.083 C 
HETATM    9  C13 UNL     1      53.994  13.007  54.192  1.00  0.00     0.049 C 
HETATM   10  C20 UNL     1      54.925  13.451  51.990  1.00  0.00     0.158 C 
HETATM   11  N1  UNL     1      55.227  14.781  51.527  1.00  0.00    -0.382 N 
ATOM     12  H1  UNL     1      54.986  15.004  50.560  1.00  0.00     0.160 HD
ENDROOT
BRANCH   8  13
HETATM   13  C14 UNL     1      56.074  11.877  53.578  1.00  0.00     0.067 C 
BRANCH  13  14
HETATM   14  C15 UNL     1      57.043  11.677  52.493  1.00  0.00    -0.021 C 
HETATM   15  C16 UNL     1      57.683  10.565  52.230  1.00  0.00    -0.087 C 
HETATM   16  C17 UNL     1      58.651  10.524  51.071  1.00  0.00     0.043 C 
BRANCH  15  17
HETATM   17  C18 UNL     1      57.547   9.304  52.985  1.00  0.00     0.044 C 
BRANCH  17  18
HETATM   18  C19 UNL     1      56.868   8.243  52.107  1.00  0.00     0.090 C 
HETATM   19  S1  UNL     1      55.068   8.351  52.362  1.00  0.00    -0.097 SA
ENDBRANCH  17  18
ENDBRANCH  15  17
ENDBRANCH  13  14
ENDBRANCH   8  13
BRANCH   6  20
HETATM   20  C11 UNL     1      57.199  16.043  55.727  1.00  0.00     0.206 C 
BRANCH  20  21
HETATM   21  O3  UNL     1      56.109  16.081  56.610  1.00  0.00    -0.396 OA
ATOM     22  H3  UNL     1      55.721  15.221  56.717  1.00  0.00     0.209 HD
ENDBRANCH  20  21
ENDBRANCH   6  20
BRANCH   3  23
HETATM   23  O2  UNL     1      55.663  17.444  50.554  1.00  0.00    -0.356 OA
ATOM     24  H2  UNL     1      56.180  17.148  49.815  1.00  0.00     0.218 HD
ENDBRANCH   3  23
BRANCH   1  25
HETATM   25  C4  UNL     1      57.626  18.740  54.865  1.00  0.00     0.075 C 
BRANCH  25  26
HETATM   26  C2  UNL     1      58.919  19.299  54.501  1.00  0.00    -0.089 C 
HETATM   27  C1  UNL     1      59.956  18.479  54.300  1.00  0.00     0.014 C 
HETATM   28  C3  UNL     1      59.165  20.742  54.354  1.00  0.00     0.043 C 
ENDBRANCH  25  26
ENDBRANCH   1  25
BRANCH   2  29
HETATM   29  O1  UNL     1      56.811  19.286  52.084  1.00  0.00    -0.357 OA
ATOM     30  H1  UNL     1      56.877  19.431  51.148  1.00  0.00     0.217 HD
ENDBRANCH   2  29
TORSDOF 10
ENDMDL
MODEL 5
REMARK VINA RESULT: -7.486902645      3.054      4.515
REMARK  10 active torsions:
REMARK  status: ('A' for Active; 'I' for Inactive)
REMARK    1  A    between atoms: C2_2  and  C4_4 
REMARK    2  A    between atoms: C4_4  and  C5_5 
REMARK    3  A    between atoms: C6_6  and  O1_7 
REMARK    4  A    between atoms: C7_9  and  O2_10 
REMARK    5  A    between atoms: C10_14  and  C11_15 
REMARK    6  A    between atoms: C11_15  and  O3_16 
REMARK    7  A    between atoms: C12_19  and  C14_21 
REMARK    8  A    between atoms: C14_21  and  C15_22 
REMARK    9  A    between atoms: C16_23  and  C18_25 
REMARK   10  A    between atoms: C18_25  and  C19_26 
ROOT
HETATM    1  C5  UNL     1      53.898   6.904  50.029  1.00  0.00    -0.007 A 
HETATM    2  C6  UNL     1      54.867   6.008  50.435  1.00  0.00     0.108 A 
HETATM    3  C7  UNL     1      55.860   6.374  51.362  1.00  0.00     0.129 A 
HETATM    4  C8  UNL     1      55.891   7.650  51.889  1.00  0.00     0.099 A 
HETATM    5  C9  UNL     1      54.939   8.547  51.493  1.00  0.00     0.108 A 
HETATM    6  C10 UNL     1      53.977   8.163  50.588  1.00  0.00     0.010 A 
HETATM    7  O4  UNL     1      54.959   9.816  52.009  1.00  0.00    -0.336 OA
HETATM    8  C12 UNL     1      55.769  10.304  53.035  1.00  0.00     0.083 C 
HETATM    9  C13 UNL     1      54.865  10.506  54.253  1.00  0.00     0.049 C 
HETATM   10  C20 UNL     1      56.875   9.401  53.444  1.00  0.00     0.158 C 
HETATM   11  N1  UNL     1      56.851   8.101  52.823  1.00  0.00    -0.382 N 
ATOM     12  H1  UNL     1      57.593   7.449  53.081  1.00  0.00     0.160 HD
ENDROOT
BRANCH   8  13
HETATM   13  C14 UNL     1      56.262  11.704  52.645  1.00  0.00     0.067 C 
BRANCH  13  14
HETATM   14  C15 UNL     1      56.089  12.664  53.743  1.00  0.00    -0.021 C 
HETATM   15  C16 UNL     1      56.390  13.938  53.705  1.00  0.00    -0.087 C 
HETATM   16  C17 UNL     1      56.148  14.793  54.926  1.00  0.00     0.043 C 
BRANCH  15  17
HETATM   17  C18 UNL     1      56.966  14.644  52.543  1.00  0.00     0.044 C 
BRANCH  17  18
HETATM   18  C19 UNL     1      55.871  15.447  51.827  1.00  0.00     0.090 C 
HETATM   19  S1  UNL     1      56.144  17.217  52.159  1.00  0.00    -0.097 SA
ENDBRANCH  17  18
ENDBRANCH  15  17
ENDBRANCH  13  14
ENDBRANCH   8  13
BRANCH   6  20
HETATM   20  C11 UNL     1      52.972   9.176  50.192  1.00  0.00     0.206 C 
BRANCH  20  21
HETATM   21  O3  UNL     1      53.583  10.379  49.809  1.00  0.00    -0.396 OA
ATOM     22  H3  UNL     1      53.502  11.039  50.488  1.00  0.00     0.209 HD
ENDBRANCH  20  21
ENDBRANCH   6  20
BRANCH   3  23
HETATM   23  O2  UNL     1      56.813   5.444  51.744  1.00  0.00    -0.356 OA
ATOM     24  H2  UNL     1      57.213   5.509  52.603  1.00  0.00     0.218 HD
ENDBRANCH   3  23
BRANCH   1  25
HETATM   25  C4  UNL     1      52.818   6.532  49.102  1.00  0.00     0.075 C 
BRANCH  25  26
HETATM   26  C2  UNL     1      51.552   6.112  49.682  1.00  0.00    -0.089 C 
HETATM   27  C1  UNL     1      50.412   6.634  49.219  1.00  0.00     0.014 C 
HETATM   28  C3  UNL     1      51.448   5.139  50.781  1.00  0.00     0.043 C 
ENDBRANCH  25  26
ENDBRANCH   1  25
BRANCH   2  29
HETATM   29  O1  UNL     1      54.964   4.711  49.985  1.00  0.00    -0.357 OA
ATOM     30  H1  UNL     1      55.568   4.066  50.332  1.00  0.00     0.217 HD
ENDBRANCH   2  29
TORSDOF 10
ENDMDL
