MODEL 1
REMARK VINA RESULT: -9.344246232      0.000      0.000
REMARK  11 active torsions:
REMARK  status: ('A' for Active; 'I' for Inactive)
REMARK    1  A    between atoms: O1_1  and  C1_3 
REMARK    2  A    between atoms: C2_6  and  O2_7 
REMARK    3  A    between atoms: C4_10  and  N2_11 
REMARK    4  A    between atoms: N2_11  and  C5_13 
REMARK    5  A    between atoms: C5_13  and  C6_14 
REMARK    6  A    between atoms: C6_14  and  C7_15 
REMARK    7  A    between atoms: C7_15  and  C8_16 
REMARK    8  A    between atoms: C8_16  and  C9_17 
REMARK    9  A    between atoms: C9_17  and  C10_18 
REMARK   10  A    between atoms: C10_18  and  C11_19 
REMARK   11  A    between atoms: C11_19  and  O3_20 
ROOT
HETATM    1  N2  UNL     1      57.189   9.669  51.252  1.00  0.00    -0.374 N 
ATOM      2  H2  UNL     1      56.908   9.023  50.515  1.00  0.00     0.161 HD
ENDROOT
BRANCH   1   3
HETATM    3  C4  UNL     1      56.405   9.713  52.233  1.00  0.00     0.139 A 
HETATM    4  C3  UNL     1      55.082  10.052  52.288  1.00  0.00     0.100 A 
HETATM    5  C2  UNL     1      53.942  10.463  51.625  1.00  0.00     0.159 A 
HETATM    6  C19 UNL     1      54.698   9.930  53.626  1.00  0.00     0.167 A 
HETATM    7  N1  UNL     1      52.933  10.580  52.515  1.00  0.00    -0.315 N 
HETATM    8  C1  UNL     1      53.365  10.261  53.743  1.00  0.00     0.180 A 
ATOM      9  H1  UNL     1      51.981  10.869  52.286  1.00  0.00     0.170 HD
HETATM   10  O4  UNL     1      55.745   9.545  54.276  1.00  0.00    -0.231 OA
HETATM   11  N3  UNL     1      56.771   9.405  53.500  1.00  0.00    -0.244 N 
ATOM     12  H3  UNL     1      57.702   9.112  53.794  1.00  0.00     0.196 HD
BRANCH   5  13
HETATM   13  O2  UNL     1      53.880  10.706  50.268  1.00  0.00    -0.345 OA
ATOM     14  H2  UNL     1      54.614  10.792  49.671  1.00  0.00     0.219 HD
ENDBRANCH   5  13
BRANCH   8  15
HETATM   15  O1  UNL     1      52.625  10.256  54.932  1.00  0.00    -0.344 OA
ATOM     16  H1  UNL     1      52.781  10.776  55.713  1.00  0.00     0.219 HD
ENDBRANCH   8  15
ENDBRANCH   1   3
BRANCH   1  17
HETATM   17  C5  UNL     1      58.404  10.367  50.993  1.00  0.00     0.121 C 
BRANCH  17  18
HETATM   18  C6  UNL     1      58.284  11.797  51.529  1.00  0.00     0.020 C 
BRANCH  18  19
HETATM   19  C7  UNL     1      57.346  12.538  50.592  1.00  0.00     0.002 C 
BRANCH  19  20
HETATM   20  C8  UNL     1      57.169  13.953  51.035  1.00  0.00     0.000 C 
BRANCH  20  21
HETATM   21  C9  UNL     1      57.262  14.137  52.534  1.00  0.00     0.003 C 
BRANCH  21  22
HETATM   22  C10 UNL     1      56.009  14.792  53.007  1.00  0.00     0.038 C 
BRANCH  22  23
HETATM   23  C11 UNL     1      56.217  15.909  54.002  1.00  0.00     0.058 C 
HETATM   24  C12 UNL     1      55.807  17.242  53.416  1.00  0.00     0.038 C 
HETATM   25  C13 UNL     1      56.538  17.631  52.191  1.00  0.00     0.003 C 
HETATM   26  C14 UNL     1      57.387  18.852  52.279  1.00  0.00     0.000 C 
HETATM   27  C15 UNL     1      58.037  19.085  53.609  1.00  0.00     0.000 C 
HETATM   28  C16 UNL     1      58.926  17.931  54.029  1.00  0.00     0.000 C 
HETATM   29  C17 UNL     1      58.159  17.128  55.056  1.00  0.00     0.003 C 
HETATM   30  C18 UNL     1      57.674  15.884  54.393  1.00  0.00     0.038 C 
BRANCH  23  31
HETATM   31  O3  UNL     1      55.373  15.695  55.103  1.00  0.00    -0.390 OA
ATOM     32  H3  UNL     1      54.651  16.311  55.058  1.00  0.00     0.210 HD
ENDBRANCH  23  31
ENDBRANCH  22  23
ENDBRANCH  21  22
ENDBRANCH  20  21
ENDBRANCH  19  20
ENDBRANCH  18  19
ENDBRANCH  17  18
ENDBRANCH   1  17
TORSDOF 11
ENDMDL
MODEL 2
REMARK VINA RESULT: -9.130842871      1.444      1.681
REMARK  11 active torsions:
REMARK  status: ('A' for Active; 'I' for Inactive)
REMARK    1  A    between atoms: O1_1  and  C1_3 
REMARK    2  A    between atoms: C2_6  and  O2_7 
REMARK    3  A    between atoms: C4_10  and  N2_11 
REMARK    4  A    between atoms: N2_11  and  C5_13 
REMARK    5  A    between atoms: C5_13  and  C6_14 
REMARK    6  A    between atoms: C6_14  and  C7_15 
REMARK    7  A    between atoms: C7_15  and  C8_16 
REMARK    8  A    between atoms: C8_16  and  C9_17 
REMARK    9  A    between atoms: C9_17  and  C10_18 
REMARK   10  A    between atoms: C10_18  and  C11_19 
REMARK   11  A    between atoms: C11_19  and  O3_20 
ROOT
HETATM    1  N2  UNL     1      57.045  10.116  53.607  1.00  0.00    -0.374 N 
ATOM      2  H2  UNL     1      57.353   9.988  54.571  1.00  0.00     0.161 HD
ENDROOT
BRANCH   1   3
HETATM    3  C4  UNL     1      55.882  10.579  53.491  1.00  0.00     0.139 A 
HETATM    4  C3  UNL     1      54.871  10.218  52.645  1.00  0.00     0.100 A 
HETATM    5  C2  UNL     1      54.422   9.400  51.628  1.00  0.00     0.159 A 
HETATM    6  C19 UNL     1      53.793  11.057  52.937  1.00  0.00     0.167 A 
HETATM    7  N1  UNL     1      53.147   9.730  51.327  1.00  0.00    -0.315 N 
HETATM    8  C1  UNL     1      52.737  10.737  52.110  1.00  0.00     0.180 A 
ATOM      9  H1  UNL     1      52.579   9.279  50.609  1.00  0.00     0.170 HD
HETATM   10  O4  UNL     1      54.181  11.838  53.889  1.00  0.00    -0.231 OA
HETATM   11  N3  UNL     1      55.401  11.595  54.246  1.00  0.00    -0.244 N 
ATOM     12  H3  UNL     1      55.915  12.087  54.976  1.00  0.00     0.196 HD
BRANCH   5  13
HETATM   13  O2  UNL     1      55.182   8.412  51.034  1.00  0.00    -0.345 OA
ATOM     14  H2  UNL     1      54.937   7.501  50.914  1.00  0.00     0.219 HD
ENDBRANCH   5  13
BRANCH   8  15
HETATM   15  O1  UNL     1      51.484  11.363  52.109  1.00  0.00    -0.344 OA
ATOM     16  H1  UNL     1      50.792  11.273  52.754  1.00  0.00     0.219 HD
ENDBRANCH   8  15
ENDBRANCH   1   3
BRANCH   1  17
HETATM   17  C5  UNL     1      58.007   9.740  52.626  1.00  0.00     0.121 C 
BRANCH  17  18
HETATM   18  C6  UNL     1      58.584  11.005  51.982  1.00  0.00     0.020 C 
BRANCH  18  19
HETATM   19  C7  UNL     1      57.877  11.180  50.649  1.00  0.00     0.002 C 
BRANCH  19  20
HETATM   20  C8  UNL     1      57.231  12.523  50.569  1.00  0.00     0.000 C 
BRANCH  20  21
HETATM   21  C9  UNL     1      57.485  13.394  51.780  1.00  0.00     0.003 C 
BRANCH  21  22
HETATM   22  C10 UNL     1      56.639  14.616  51.667  1.00  0.00     0.038 C 
BRANCH  22  23
HETATM   23  C11 UNL     1      56.319  15.286  52.982  1.00  0.00     0.058 C 
HETATM   24  C12 UNL     1      55.876  16.717  52.769  1.00  0.00     0.038 C 
HETATM   25  C13 UNL     1      56.870  17.578  52.092  1.00  0.00     0.003 C 
HETATM   26  C14 UNL     1      57.411  18.720  52.880  1.00  0.00     0.000 C 
HETATM   27  C15 UNL     1      57.559  18.471  54.351  1.00  0.00     0.000 C 
HETATM   28  C16 UNL     1      58.467  17.294  54.650  1.00  0.00     0.000 C 
HETATM   29  C17 UNL     1      57.578  16.123  55.003  1.00  0.00     0.003 C 
HETATM   30  C18 UNL     1      57.559  15.195  53.836  1.00  0.00     0.038 C 
BRANCH  23  31
HETATM   31  O3  UNL     1      55.226  14.627  53.569  1.00  0.00    -0.390 OA
ATOM     32  H3  UNL     1      54.760  15.243  54.122  1.00  0.00     0.210 HD
ENDBRANCH  23  31
ENDBRANCH  22  23
ENDBRANCH  21  22
ENDBRANCH  20  21
ENDBRANCH  19  20
ENDBRANCH  18  19
ENDBRANCH  17  18
ENDBRANCH   1  17
TORSDOF 11
ENDMDL
MODEL 3
REMARK VINA RESULT: -9.054795617      1.303      1.927
REMARK  11 active torsions:
REMARK  status: ('A' for Active; 'I' for Inactive)
REMARK    1  A    between atoms: O1_1  and  C1_3 
REMARK    2  A    between atoms: C2_6  and  O2_7 
REMARK    3  A    between atoms: C4_10  and  N2_11 
REMARK    4  A    between atoms: N2_11  and  C5_13 
REMARK    5  A    between atoms: C5_13  and  C6_14 
REMARK    6  A    between atoms: C6_14  and  C7_15 
REMARK    7  A    between atoms: C7_15  and  C8_16 
REMARK    8  A    between atoms: C8_16  and  C9_17 
REMARK    9  A    between atoms: C9_17  and  C10_18 
REMARK   10  A    between atoms: C10_18  and  C11_19 
REMARK   11  A    between atoms: C11_19  and  O3_20 
ROOT
HETATM    1  N2  UNL     1      56.818   8.850  51.934  1.00  0.00    -0.374 N 
ATOM      2  H2  UNL     1      56.954   7.848  51.807  1.00  0.00     0.161 HD
ENDROOT
BRANCH   1   3
HETATM    3  C4  UNL     1      55.629   9.235  51.797  1.00  0.00     0.139 A 
HETATM    4  C3  UNL     1      54.925  10.182  52.485  1.00  0.00     0.100 A 
HETATM    5  C2  UNL     1      54.897  11.134  53.486  1.00  0.00     0.159 A 
HETATM    6  C19 UNL     1      53.646  10.209  51.925  1.00  0.00     0.167 A 
HETATM    7  N1  UNL     1      53.670  11.698  53.524  1.00  0.00    -0.315 N 
HETATM    8  C1  UNL     1      52.886  11.154  52.583  1.00  0.00     0.180 A 
ATOM      9  H1  UNL     1      53.383  12.430  54.173  1.00  0.00     0.170 HD
HETATM   10  O4  UNL     1      53.638   9.329  50.981  1.00  0.00    -0.231 OA
HETATM   11  N3  UNL     1      54.781   8.731  50.870  1.00  0.00    -0.244 N 
ATOM     12  H3  UNL     1      55.005   8.000  50.195  1.00  0.00     0.196 HD
BRANCH   5  13
HETATM   13  O2  UNL     1      55.970  11.434  54.301  1.00  0.00    -0.345 OA
ATOM     14  H2  UNL     1      56.540  12.192  54.235  1.00  0.00     0.219 HD
ENDBRANCH   5  13
BRANCH   8  15
HETATM   15  O1  UNL     1      51.551  11.466  52.301  1.00  0.00    -0.344 OA
ATOM     16  H1  UNL     1      51.007  11.110  51.607  1.00  0.00     0.219 HD
ENDBRANCH   8  15
ENDBRANCH   1   3
BRANCH   1  17
HETATM   17  C5  UNL     1      58.008   9.573  52.235  1.00  0.00     0.121 C 
BRANCH  17  18
HETATM   18  C6  UNL     1      58.398  10.422  51.021  1.00  0.00     0.020 C 
BRANCH  18  19
HETATM   19  C7  UNL     1      58.296  11.875  51.451  1.00  0.00     0.002 C 
BRANCH  19  20
HETATM   20  C8  UNL     1      57.262  12.590  50.645  1.00  0.00     0.000 C 
BRANCH  20  21
HETATM   21  C9  UNL     1      56.427  13.560  51.451  1.00  0.00     0.003 C 
BRANCH  21  22
HETATM   22  C10 UNL     1      57.282  14.140  52.526  1.00  0.00     0.038 C 
BRANCH  22  23
HETATM   23  C11 UNL     1      56.581  15.125  53.430  1.00  0.00     0.058 C 
HETATM   24  C12 UNL     1      55.969  16.255  52.630  1.00  0.00     0.038 C 
HETATM   25  C13 UNL     1      56.933  17.037  51.827  1.00  0.00     0.003 C 
HETATM   26  C14 UNL     1      57.098  18.471  52.192  1.00  0.00     0.000 C 
HETATM   27  C15 UNL     1      56.962  18.780  53.652  1.00  0.00     0.000 C 
HETATM   28  C16 UNL     1      57.962  18.018  54.501  1.00  0.00     0.000 C 
HETATM   29  C17 UNL     1      57.218  16.867  55.140  1.00  0.00     0.003 C 
HETATM   30  C18 UNL     1      57.604  15.619  54.421  1.00  0.00     0.038 C 
BRANCH  23  31
HETATM   31  O3  UNL     1      55.508  14.474  54.060  1.00  0.00    -0.390 OA
ATOM     32  H3  UNL     1      55.847  13.741  54.560  1.00  0.00     0.210 HD
ENDBRANCH  23  31
ENDBRANCH  22  23
ENDBRANCH  21  22
ENDBRANCH  20  21
ENDBRANCH  19  20
ENDBRANCH  18  19
ENDBRANCH  17  18
ENDBRANCH   1  17
TORSDOF 11
ENDMDL
MODEL 4
REMARK VINA RESULT: -8.878782281      2.544      3.204
REMARK  11 active torsions:
REMARK  status: ('A' for Active; 'I' for Inactive)
REMARK    1  A    between atoms: O1_1  and  C1_3 
REMARK    2  A    between atoms: C2_6  and  O2_7 
REMARK    3  A    between atoms: C4_10  and  N2_11 
REMARK    4  A    between atoms: N2_11  and  C5_13 
REMARK    5  A    between atoms: C5_13  and  C6_14 
REMARK    6  A    between atoms: C6_14  and  C7_15 
REMARK    7  A    between atoms: C7_15  and  C8_16 
REMARK    8  A    between atoms: C8_16  and  C9_17 
REMARK    9  A    between atoms: C9_17  and  C10_18 
REMARK   10  A    between atoms: C10_18  and  C11_19 
REMARK   11  A    between atoms: C11_19  and  O3_20 
ROOT
HETATM    1  N2  UNL     1      56.837   8.913  51.185  1.00  0.00    -0.374 N 
ATOM      2  H2  UNL     1      56.866   9.333  50.256  1.00  0.00     0.161 HD
ENDROOT
BRANCH   1   3
HETATM    3  C4  UNL     1      56.012   7.973  51.305  1.00  0.00     0.139 A 
HETATM    4  C3  UNL     1      54.679   7.928  51.007  1.00  0.00     0.100 A 
HETATM    5  C2  UNL     1      53.556   8.574  50.528  1.00  0.00     0.159 A 
HETATM    6  C19 UNL     1      54.244   6.641  51.333  1.00  0.00     0.167 A 
HETATM    7  N1  UNL     1      52.508   7.723  50.566  1.00  0.00    -0.315 N 
HETATM    8  C1  UNL     1      52.898   6.536  51.052  1.00  0.00     0.180 A 
ATOM      9  H1  UNL     1      51.559   7.949  50.268  1.00  0.00     0.170 HD
HETATM   10  O4  UNL     1      55.274   6.007  51.785  1.00  0.00    -0.231 OA
HETATM   11  N3  UNL     1      56.334   6.750  51.788  1.00  0.00    -0.244 N 
ATOM     12  H3  UNL     1      57.260   6.461  52.102  1.00  0.00     0.196 HD
BRANCH   5  13
HETATM   13  O2  UNL     1      53.542   9.883  50.090  1.00  0.00    -0.345 OA
ATOM     14  H2  UNL     1      54.294  10.407  49.838  1.00  0.00     0.219 HD
ENDBRANCH   5  13
BRANCH   8  15
HETATM   15  O1  UNL     1      52.111   5.394  51.247  1.00  0.00    -0.344 OA
ATOM     16  H1  UNL     1      52.062   4.851  52.025  1.00  0.00     0.219 HD
ENDBRANCH   8  15
ENDBRANCH   1   3
BRANCH   1  17
HETATM   17  C5  UNL     1      57.739   9.494  52.123  1.00  0.00     0.121 C 
BRANCH  17  18
HETATM   18  C6  UNL     1      57.365  10.965  52.331  1.00  0.00     0.020 C 
BRANCH  18  19
HETATM   19  C7  UNL     1      56.272  10.995  53.385  1.00  0.00     0.002 C 
BRANCH  19  20
HETATM   20  C8  UNL     1      55.070  11.718  52.876  1.00  0.00     0.000 C 
BRANCH  20  21
HETATM   21  C9  UNL     1      55.350  12.591  51.672  1.00  0.00     0.003 C 
BRANCH  21  22
HETATM   22  C10 UNL     1      55.111  14.012  52.055  1.00  0.00     0.038 C 
BRANCH  22  23
HETATM   23  C11 UNL     1      56.326  14.903  51.964  1.00  0.00     0.058 C 
HETATM   24  C12 UNL     1      57.276  14.645  53.113  1.00  0.00     0.038 C 
HETATM   25  C13 UNL     1      56.697  14.864  54.456  1.00  0.00     0.003 C 
HETATM   26  C14 UNL     1      57.296  15.955  55.273  1.00  0.00     0.000 C 
HETATM   27  C15 UNL     1      57.783  17.142  54.498  1.00  0.00     0.000 C 
HETATM   28  C16 UNL     1      56.681  17.792  53.683  1.00  0.00     0.000 C 
HETATM   29  C17 UNL     1      56.868  17.351  52.249  1.00  0.00     0.003 C 
HETATM   30  C18 UNL     1      55.828  16.327  51.947  1.00  0.00     0.038 C 
BRANCH  23  31
HETATM   31  O3  UNL     1      57.037  14.580  50.796  1.00  0.00    -0.390 OA
ATOM     32  H3  UNL     1      57.917  14.928  50.869  1.00  0.00     0.210 HD
ENDBRANCH  23  31
ENDBRANCH  22  23
ENDBRANCH  21  22
ENDBRANCH  20  21
ENDBRANCH  19  20
ENDBRANCH  18  19
ENDBRANCH  17  18
ENDBRANCH   1  17
TORSDOF 11
ENDMDL
MODEL 5
REMARK VINA RESULT: -8.775100192      3.182      4.562
REMARK  11 active torsions:
REMARK  status: ('A' for Active; 'I' for Inactive)
REMARK    1  A    between atoms: O1_1  and  C1_3 
REMARK    2  A    between atoms: C2_6  and  O2_7 
REMARK    3  A    between atoms: C4_10  and  N2_11 
REMARK    4  A    between atoms: N2_11  and  C5_13 
REMARK    5  A    between atoms: C5_13  and  C6_14 
REMARK    6  A    between atoms: C6_14  and  C7_15 
REMARK    7  A    between atoms: C7_15  and  C8_16 
REMARK    8  A    between atoms: C8_16  and  C9_17 
REMARK    9  A    between atoms: C9_17  and  C10_18 
REMARK   10  A    between atoms: C10_18  and  C11_19 
REMARK   11  A    between atoms: C11_19  and  O3_20 
ROOT
HETATM    1  N2  UNL     1      58.355   8.958  52.760  1.00  0.00    -0.374 N 
ATOM      2  H2  UNL     1      59.100   9.450  53.253  1.00  0.00     0.161 HD
ENDROOT
BRANCH   1   3
HETATM    3  C4  UNL     1      58.079   7.827  53.232  1.00  0.00     0.139 A 
HETATM    4  C3  UNL     1      58.573   7.188  54.334  1.00  0.00     0.100 A 
HETATM    5  C2  UNL     1      59.425   7.202  55.421  1.00  0.00     0.159 A 
HETATM    6  C19 UNL     1      57.923   5.954  54.400  1.00  0.00     0.167 A 
HETATM    7  N1  UNL     1      59.293   6.041  56.100  1.00  0.00    -0.315 N 
HETATM    8  C1  UNL     1      58.383   5.261  55.500  1.00  0.00     0.180 A 
ATOM      9  H1  UNL     1      59.810   5.795  56.944  1.00  0.00     0.170 HD
HETATM   10  O4  UNL     1      57.115   5.908  53.395  1.00  0.00    -0.231 OA
HETATM   11  N3  UNL     1      57.173   6.986  52.680  1.00  0.00    -0.244 N 
ATOM     12  H3  UNL     1      56.626   7.170  51.840  1.00  0.00     0.196 HD
BRANCH   5  13
HETATM   13  O2  UNL     1      60.266   8.251  55.735  1.00  0.00    -0.345 OA
ATOM     14  H2  UNL     1      60.117   9.172  55.554  1.00  0.00     0.219 HD
ENDBRANCH   5  13
BRANCH   8  15
HETATM   15  O1  UNL     1      57.963   3.984  55.894  1.00  0.00    -0.344 OA
ATOM     16  H1  UNL     1      57.076   3.645  55.905  1.00  0.00     0.219 HD
ENDBRANCH   8  15
ENDBRANCH   1   3
BRANCH   1  17
HETATM   17  C5  UNL     1      57.807   9.672  51.656  1.00  0.00     0.121 C 
BRANCH  17  18
HETATM   18  C6  UNL     1      57.504  11.110  52.090  1.00  0.00     0.020 C 
BRANCH  18  19
HETATM   19  C7  UNL     1      56.478  11.023  53.206  1.00  0.00     0.002 C 
BRANCH  19  20
HETATM   20  C8  UNL     1      55.206  11.692  52.805  1.00  0.00     0.000 C 
BRANCH  20  21
HETATM   21  C9  UNL     1      55.356  12.626  51.623  1.00  0.00     0.003 C 
BRANCH  21  22
HETATM   22  C10 UNL     1      55.150  14.024  52.098  1.00  0.00     0.038 C 
BRANCH  22  23
HETATM   23  C11 UNL     1      56.365  14.913  51.990  1.00  0.00     0.058 C 
HETATM   24  C12 UNL     1      57.312  14.684  53.148  1.00  0.00     0.038 C 
HETATM   25  C13 UNL     1      56.727  14.934  54.483  1.00  0.00     0.003 C 
HETATM   26  C14 UNL     1      57.324  16.046  55.275  1.00  0.00     0.000 C 
HETATM   27  C15 UNL     1      57.813  17.214  54.473  1.00  0.00     0.000 C 
HETATM   28  C16 UNL     1      56.714  17.843  53.639  1.00  0.00     0.000 C 
HETATM   29  C17 UNL     1      56.906  17.368  52.216  1.00  0.00     0.003 C 
HETATM   30  C18 UNL     1      55.867  16.335  51.936  1.00  0.00     0.038 C 
BRANCH  23  31
HETATM   31  O3  UNL     1      57.080  14.561  50.833  1.00  0.00    -0.390 OA
ATOM     32  H3  UNL     1      58.007  14.688  50.997  1.00  0.00     0.210 HD
ENDBRANCH  23  31
ENDBRANCH  22  23
ENDBRANCH  21  22
ENDBRANCH  20  21
ENDBRANCH  19  20
ENDBRANCH  18  19
ENDBRANCH  17  18
ENDBRANCH   1  17
TORSDOF 11
ENDMDL
