MODEL 1
REMARK VINA RESULT: -8.942361922      0.000      0.000
REMARK  8 active torsions:
REMARK  status: ('A' for Active; 'I' for Inactive)
REMARK    1  A    between atoms: N2_4  and  C3_6 
REMARK    2  A    between atoms: C3_6  and  C4_7 
REMARK    3  A    between atoms: C4_7  and  C5_8 
REMARK    4  A    between atoms: C5_8  and  C6_9 
REMARK    5  A    between atoms: C6_9  and  C7_10 
REMARK    6  A    between atoms: C10_17  and  C11_18 
REMARK    7  A    between atoms: C17_27  and  C18_28 
REMARK    8  A    between atoms: C18_28  and  N6_29 
ROOT
HETATM    1  C1  UNL     1      19.177 -14.867  24.205  1.00  0.00     0.131 C 
HETATM    2  N1  UNL     1      19.573 -14.277  23.136  1.00  0.00    -0.303 N 
HETATM    3  C2  UNL     1      18.693 -14.368  22.075  1.00  0.00     0.110 A 
HETATM    4  N2  UNL     1      17.603 -15.002  22.225  1.00  0.00    -0.376 N 
ATOM      5  H2  UNL     1      17.456 -15.410  23.149  1.00  0.00     0.161 HD
HETATM    6  C14 UNL     1      19.019 -13.774  20.895  1.00  0.00     0.073 A 
HETATM    7  C15 UNL     1      20.233 -13.088  20.785  1.00  0.00     0.010 A 
HETATM    8  C16 UNL     1      20.578 -12.445  19.491  1.00  0.00     0.068 C 
HETATM    9  N5  UNL     1      21.028 -13.042  21.846  1.00  0.00    -0.345 N 
ATOM     10  H5  UNL     1      21.912 -12.541  21.761  1.00  0.00     0.167 HD
HETATM   11  C17 UNL     1      20.735 -13.625  23.046  1.00  0.00     0.128 A 
ENDROOT
BRANCH   4  12
HETATM   12  C3  UNL     1      16.565 -15.221  21.288  1.00  0.00     0.121 C 
BRANCH  12  13
HETATM   13  C4  UNL     1      15.588 -14.059  21.200  1.00  0.00     0.020 C 
BRANCH  13  14
HETATM   14  C5  UNL     1      14.987 -13.958  19.822  1.00  0.00     0.005 C 
BRANCH  14  15
HETATM   15  C6  UNL     1      13.815 -13.002  19.797  1.00  0.00     0.029 C 
BRANCH  15  16
HETATM   16  C7  UNL     1      12.786 -13.354  20.779  1.00  0.00     0.008 C 
HETATM   17  C8  UNL     1      12.353 -12.423  21.611  1.00  0.00     0.096 A 
HETATM   18  N3  UNL     1      11.405 -12.581  22.579  1.00  0.00    -0.297 N 
HETATM   19  C13 UNL     1      12.729 -11.101  21.715  1.00  0.00     0.227 A 
HETATM   20  N4  UNL     1      11.218 -11.444  23.223  1.00  0.00    -0.297 N 
ATOM     21  H3  UNL     1      10.912 -13.452  22.776  1.00  0.00     0.187 HD
HETATM   22  C9  UNL     1      12.017 -10.486  22.727  1.00  0.00     0.096 A 
ATOM     23  H4  UNL     1      10.559 -11.313  23.991  1.00  0.00     0.187 HD
HETATM   24  C10 UNL     1      12.115  -9.229  23.107  1.00  0.00     0.008 C 
HETATM   25  O1  UNL     1      13.600 -10.515  20.994  1.00  0.00    -0.283 OA
BRANCH  24  26
HETATM   26  C11 UNL     1      11.266  -8.742  24.220  1.00  0.00     0.025 C 
HETATM   27  C12 UNL     1      11.763  -7.369  24.626  1.00  0.00     0.009 C 
ENDBRANCH  24  26
ENDBRANCH  15  16
ENDBRANCH  14  15
ENDBRANCH  13  14
ENDBRANCH  12  13
ENDBRANCH   4  12
BRANCH  11  28
HETATM   28  C18 UNL     1      21.581 -13.527  24.035  1.00  0.00     0.146 C 
BRANCH  28  29
HETATM   29  N6  UNL     1      22.869 -14.189  23.953  1.00  0.00    -0.323 N 
HETATM   30  C19 UNL     1      24.035 -13.592  23.621  1.00  0.00     0.187 A 
HETATM   31  N7  UNL     1      25.012 -14.535  23.653  1.00  0.00    -0.354 N 
HETATM   32  C20 UNL     1      24.468 -15.724  24.006  1.00  0.00     0.022 A 
ATOM     33  H7  UNL     1      25.998 -14.373  23.446  1.00  0.00     0.166 HD
HETATM   34  C21 UNL     1      25.244 -16.991  24.144  1.00  0.00     0.069 C 
HETATM   35  C22 UNL     1      23.133 -15.484  24.187  1.00  0.00     0.121 A 
ENDBRANCH  28  29
ENDBRANCH  11  28
TORSDOF 8
ENDMDL
MODEL 2
REMARK VINA RESULT: -8.860434518      1.484      2.120
REMARK  8 active torsions:
REMARK  status: ('A' for Active; 'I' for Inactive)
REMARK    1  A    between atoms: N2_4  and  C3_6 
REMARK    2  A    between atoms: C3_6  and  C4_7 
REMARK    3  A    between atoms: C4_7  and  C5_8 
REMARK    4  A    between atoms: C5_8  and  C6_9 
REMARK    5  A    between atoms: C6_9  and  C7_10 
REMARK    6  A    between atoms: C10_17  and  C11_18 
REMARK    7  A    between atoms: C17_27  and  C18_28 
REMARK    8  A    between atoms: C18_28  and  N6_29 
ROOT
HETATM    1  C1  UNL     1      18.213 -15.554  22.419  1.00  0.00     0.131 C 
HETATM    2  N1  UNL     1      18.900 -14.695  21.756  1.00  0.00    -0.303 N 
HETATM    3  C2  UNL     1      18.166 -13.957  20.847  1.00  0.00     0.110 A 
HETATM    4  N2  UNL     1      16.918 -14.172  20.737  1.00  0.00    -0.376 N 
ATOM      5  H2  UNL     1      16.541 -14.897  21.348  1.00  0.00     0.161 HD
HETATM    6  C14 UNL     1      18.800 -13.019  20.094  1.00  0.00     0.073 A 
HETATM    7  C15 UNL     1      20.176 -12.825  20.258  1.00  0.00     0.010 A 
HETATM    8  C16 UNL     1      20.857 -11.797  19.428  1.00  0.00     0.068 C 
HETATM    9  N5  UNL     1      20.815 -13.570  21.148  1.00  0.00    -0.345 N 
ATOM     10  H5  UNL     1      21.818 -13.425  21.263  1.00  0.00     0.167 HD
HETATM   11  C17 UNL     1      20.213 -14.521  21.922  1.00  0.00     0.128 A 
ENDROOT
BRANCH   4  12
HETATM   12  C3  UNL     1      15.980 -13.543  19.884  1.00  0.00     0.121 C 
BRANCH  12  13
HETATM   13  C4  UNL     1      15.249 -14.523  18.979  1.00  0.00     0.020 C 
BRANCH  13  14
HETATM   14  C5  UNL     1      13.762 -14.482  19.222  1.00  0.00     0.005 C 
BRANCH  14  15
HETATM   15  C6  UNL     1      13.349 -13.200  19.912  1.00  0.00     0.029 C 
BRANCH  15  16
HETATM   16  C7  UNL     1      12.384 -13.433  20.990  1.00  0.00     0.008 C 
HETATM   17  C8  UNL     1      12.074 -12.432  21.796  1.00  0.00     0.096 A 
HETATM   18  N3  UNL     1      11.199 -12.477  22.842  1.00  0.00    -0.297 N 
HETATM   19  C13 UNL     1      12.533 -11.132  21.791  1.00  0.00     0.227 A 
HETATM   20  N4  UNL     1      11.131 -11.297  23.429  1.00  0.00    -0.297 N 
ATOM     21  H3  UNL     1      10.675 -13.304  23.128  1.00  0.00     0.187 HD
HETATM   22  C9  UNL     1      11.941 -10.419  22.815  1.00  0.00     0.096 A 
ATOM     23  H4  UNL     1      10.545 -11.082  24.235  1.00  0.00     0.187 HD
HETATM   24  C10 UNL     1      12.142  -9.152  23.111  1.00  0.00     0.008 C 
HETATM   25  O1  UNL     1      13.376 -10.643  20.971  1.00  0.00    -0.283 OA
BRANCH  24  26
HETATM   26  C11 UNL     1      11.415  -8.552  24.255  1.00  0.00     0.025 C 
HETATM   27  C12 UNL     1      12.035  -7.200  24.551  1.00  0.00     0.009 C 
ENDBRANCH  24  26
ENDBRANCH  15  16
ENDBRANCH  14  15
ENDBRANCH  13  14
ENDBRANCH  12  13
ENDBRANCH   4  12
BRANCH  11  28
HETATM   28  C18 UNL     1      20.926 -15.207  22.774  1.00  0.00     0.146 C 
BRANCH  28  29
HETATM   29  N6  UNL     1      21.270 -14.631  24.059  1.00  0.00    -0.323 N 
HETATM   30  C19 UNL     1      22.345 -14.968  24.805  1.00  0.00     0.187 A 
HETATM   31  N7  UNL     1      22.325 -14.214  25.934  1.00  0.00    -0.354 N 
HETATM   32  C20 UNL     1      21.241 -13.402  25.905  1.00  0.00     0.022 A 
ATOM     33  H7  UNL     1      23.015 -14.253  26.685  1.00  0.00     0.166 HD
HETATM   34  C21 UNL     1      20.893 -12.431  26.983  1.00  0.00     0.069 C 
HETATM   35  C22 UNL     1      20.600 -13.680  24.728  1.00  0.00     0.121 A 
ENDBRANCH  28  29
ENDBRANCH  11  28
TORSDOF 8
ENDMDL
MODEL 3
REMARK VINA RESULT: -8.764750632      2.160      3.192
REMARK  8 active torsions:
REMARK  status: ('A' for Active; 'I' for Inactive)
REMARK    1  A    between atoms: N2_4  and  C3_6 
REMARK    2  A    between atoms: C3_6  and  C4_7 
REMARK    3  A    between atoms: C4_7  and  C5_8 
REMARK    4  A    between atoms: C5_8  and  C6_9 
REMARK    5  A    between atoms: C6_9  and  C7_10 
REMARK    6  A    between atoms: C10_17  and  C11_18 
REMARK    7  A    between atoms: C17_27  and  C18_28 
REMARK    8  A    between atoms: C18_28  and  N6_29 
ROOT
HETATM    1  C1  UNL     1      17.948 -12.866  21.503  1.00  0.00     0.131 C 
HETATM    2  N1  UNL     1      18.340 -14.089  21.522  1.00  0.00    -0.303 N 
HETATM    3  C2  UNL     1      17.336 -15.014  21.308  1.00  0.00     0.110 A 
HETATM    4  N2  UNL     1      16.148 -14.606  21.117  1.00  0.00    -0.376 N 
ATOM      5  H2  UNL     1      16.022 -13.594  21.137  1.00  0.00     0.161 HD
HETATM    6  C14 UNL     1      17.648 -16.338  21.308  1.00  0.00     0.073 A 
HETATM    7  C15 UNL     1      18.973 -16.730  21.523  1.00  0.00     0.010 A 
HETATM    8  C16 UNL     1      19.300 -18.179  21.521  1.00  0.00     0.068 C 
HETATM    9  N5  UNL     1      19.884 -15.787  21.722  1.00  0.00    -0.345 N 
ATOM     10  H5  UNL     1      20.848 -16.078  21.879  1.00  0.00     0.167 HD
HETATM   11  C17 UNL     1      19.609 -14.448  21.729  1.00  0.00     0.128 A 
ENDROOT
BRANCH   4  12
HETATM   12  C3  UNL     1      14.976 -15.363  20.880  1.00  0.00     0.121 C 
BRANCH  12  13
HETATM   13  C4  UNL     1      14.643 -15.496  19.402  1.00  0.00     0.020 C 
BRANCH  13  14
HETATM   14  C5  UNL     1      15.457 -14.537  18.572  1.00  0.00     0.005 C 
BRANCH  14  15
HETATM   15  C6  UNL     1      14.667 -13.293  18.228  1.00  0.00     0.029 C 
BRANCH  15  16
HETATM   16  C7  UNL     1      15.310 -12.071  18.718  1.00  0.00     0.008 C 
HETATM   17  C8  UNL     1      14.716 -11.376  19.672  1.00  0.00     0.096 A 
HETATM   18  N3  UNL     1      15.176 -10.223  20.238  1.00  0.00    -0.297 N 
HETATM   19  C13 UNL     1      13.525 -11.623  20.321  1.00  0.00     0.227 A 
HETATM   20  N4  UNL     1      14.331  -9.800  21.160  1.00  0.00    -0.297 N 
ATOM     21  H3  UNL     1      16.047  -9.756  19.986  1.00  0.00     0.187 HD
HETATM   22  C9  UNL     1      13.283 -10.635  21.256  1.00  0.00     0.096 A 
ATOM     23  H4  UNL     1      14.456  -8.958  21.722  1.00  0.00     0.187 HD
HETATM   24  C10 UNL     1      12.242 -10.547  22.057  1.00  0.00     0.008 C 
HETATM   25  O1  UNL     1      12.751 -12.611  20.106  1.00  0.00    -0.283 OA
BRANCH  24  26
HETATM   26  C11 UNL     1      12.149  -9.408  23.001  1.00  0.00     0.025 C 
HETATM   27  C12 UNL     1      11.252  -9.820  24.151  1.00  0.00     0.009 C 
ENDBRANCH  24  26
ENDBRANCH  15  16
ENDBRANCH  14  15
ENDBRANCH  13  14
ENDBRANCH  12  13
ENDBRANCH   4  12
BRANCH  11  28
HETATM   28  C18 UNL     1      20.574 -13.592  21.934  1.00  0.00     0.146 C 
BRANCH  28  29
HETATM   29  N6  UNL     1      21.072 -13.374  23.278  1.00  0.00    -0.323 N 
HETATM   30  C19 UNL     1      22.360 -13.508  23.666  1.00  0.00     0.187 A 
HETATM   31  N7  UNL     1      22.431 -13.220  24.991  1.00  0.00    -0.354 N 
HETATM   32  C20 UNL     1      21.193 -12.903  25.442  1.00  0.00     0.022 A 
ATOM     33  H7  UNL     1      23.280 -13.239  25.557  1.00  0.00     0.166 HD
HETATM   34  C21 UNL     1      20.887 -12.530  26.853  1.00  0.00     0.069 C 
HETATM   35  C22 UNL     1      20.364 -13.006  24.357  1.00  0.00     0.121 A 
ENDBRANCH  28  29
ENDBRANCH  11  28
TORSDOF 8
ENDMDL
MODEL 4
REMARK VINA RESULT: -8.638950035      2.835     10.475
REMARK  8 active torsions:
REMARK  status: ('A' for Active; 'I' for Inactive)
REMARK    1  A    between atoms: N2_4  and  C3_6 
REMARK    2  A    between atoms: C3_6  and  C4_7 
REMARK    3  A    between atoms: C4_7  and  C5_8 
REMARK    4  A    between atoms: C5_8  and  C6_9 
REMARK    5  A    between atoms: C6_9  and  C7_10 
REMARK    6  A    between atoms: C10_17  and  C11_18 
REMARK    7  A    between atoms: C17_27  and  C18_28 
REMARK    8  A    between atoms: C18_28  and  N6_29 
ROOT
HETATM    1  C1  UNL     1      15.895 -12.925  21.907  1.00  0.00     0.131 C 
HETATM    2  N1  UNL     1      16.044 -12.571  20.682  1.00  0.00    -0.303 N 
HETATM    3  C2  UNL     1      17.358 -12.534  20.255  1.00  0.00     0.110 A 
HETATM    4  N2  UNL     1      18.284 -12.838  21.070  1.00  0.00    -0.376 N 
ATOM      5  H2  UNL     1      17.976 -13.095  22.009  1.00  0.00     0.161 HD
HETATM    6  C14 UNL     1      17.625 -12.172  18.972  1.00  0.00     0.073 A 
HETATM    7  C15 UNL     1      16.565 -11.847  18.117  1.00  0.00     0.010 A 
HETATM    8  C16 UNL     1      16.870 -11.453  16.718  1.00  0.00     0.068 C 
HETATM    9  N5  UNL     1      15.331 -11.905  18.596  1.00  0.00    -0.345 N 
ATOM     10  H5  UNL     1      14.562 -11.667  17.969  1.00  0.00     0.167 HD
HETATM   11  C17 UNL     1      15.024 -12.264  19.878  1.00  0.00     0.128 A 
ENDROOT
BRANCH   4  12
HETATM   12  C3  UNL     1      19.682 -12.870  20.856  1.00  0.00     0.121 C 
BRANCH  12  13
HETATM   13  C4  UNL     1      20.433 -13.633  21.936  1.00  0.00     0.020 C 
BRANCH  13  14
HETATM   14  C5  UNL     1      19.866 -13.340  23.302  1.00  0.00     0.005 C 
BRANCH  14  15
HETATM   15  C6  UNL     1      20.881 -13.607  24.392  1.00  0.00     0.029 C 
BRANCH  15  16
HETATM   16  C7  UNL     1      22.214 -13.104  24.048  1.00  0.00     0.008 C 
HETATM   17  C8  UNL     1      23.209 -13.965  23.928  1.00  0.00     0.096 A 
HETATM   18  N3  UNL     1      24.503 -13.667  23.614  1.00  0.00    -0.297 N 
HETATM   19  C13 UNL     1      23.203 -15.335  24.080  1.00  0.00     0.227 A 
HETATM   20  N4  UNL     1      25.228 -14.770  23.579  1.00  0.00    -0.297 N 
ATOM     21  H3  UNL     1      24.858 -12.728  23.434  1.00  0.00     0.187 HD
HETATM   22  C9  UNL     1      24.469 -15.841  23.861  1.00  0.00     0.096 A 
ATOM     23  H4  UNL     1      26.225 -14.803  23.367  1.00  0.00     0.187 HD
HETATM   24  C10 UNL     1      24.834 -17.105  23.922  1.00  0.00     0.008 C 
HETATM   25  O1  UNL     1      22.188 -16.046  24.377  1.00  0.00    -0.283 OA
BRANCH  24  26
HETATM   26  C11 UNL     1      26.247 -17.463  23.656  1.00  0.00     0.025 C 
HETATM   27  C12 UNL     1      26.358 -17.903  22.209  1.00  0.00     0.009 C 
ENDBRANCH  24  26
ENDBRANCH  15  16
ENDBRANCH  14  15
ENDBRANCH  13  14
ENDBRANCH  12  13
ENDBRANCH   4  12
BRANCH  11  28
HETATM   28  C18 UNL     1      13.776 -12.292  20.260  1.00  0.00     0.146 C 
BRANCH  28  29
HETATM   29  N6  UNL     1      13.278 -11.285  21.178  1.00  0.00    -0.323 N 
HETATM   30  C19 UNL     1      13.705 -10.005  21.241  1.00  0.00     0.187 A 
HETATM   31  N7  UNL     1      13.004  -9.378  22.221  1.00  0.00    -0.354 N 
HETATM   32  C20 UNL     1      12.136 -10.256  22.776  1.00  0.00     0.022 A 
ATOM     33  H7  UNL     1      13.114  -8.401  22.494  1.00  0.00     0.166 HD
HETATM   34  C21 UNL     1      11.200  -9.919  23.887  1.00  0.00     0.069 C 
HETATM   35  C22 UNL     1      12.325 -11.437  22.110  1.00  0.00     0.121 A 
ENDBRANCH  28  29
ENDBRANCH  11  28
TORSDOF 8
ENDMDL
MODEL 5
REMARK VINA RESULT: -8.628659577      2.634      9.674
REMARK  8 active torsions:
REMARK  status: ('A' for Active; 'I' for Inactive)
REMARK    1  A    between atoms: N2_4  and  C3_6 
REMARK    2  A    between atoms: C3_6  and  C4_7 
REMARK    3  A    between atoms: C4_7  and  C5_8 
REMARK    4  A    between atoms: C5_8  and  C6_9 
REMARK    5  A    between atoms: C6_9  and  C7_10 
REMARK    6  A    between atoms: C10_17  and  C11_18 
REMARK    7  A    between atoms: C17_27  and  C18_28 
REMARK    8  A    between atoms: C18_28  and  N6_29 
ROOT
HETATM    1  C1  UNL     1      14.594 -10.232  20.649  1.00  0.00     0.131 C 
HETATM    2  N1  UNL     1      14.707 -11.473  20.962  1.00  0.00    -0.303 N 
HETATM    3  C2  UNL     1      16.008 -11.938  20.989  1.00  0.00     0.110 A 
HETATM    4  N2  UNL     1      16.957 -11.141  20.713  1.00  0.00    -0.376 N 
ATOM      5  H2  UNL     1      16.678 -10.186  20.486  1.00  0.00     0.161 HD
HETATM    6  C14 UNL     1      16.236 -13.240  21.309  1.00  0.00     0.073 A 
HETATM    7  C15 UNL     1      15.151 -14.074  21.604  1.00  0.00     0.010 A 
HETATM    8  C16 UNL     1      15.414 -15.493  21.952  1.00  0.00     0.068 C 
HETATM    9  N5  UNL     1      13.931 -13.558  21.558  1.00  0.00    -0.345 N 
ATOM     10  H5  UNL     1      13.144 -14.169  21.773  1.00  0.00     0.167 HD
HETATM   11  C17 UNL     1      13.663 -12.256  21.241  1.00  0.00     0.128 A 
ENDROOT
BRANCH   4  12
HETATM   12  C3  UNL     1      18.349 -11.395  20.679  1.00  0.00     0.121 C 
BRANCH  12  13
HETATM   13  C4  UNL     1      18.802 -12.054  19.385  1.00  0.00     0.020 C 
BRANCH  13  14
HETATM   14  C5  UNL     1      20.264 -12.418  19.443  1.00  0.00     0.005 C 
BRANCH  14  15
HETATM   15  C6  UNL     1      20.633 -13.015  20.783  1.00  0.00     0.029 C 
BRANCH  15  16
HETATM   16  C7  UNL     1      19.979 -14.305  21.018  1.00  0.00     0.008 C 
HETATM   17  C8  UNL     1      20.286 -14.987  22.108  1.00  0.00     0.096 A 
HETATM   18  N3  UNL     1      19.772 -16.195  22.477  1.00  0.00    -0.297 N 
HETATM   19  C13 UNL     1      21.168 -14.669  23.117  1.00  0.00     0.227 A 
HETATM   20  N4  UNL     1      20.301 -16.584  23.622  1.00  0.00    -0.297 N 
ATOM     21  H3  UNL     1      19.079 -16.722  21.945  1.00  0.00     0.187 HD
HETATM   22  C9  UNL     1      21.179 -15.671  24.069  1.00  0.00     0.096 A 
ATOM     23  H4  UNL     1      20.075 -17.456  24.101  1.00  0.00     0.187 HD
HETATM   24  C10 UNL     1      21.901 -15.705  25.169  1.00  0.00     0.008 C 
HETATM   25  O1  UNL     1      21.877 -13.613  23.182  1.00  0.00    -0.283 OA
BRANCH  24  26
HETATM   26  C11 UNL     1      21.781 -16.870  26.077  1.00  0.00     0.025 C 
HETATM   27  C12 UNL     1      22.798 -16.708  27.190  1.00  0.00     0.009 C 
ENDBRANCH  24  26
ENDBRANCH  15  16
ENDBRANCH  14  15
ENDBRANCH  13  14
ENDBRANCH  12  13
ENDBRANCH   4  12
BRANCH  11  28
HETATM   28  C18 UNL     1      12.426 -11.838  21.221  1.00  0.00     0.146 C 
BRANCH  28  29
HETATM   29  N6  UNL     1      11.881 -11.138  22.368  1.00  0.00    -0.323 N 
HETATM   30  C19 UNL     1      11.096 -11.689  23.320  1.00  0.00     0.187 A 
HETATM   31  N7  UNL     1      10.790 -10.721  24.222  1.00  0.00    -0.354 N 
HETATM   32  C20 UNL     1      11.379  -9.561  23.844  1.00  0.00     0.022 A 
ATOM     33  H7  UNL     1      10.210 -10.847  25.052  1.00  0.00     0.166 HD
HETATM   34  C21 UNL     1      11.262  -8.279  24.597  1.00  0.00     0.069 C 
HETATM   35  C22 UNL     1      12.052  -9.845  22.687  1.00  0.00     0.121 A 
ENDBRANCH  28  29
ENDBRANCH  11  28
TORSDOF 8
ENDMDL
