MODEL 1
REMARK VINA RESULT: -6.841849780      0.000      0.000
REMARK  12 active torsions:
REMARK  status: ('A' for Active; 'I' for Inactive)
REMARK    1  A    between atoms: C5_6  and  C6_7 
REMARK    2  A    between atoms: C6_7  and  C7_8 
REMARK       I    between atoms: C7_8  and  N2_10 
REMARK    3  A    between atoms: N2_10  and  C8_12 
REMARK    4  A    between atoms: C8_12  and  C9_13 
REMARK    5  A    between atoms: C10_14  and  C11_15 
REMARK    6  A    between atoms: C11_15  and  N3_16 
REMARK    7  A    between atoms: N3_16  and  C12_17 
REMARK    8  A    between atoms: C12_17  and  C13_18 
REMARK    9  A    between atoms: C13_18  and  N4_19 
REMARK   10  A    between atoms: C16_22  and  O2_23 
REMARK   11  A    between atoms: C17_25  and  C18_26 
REMARK   12  A    between atoms: C18_26  and  O3_27 
ROOT
HETATM    1  N3  UNL     1      12.941 -15.746  19.448  1.00  0.00    -0.052 N 
HETATM    2  C20 UNL     1      12.364 -17.007  19.869  1.00  0.00     0.266 A 
HETATM    3  C21 UNL     1      11.561 -15.978  19.104  1.00  0.00     0.266 A 
ENDROOT
BRANCH   1   4
HETATM    4  C11 UNL     1      13.870 -15.854  18.345  1.00  0.00     0.331 C 
BRANCH   4   5
HETATM    5  C10 UNL     1      14.637 -14.621  18.156  1.00  0.00    -0.077 C 
HETATM    6  C9  UNL     1      15.262 -13.590  17.981  1.00  0.00    -0.085 C 
BRANCH   6   7
HETATM    7  C8  UNL     1      16.009 -12.340  17.787  1.00  0.00     0.217 C 
BRANCH   7   8
HETATM    8  N2  UNL     1      17.294 -12.370  18.418  1.00  0.00    -0.351 N 
HETATM    9  C7  UNL     1      17.539 -11.638  19.585  1.00  0.00     0.218 C 
HETATM   10  O1  UNL     1      16.627 -10.949  20.087  1.00  0.00    -0.274 OA
ATOM     11  H2  UNL     1      18.042 -12.931  18.010  1.00  0.00     0.163 HD
BRANCH   9  12
HETATM   12  C6  UNL     1      18.871 -11.678  20.226  1.00  0.00     0.109 C 
BRANCH  12  13
HETATM   13  C5  UNL     1      19.095 -13.029  20.866  1.00  0.00     0.022 C 
HETATM   14  C4  UNL     1      20.585 -13.151  21.201  1.00  0.00     0.034 C 
HETATM   15  C3  UNL     1      20.616 -13.914  22.486  1.00  0.00     0.237 C 
HETATM   16  N1  UNL     1      19.262 -14.232  22.828  1.00  0.00    -0.074 N 
HETATM   17  C1  UNL     1      18.785 -15.456  22.240  1.00  0.00     0.272 C 
HETATM   18  C2  UNL     1      19.157 -14.256  24.271  1.00  0.00     0.272 C 
HETATM   19  C22 UNL     1      18.500 -13.140  22.249  1.00  0.00     0.241 C 
ENDBRANCH  12  13
ENDBRANCH   9  12
ENDBRANCH   7   8
ENDBRANCH   6   7
ENDBRANCH   4   5
ENDBRANCH   1   4
BRANCH   1  20
HETATM   20  C12 UNL     1      13.288 -14.765  20.436  1.00  0.00     0.266 C 
BRANCH  20  21
HETATM   21  C13 UNL     1      12.307 -13.622  20.510  1.00  0.00     0.265 C 
BRANCH  21  22
HETATM   22  N4  UNL     1      12.896 -12.534  21.260  1.00  0.00    -0.066 N 
HETATM   23  C14 UNL     1      14.239 -12.839  21.707  1.00  0.00     0.272 C 
HETATM   24  C15 UNL     1      12.003 -12.235  22.373  1.00  0.00     0.269 C 
HETATM   25  C16 UNL     1      12.254 -10.778  22.709  1.00  0.00     0.152 C 
HETATM   26  C17 UNL     1      12.632 -10.174  21.371  1.00  0.00     0.066 C 
HETATM   27  C19 UNL     1      12.976 -11.316  20.473  1.00  0.00     0.246 C 
BRANCH  25  28
HETATM   28  O2  UNL     1      11.048 -10.252  23.168  1.00  0.00    -0.393 OA
ATOM     29  H2  UNL     1      10.891  -9.450  22.684  1.00  0.00     0.210 HD
ENDBRANCH  25  28
BRANCH  26  30
HETATM   30  C18 UNL     1      13.776  -9.227  21.611  1.00  0.00     0.173 C 
BRANCH  30  31
HETATM   31  O3  UNL     1      14.560  -9.122  20.466  1.00  0.00    -0.400 OA
ATOM     32  H3  UNL     1      15.404  -8.742  20.680  1.00  0.00     0.209 HD
ENDBRANCH  30  31
ENDBRANCH  26  30
ENDBRANCH  21  22
ENDBRANCH  20  21
ENDBRANCH   1  20
TORSDOF 12
ENDMDL
MODEL 2
REMARK VINA RESULT: -6.704154857      1.285      1.696
REMARK  12 active torsions:
REMARK  status: ('A' for Active; 'I' for Inactive)
REMARK    1  A    between atoms: C5_6  and  C6_7 
REMARK    2  A    between atoms: C6_7  and  C7_8 
REMARK       I    between atoms: C7_8  and  N2_10 
REMARK    3  A    between atoms: N2_10  and  C8_12 
REMARK    4  A    between atoms: C8_12  and  C9_13 
REMARK    5  A    between atoms: C10_14  and  C11_15 
REMARK    6  A    between atoms: C11_15  and  N3_16 
REMARK    7  A    between atoms: N3_16  and  C12_17 
REMARK    8  A    between atoms: C12_17  and  C13_18 
REMARK    9  A    between atoms: C13_18  and  N4_19 
REMARK   10  A    between atoms: C16_22  and  O2_23 
REMARK   11  A    between atoms: C17_25  and  C18_26 
REMARK   12  A    between atoms: C18_26  and  O3_27 
ROOT
HETATM    1  N3  UNL     1      13.860 -15.136  19.016  1.00  0.00    -0.052 N 
HETATM    2  C20 UNL     1      14.494 -16.028  19.966  1.00  0.00     0.266 A 
HETATM    3  C21 UNL     1      13.430 -16.512  19.005  1.00  0.00     0.266 A 
ENDROOT
BRANCH   1   4
HETATM    4  C11 UNL     1      14.702 -14.753  17.905  1.00  0.00     0.331 C 
BRANCH   4   5
HETATM    5  C10 UNL     1      15.668 -13.721  18.283  1.00  0.00    -0.077 C 
HETATM    6  C9  UNL     1      16.488 -12.877  18.604  1.00  0.00    -0.085 C 
BRANCH   6   7
HETATM    7  C8  UNL     1      17.477 -11.855  18.970  1.00  0.00     0.217 C 
BRANCH   7   8
HETATM    8  N2  UNL     1      18.381 -12.310  19.983  1.00  0.00    -0.351 N 
HETATM    9  C7  UNL     1      19.756 -12.392  19.735  1.00  0.00     0.218 C 
HETATM   10  O1  UNL     1      20.203 -12.065  18.617  1.00  0.00    -0.274 OA
ATOM     11  H2  UNL     1      18.018 -12.578  20.898  1.00  0.00     0.163 HD
BRANCH   9  12
HETATM   12  C6  UNL     1      20.678 -12.863  20.790  1.00  0.00     0.109 C 
BRANCH  12  13
HETATM   13  C5  UNL     1      19.924 -13.703  21.797  1.00  0.00     0.022 C 
HETATM   14  C4  UNL     1      20.083 -15.173  21.397  1.00  0.00     0.034 C 
HETATM   15  C3  UNL     1      20.166 -15.905  22.697  1.00  0.00     0.237 C 
HETATM   16  N1  UNL     1      20.027 -14.937  23.743  1.00  0.00    -0.074 N 
HETATM   17  C1  UNL     1      18.661 -14.667  24.109  1.00  0.00     0.272 C 
HETATM   18  C2  UNL     1      20.804 -15.385  24.878  1.00  0.00     0.272 C 
HETATM   19  C22 UNL     1      20.573 -13.725  23.160  1.00  0.00     0.241 C 
ENDBRANCH  12  13
ENDBRANCH   9  12
ENDBRANCH   7   8
ENDBRANCH   6   7
ENDBRANCH   4   5
ENDBRANCH   1   4
BRANCH   1  20
HETATM   20  C12 UNL     1      12.984 -14.106  19.493  1.00  0.00     0.266 C 
BRANCH  20  21
HETATM   21  C13 UNL     1      12.915 -14.031  20.997  1.00  0.00     0.265 C 
BRANCH  21  22
HETATM   22  N4  UNL     1      13.366 -12.727  21.433  1.00  0.00    -0.066 N 
HETATM   23  C14 UNL     1      14.702 -12.767  21.991  1.00  0.00     0.272 C 
HETATM   24  C15 UNL     1      12.388 -12.222  22.389  1.00  0.00     0.269 C 
HETATM   25  C16 UNL     1      12.496 -10.712  22.313  1.00  0.00     0.152 C 
HETATM   26  C17 UNL     1      12.900 -10.465  20.874  1.00  0.00     0.066 C 
HETATM   27  C19 UNL     1      13.390 -11.771  20.341  1.00  0.00     0.246 C 
BRANCH  25  28
HETATM   28  O2  UNL     1      11.226 -10.198  22.568  1.00  0.00    -0.393 OA
ATOM     29  H2  UNL     1      11.346  -9.349  22.977  1.00  0.00     0.210 HD
ENDBRANCH  25  28
BRANCH  26  30
HETATM   30  C18 UNL     1      13.945  -9.383  20.877  1.00  0.00     0.173 C 
BRANCH  30  31
HETATM   31  O3  UNL     1      15.074  -9.803  20.179  1.00  0.00    -0.400 OA
ATOM     32  H3  UNL     1      15.156  -9.316  19.367  1.00  0.00     0.209 HD
ENDBRANCH  30  31
ENDBRANCH  26  30
ENDBRANCH  21  22
ENDBRANCH  20  21
ENDBRANCH   1  20
TORSDOF 12
ENDMDL
MODEL 3
REMARK VINA RESULT: -6.507421856      2.039      3.420
REMARK  12 active torsions:
REMARK  status: ('A' for Active; 'I' for Inactive)
REMARK    1  A    between atoms: C5_6  and  C6_7 
REMARK    2  A    between atoms: C6_7  and  C7_8 
REMARK       I    between atoms: C7_8  and  N2_10 
REMARK    3  A    between atoms: N2_10  and  C8_12 
REMARK    4  A    between atoms: C8_12  and  C9_13 
REMARK    5  A    between atoms: C10_14  and  C11_15 
REMARK    6  A    between atoms: C11_15  and  N3_16 
REMARK    7  A    between atoms: N3_16  and  C12_17 
REMARK    8  A    between atoms: C12_17  and  C13_18 
REMARK    9  A    between atoms: C13_18  and  N4_19 
REMARK   10  A    between atoms: C16_22  and  O2_23 
REMARK   11  A    between atoms: C17_25  and  C18_26 
REMARK   12  A    between atoms: C18_26  and  O3_27 
ROOT
HETATM    1  N3  UNL     1      12.584 -16.231  20.823  1.00  0.00    -0.052 N 
HETATM    2  C20 UNL     1      11.266 -16.713  20.463  1.00  0.00     0.266 A 
HETATM    3  C21 UNL     1      12.233 -16.186  19.426  1.00  0.00     0.266 A 
ENDROOT
BRANCH   1   4
HETATM    4  C11 UNL     1      13.521 -17.272  21.183  1.00  0.00     0.331 C 
BRANCH   4   5
HETATM    5  C10 UNL     1      14.902 -16.785  21.184  1.00  0.00    -0.077 C 
HETATM    6  C9  UNL     1      16.049 -16.373  21.206  1.00  0.00    -0.085 C 
BRANCH   6   7
HETATM    7  C8  UNL     1      17.437 -15.894  21.232  1.00  0.00     0.217 C 
BRANCH   7   8
HETATM    8  N2  UNL     1      17.839 -15.460  22.536  1.00  0.00    -0.351 N 
HETATM    9  C7  UNL     1      18.144 -14.117  22.785  1.00  0.00     0.218 C 
HETATM   10  O1  UNL     1      18.067 -13.284  21.859  1.00  0.00    -0.274 OA
ATOM     11  H2  UNL     1      17.904 -16.139  23.295  1.00  0.00     0.163 HD
BRANCH   9  12
HETATM   12  C6  UNL     1      18.558 -13.683  24.136  1.00  0.00     0.109 C 
BRANCH  12  13
HETATM   13  C5  UNL     1      20.060 -13.790  24.275  1.00  0.00     0.022 C 
HETATM   14  C4  UNL     1      20.489 -12.904  25.448  1.00  0.00     0.034 C 
HETATM   15  C3  UNL     1      21.616 -13.651  26.086  1.00  0.00     0.237 C 
HETATM   16  N1  UNL     1      21.831 -14.839  25.315  1.00  0.00    -0.074 N 
HETATM   17  C1  UNL     1      22.728 -14.657  24.203  1.00  0.00     0.272 C 
HETATM   18  C2  UNL     1      22.296 -15.877  26.210  1.00  0.00     0.272 C 
HETATM   19  C22 UNL     1      20.517 -15.139  24.777  1.00  0.00     0.241 C 
ENDBRANCH  12  13
ENDBRANCH   9  12
ENDBRANCH   7   8
ENDBRANCH   6   7
ENDBRANCH   4   5
ENDBRANCH   1   4
BRANCH   1  20
HETATM   20  C12 UNL     1      12.709 -15.018  21.579  1.00  0.00     0.266 C 
BRANCH  20  21
HETATM   21  C13 UNL     1      12.340 -13.786  20.792  1.00  0.00     0.265 C 
BRANCH  21  22
HETATM   22  N4  UNL     1      13.492 -12.915  20.697  1.00  0.00    -0.066 N 
HETATM   23  C14 UNL     1      14.431 -13.129  21.778  1.00  0.00     0.272 C 
HETATM   24  C15 UNL     1      13.003 -11.543  20.660  1.00  0.00     0.269 C 
HETATM   25  C16 UNL     1      14.071 -10.756  19.925  1.00  0.00     0.152 C 
HETATM   26  C17 UNL     1      14.652 -11.774  18.965  1.00  0.00     0.066 C 
HETATM   27  C19 UNL     1      14.218 -13.115  19.456  1.00  0.00     0.246 C 
BRANCH  25  28
HETATM   28  O2  UNL     1      13.422  -9.734  19.233  1.00  0.00    -0.393 OA
ATOM     29  H2  UNL     1      13.814  -9.691  18.369  1.00  0.00     0.210 HD
ENDBRANCH  25  28
BRANCH  26  30
HETATM   30  C18 UNL     1      16.144 -11.586  18.957  1.00  0.00     0.173 C 
BRANCH  30  31
HETATM   31  O3  UNL     1      16.512 -10.627  19.898  1.00  0.00    -0.400 OA
ATOM     32  H3  UNL     1      15.941  -9.870  19.835  1.00  0.00     0.209 HD
ENDBRANCH  30  31
ENDBRANCH  26  30
ENDBRANCH  21  22
ENDBRANCH  20  21
ENDBRANCH   1  20
TORSDOF 12
ENDMDL
MODEL 4
REMARK VINA RESULT: -6.495410700      1.853      2.656
REMARK  12 active torsions:
REMARK  status: ('A' for Active; 'I' for Inactive)
REMARK    1  A    between atoms: C5_6  and  C6_7 
REMARK    2  A    between atoms: C6_7  and  C7_8 
REMARK       I    between atoms: C7_8  and  N2_10 
REMARK    3  A    between atoms: N2_10  and  C8_12 
REMARK    4  A    between atoms: C8_12  and  C9_13 
REMARK    5  A    between atoms: C10_14  and  C11_15 
REMARK    6  A    between atoms: C11_15  and  N3_16 
REMARK    7  A    between atoms: N3_16  and  C12_17 
REMARK    8  A    between atoms: C12_17  and  C13_18 
REMARK    9  A    between atoms: C13_18  and  N4_19 
REMARK   10  A    between atoms: C16_22  and  O2_23 
REMARK   11  A    between atoms: C17_25  and  C18_26 
REMARK   12  A    between atoms: C18_26  and  O3_27 
ROOT
HETATM    1  N3  UNL     1      14.479 -14.693  18.748  1.00  0.00    -0.052 N 
HETATM    2  C20 UNL     1      15.238 -15.585  19.603  1.00  0.00     0.266 A 
HETATM    3  C21 UNL     1      14.430 -16.098  18.431  1.00  0.00     0.266 A 
ENDROOT
BRANCH   1   4
HETATM    4  C11 UNL     1      15.288 -13.895  17.853  1.00  0.00     0.331 C 
BRANCH   4   5
HETATM    5  C10 UNL     1      16.288 -13.109  18.577  1.00  0.00    -0.077 C 
HETATM    6  C9  UNL     1      17.117 -12.467  19.198  1.00  0.00    -0.085 C 
BRANCH   6   7
HETATM    7  C8  UNL     1      18.131 -11.702  19.935  1.00  0.00     0.217 C 
BRANCH   7   8
HETATM    8  N2  UNL     1      18.145 -12.019  21.332  1.00  0.00    -0.351 N 
HETATM    9  C7  UNL     1      19.076 -12.923  21.855  1.00  0.00     0.218 C 
HETATM   10  O1  UNL     1      19.907 -13.463  21.096  1.00  0.00    -0.274 OA
ATOM     11  H2  UNL     1      17.466 -11.579  21.954  1.00  0.00     0.163 HD
BRANCH   9  12
HETATM   12  C6  UNL     1      19.078 -13.241  23.299  1.00  0.00     0.109 C 
BRANCH  12  13
HETATM   13  C5  UNL     1      20.494 -13.488  23.770  1.00  0.00     0.022 C 
HETATM   14  C4  UNL     1      20.697 -12.717  25.077  1.00  0.00     0.034 C 
HETATM   15  C3  UNL     1      21.585 -13.598  25.894  1.00  0.00     0.237 C 
HETATM   16  N1  UNL     1      21.891 -14.751  25.101  1.00  0.00    -0.074 N 
HETATM   17  C1  UNL     1      23.035 -14.581  24.243  1.00  0.00     0.272 C 
HETATM   18  C2  UNL     1      22.057 -15.879  25.992  1.00  0.00     0.272 C 
HETATM   19  C22 UNL     1      20.723 -14.900  24.253  1.00  0.00     0.241 C 
ENDBRANCH  12  13
ENDBRANCH   9  12
ENDBRANCH   7   8
ENDBRANCH   6   7
ENDBRANCH   4   5
ENDBRANCH   1   4
BRANCH   1  20
HETATM   20  C12 UNL     1      13.323 -14.027  19.274  1.00  0.00     0.266 C 
BRANCH  20  21
HETATM   21  C13 UNL     1      13.202 -14.140  20.773  1.00  0.00     0.265 C 
BRANCH  21  22
HETATM   22  N4  UNL     1      13.517 -12.863  21.376  1.00  0.00    -0.066 N 
HETATM   23  C14 UNL     1      14.838 -12.847  21.968  1.00  0.00     0.272 C 
HETATM   24  C15 UNL     1      12.476 -12.571  22.354  1.00  0.00     0.269 C 
HETATM   25  C16 UNL     1      12.441 -11.059  22.464  1.00  0.00     0.152 C 
HETATM   26  C17 UNL     1      12.848 -10.602  21.078  1.00  0.00     0.066 C 
HETATM   27  C19 UNL     1      13.471 -11.782  20.408  1.00  0.00     0.246 C 
BRANCH  25  28
HETATM   28  O2  UNL     1      11.122 -10.701  22.738  1.00  0.00    -0.393 OA
ATOM     29  H2  UNL     1      11.129  -9.785  22.990  1.00  0.00     0.210 HD
ENDBRANCH  25  28
BRANCH  26  30
HETATM   30  C18 UNL     1      13.784  -9.437  21.244  1.00  0.00     0.173 C 
BRANCH  30  31
HETATM   31  O3  UNL     1      14.944  -9.642  20.502  1.00  0.00    -0.400 OA
ATOM     32  H3  UNL     1      15.141  -8.872  19.982  1.00  0.00     0.209 HD
ENDBRANCH  30  31
ENDBRANCH  26  30
ENDBRANCH  21  22
ENDBRANCH  20  21
ENDBRANCH   1  20
TORSDOF 12
ENDMDL
MODEL 5
REMARK VINA RESULT: -6.413537910      2.491      4.198
REMARK  12 active torsions:
REMARK  status: ('A' for Active; 'I' for Inactive)
REMARK    1  A    between atoms: C5_6  and  C6_7 
REMARK    2  A    between atoms: C6_7  and  C7_8 
REMARK       I    between atoms: C7_8  and  N2_10 
REMARK    3  A    between atoms: N2_10  and  C8_12 
REMARK    4  A    between atoms: C8_12  and  C9_13 
REMARK    5  A    between atoms: C10_14  and  C11_15 
REMARK    6  A    between atoms: C11_15  and  N3_16 
REMARK    7  A    between atoms: N3_16  and  C12_17 
REMARK    8  A    between atoms: C12_17  and  C13_18 
REMARK    9  A    between atoms: C13_18  and  N4_19 
REMARK   10  A    between atoms: C16_22  and  O2_23 
REMARK   11  A    between atoms: C17_25  and  C18_26 
REMARK   12  A    between atoms: C18_26  and  O3_27 
ROOT
HETATM    1  N3  UNL     1      12.561 -16.253  20.483  1.00  0.00    -0.052 N 
HETATM    2  C20 UNL     1      11.360 -17.065  20.455  1.00  0.00     0.266 A 
HETATM    3  C21 UNL     1      11.758 -16.189  19.287  1.00  0.00     0.266 A 
ENDROOT
BRANCH   1   4
HETATM    4  C11 UNL     1      13.790 -17.003  20.352  1.00  0.00     0.331 C 
BRANCH   4   5
HETATM    5  C10 UNL     1      14.356 -17.355  21.655  1.00  0.00    -0.077 C 
HETATM    6  C9  UNL     1      14.835 -17.667  22.731  1.00  0.00    -0.085 C 
BRANCH   6   7
HETATM    7  C8  UNL     1      15.426 -18.027  24.027  1.00  0.00     0.217 C 
BRANCH   7   8
HETATM    8  N2  UNL     1      16.360 -17.046  24.491  1.00  0.00    -0.351 N 
HETATM    9  C7  UNL     1      17.727 -17.334  24.568  1.00  0.00     0.218 C 
HETATM   10  O1  UNL     1      18.141 -18.461  24.228  1.00  0.00    -0.274 OA
ATOM     11  H2  UNL     1      16.024 -16.124  24.771  1.00  0.00     0.163 HD
BRANCH   9  12
HETATM   12  C6  UNL     1      18.680 -16.312  25.050  1.00  0.00     0.109 C 
BRANCH  12  13
HETATM   13  C5  UNL     1      18.540 -15.049  24.230  1.00  0.00     0.022 C 
HETATM   14  C4  UNL     1      19.346 -13.946  24.922  1.00  0.00     0.034 C 
HETATM   15  C3  UNL     1      19.912 -13.139  23.798  1.00  0.00     0.237 C 
HETATM   16  N1  UNL     1      19.435 -13.713  22.576  1.00  0.00    -0.074 N 
HETATM   17  C1  UNL     1      18.158 -13.202  22.152  1.00  0.00     0.272 C 
HETATM   18  C2  UNL     1      20.450 -13.520  21.562  1.00  0.00     0.272 C 
HETATM   19  C22 UNL     1      19.261 -15.116  22.905  1.00  0.00     0.241 C 
ENDBRANCH  12  13
ENDBRANCH   9  12
ENDBRANCH   7   8
ENDBRANCH   6   7
ENDBRANCH   4   5
ENDBRANCH   1   4
BRANCH   1  20
HETATM   20  C12 UNL     1      12.631 -15.128  21.370  1.00  0.00     0.266 C 
BRANCH  20  21
HETATM   21  C13 UNL     1      12.280 -13.822  20.705  1.00  0.00     0.265 C 
BRANCH  21  22
HETATM   22  N4  UNL     1      13.457 -12.982  20.649  1.00  0.00    -0.066 N 
HETATM   23  C14 UNL     1      14.414 -13.310  21.684  1.00  0.00     0.272 C 
HETATM   24  C15 UNL     1      13.011 -11.596  20.735  1.00  0.00     0.269 C 
HETATM   25  C16 UNL     1      14.086 -10.785  20.038  1.00  0.00     0.152 C 
HETATM   26  C17 UNL     1      14.612 -11.739  18.985  1.00  0.00     0.066 C 
HETATM   27  C19 UNL     1      14.147 -13.102  19.377  1.00  0.00     0.246 C 
BRANCH  25  28
HETATM   28  O2  UNL     1      13.454  -9.692  19.447  1.00  0.00    -0.393 OA
ATOM     29  H2  UNL     1      13.975  -9.445  18.692  1.00  0.00     0.210 HD
ENDBRANCH  25  28
BRANCH  26  30
HETATM   30  C18 UNL     1      16.109 -11.596  18.953  1.00  0.00     0.173 C 
BRANCH  30  31
HETATM   31  O3  UNL     1      16.518 -10.626  19.865  1.00  0.00    -0.400 OA
ATOM     32  H3  UNL     1      17.210 -10.094  19.489  1.00  0.00     0.209 HD
ENDBRANCH  30  31
ENDBRANCH  26  30
ENDBRANCH  21  22
ENDBRANCH  20  21
ENDBRANCH   1  20
TORSDOF 12
ENDMDL
