MODEL 1
REMARK VINA RESULT: -7.656390240      0.000      0.000
REMARK  9 active torsions:
REMARK  status: ('A' for Active; 'I' for Inactive)
REMARK    1  A    between atoms: C2_2  and  C3_3 
REMARK    2  A    between atoms: C3_3  and  C4_4 
REMARK    3  A    between atoms: C6_8  and  N2_9 
REMARK       I    between atoms: N2_9  and  C7_11 
REMARK    4  A    between atoms: C7_11  and  C8_13 
REMARK    5  A    between atoms: C8_13  and  C9_14 
REMARK    6  A    between atoms: C9_14  and  C10_15 
REMARK    7  A    between atoms: C10_15  and  N3_16 
REMARK       I    between atoms: N3_16  and  C11_18 
REMARK    8  A    between atoms: C11_18  and  C12_20 
REMARK    9  A    between atoms: C13_21  and  N4_22 
ROOT
HETATM    1  C10 UNL     1      18.693 -12.397  21.239  1.00  0.00     0.123 C 
ENDROOT
BRANCH   1   2
HETATM    2  C9  UNL     1      17.836 -13.311  20.434  1.00  0.00     0.029 C 
BRANCH   2   3
HETATM    3  C8  UNL     1      16.415 -12.859  20.268  1.00  0.00     0.105 C 
BRANCH   3   4
HETATM    4  C7  UNL     1      15.599 -13.111  21.445  1.00  0.00     0.235 C 
HETATM    5  N2  UNL     1      14.204 -13.368  21.259  1.00  0.00    -0.160 N 
ATOM      6  H2  UNL     1      13.910 -14.170  20.702  1.00  0.00     0.187 HD
HETATM    7  O1  UNL     1      16.007 -13.125  22.629  1.00  0.00    -0.273 OA
BRANCH   5   8
HETATM    8  C6  UNL     1      13.305 -12.587  21.793  1.00  0.00     0.685 A 
HETATM    9  N1  UNL     1      12.192 -12.946  22.447  1.00  0.00    -0.200 N 
HETATM   10  C5  UNL     1      11.544 -11.833  22.835  1.00  0.00     0.131 A 
ATOM     11  H1  UNL     1      11.886 -13.903  22.620  1.00  0.00     0.183 HD
HETATM   12  C4  UNL     1      12.278 -10.740  22.409  1.00  0.00     0.042 A 
HETATM   13  N7  UNL     1      13.349 -11.247  21.776  1.00  0.00    -0.194 N 
ATOM     14  H7  UNL     1      14.089 -10.693  21.345  1.00  0.00     0.184 HD
BRANCH  12  15
HETATM   15  C3  UNL     1      11.932  -9.289  22.622  1.00  0.00     0.058 C 
BRANCH  15  16
HETATM   16  C2  UNL     1      11.386  -9.183  24.032  1.00  0.00     0.002 C 
HETATM   17  C1  UNL     1      11.700  -7.793  24.535  1.00  0.00     0.005 C 
ENDBRANCH  15  16
ENDBRANCH  12  15
ENDBRANCH   5   8
ENDBRANCH   3   4
ENDBRANCH   2   3
ENDBRANCH   1   2
BRANCH   1  18
HETATM   18  N3  UNL     1      19.168 -13.104  22.438  1.00  0.00    -0.355 N 
HETATM   19  C11 UNL     1      20.529 -13.497  22.577  1.00  0.00     0.281 C 
HETATM   20  O2  UNL     1      21.260 -13.184  21.620  1.00  0.00    -0.266 OA
ATOM     21  H3  UNL     1      18.508 -13.318  23.186  1.00  0.00     0.162 HD
BRANCH  19  22
HETATM   22  C12 UNL     1      20.975 -14.208  23.777  1.00  0.00     0.267 A 
HETATM   23  C13 UNL     1      20.787 -15.501  24.062  1.00  0.00     0.246 A 
HETATM   24  C17 UNL     1      21.413 -15.744  25.379  1.00  0.00     0.303 A 
HETATM   25  O3  UNL     1      21.467 -16.839  26.026  1.00  0.00    -0.264 OA
HETATM   26  N5  UNL     1      21.952 -14.521  25.798  1.00  0.00    -0.175 N 
HETATM   27  N6  UNL     1      21.705 -13.558  24.832  1.00  0.00     0.046 N 
ATOM     28  H5  UNL     1      22.448 -14.364  26.675  1.00  0.00     0.198 HD
HETATM   29  C18 UNL     1      20.960 -12.460  25.427  1.00  0.00     0.309 C 
HETATM   30  C19 UNL     1      22.980 -13.027  24.335  1.00  0.00     0.309 C 
BRANCH  23  31
HETATM   31  N4  UNL     1      20.127 -16.506  23.310  1.00  0.00    -0.041 N 
HETATM   32  C14 UNL     1      20.605 -17.837  23.778  1.00  0.00     0.279 C 
HETATM   33  C15 UNL     1      18.704 -16.571  23.502  1.00  0.00     0.279 C 
HETATM   34  C16 UNL     1      20.429 -16.509  21.905  1.00  0.00     0.279 C 
ENDBRANCH  23  31
ENDBRANCH  19  22
ENDBRANCH   1  18
TORSDOF 9
ENDMDL
MODEL 2
REMARK VINA RESULT: -7.621594601      1.305      1.506
REMARK  9 active torsions:
REMARK  status: ('A' for Active; 'I' for Inactive)
REMARK    1  A    between atoms: C2_2  and  C3_3 
REMARK    2  A    between atoms: C3_3  and  C4_4 
REMARK    3  A    between atoms: C6_8  and  N2_9 
REMARK       I    between atoms: N2_9  and  C7_11 
REMARK    4  A    between atoms: C7_11  and  C8_13 
REMARK    5  A    between atoms: C8_13  and  C9_14 
REMARK    6  A    between atoms: C9_14  and  C10_15 
REMARK    7  A    between atoms: C10_15  and  N3_16 
REMARK       I    between atoms: N3_16  and  C11_18 
REMARK    8  A    between atoms: C11_18  and  C12_20 
REMARK    9  A    between atoms: C13_21  and  N4_22 
ROOT
HETATM    1  C10 UNL     1      18.372 -13.606  21.390  1.00  0.00     0.123 C 
ENDROOT
BRANCH   1   2
HETATM    2  C9  UNL     1      17.868 -12.212  21.530  1.00  0.00     0.029 C 
BRANCH   2   3
HETATM    3  C8  UNL     1      17.682 -11.476  20.237  1.00  0.00     0.105 C 
BRANCH   3   4
HETATM    4  C7  UNL     1      16.304 -11.489  19.771  1.00  0.00     0.235 C 
HETATM    5  N2  UNL     1      15.452 -10.403  20.147  1.00  0.00    -0.160 N 
ATOM      6  H2  UNL     1      15.692  -9.453  19.865  1.00  0.00     0.187 HD
HETATM    7  O1  UNL     1      15.781 -12.377  19.060  1.00  0.00    -0.273 OA
BRANCH   5   8
HETATM    8  C6  UNL     1      14.372 -10.615  20.847  1.00  0.00     0.685 A 
HETATM    9  N1  UNL     1      13.687 -11.761  20.973  1.00  0.00    -0.200 N 
HETATM   10  C5  UNL     1      12.637 -11.547  21.786  1.00  0.00     0.131 A 
ATOM     11  H1  UNL     1      13.924 -12.647  20.527  1.00  0.00     0.183 HD
HETATM   12  C4  UNL     1      12.665 -10.221  22.182  1.00  0.00     0.042 A 
HETATM   13  N7  UNL     1      13.744  -9.688  21.585  1.00  0.00    -0.194 N 
ATOM     14  H7  UNL     1      14.042  -8.717  21.679  1.00  0.00     0.184 HD
BRANCH  12  15
HETATM   15  C3  UNL     1      11.682  -9.537  23.095  1.00  0.00     0.058 C 
BRANCH  15  16
HETATM   16  C2  UNL     1      12.428  -8.387  23.741  1.00  0.00     0.002 C 
HETATM   17  C1  UNL     1      11.433  -7.614  24.575  1.00  0.00     0.005 C 
ENDBRANCH  15  16
ENDBRANCH  12  15
ENDBRANCH   5   8
ENDBRANCH   3   4
ENDBRANCH   2   3
ENDBRANCH   1   2
BRANCH   1  18
HETATM   18  N3  UNL     1      19.003 -14.026  22.651  1.00  0.00    -0.355 N 
HETATM   19  C11 UNL     1      20.418 -14.099  22.783  1.00  0.00     0.281 C 
HETATM   20  O2  UNL     1      21.052 -13.773  21.762  1.00  0.00    -0.266 OA
ATOM     21  H3  UNL     1      18.414 -14.269  23.447  1.00  0.00     0.162 HD
BRANCH  19  22
HETATM   22  C12 UNL     1      21.023 -14.528  24.045  1.00  0.00     0.267 A 
HETATM   23  C13 UNL     1      21.067 -15.772  24.534  1.00  0.00     0.246 A 
HETATM   24  C17 UNL     1      21.774 -15.697  25.830  1.00  0.00     0.303 A 
HETATM   25  O3  UNL     1      22.036 -16.652  26.631  1.00  0.00    -0.264 OA
HETATM   26  N5  UNL     1      22.113 -14.352  26.024  1.00  0.00    -0.175 N 
HETATM   27  N6  UNL     1      21.671 -13.609  24.942  1.00  0.00     0.046 N 
ATOM     28  H5  UNL     1      22.607 -13.980  26.835  1.00  0.00     0.198 HD
HETATM   29  C18 UNL     1      20.773 -12.565  25.409  1.00  0.00     0.309 C 
HETATM   30  C19 UNL     1      22.817 -12.965  24.290  1.00  0.00     0.309 C 
BRANCH  23  31
HETATM   31  N4  UNL     1      20.559 -16.978  23.986  1.00  0.00    -0.041 N 
HETATM   32  C14 UNL     1      21.268 -18.122  24.624  1.00  0.00     0.279 C 
HETATM   33  C15 UNL     1      19.174 -17.237  24.268  1.00  0.00     0.279 C 
HETATM   34  C16 UNL     1      20.812 -17.159  22.583  1.00  0.00     0.279 C 
ENDBRANCH  23  31
ENDBRANCH  19  22
ENDBRANCH   1  18
TORSDOF 9
ENDMDL
MODEL 3
REMARK VINA RESULT: -7.470839691      2.180      3.011
REMARK  9 active torsions:
REMARK  status: ('A' for Active; 'I' for Inactive)
REMARK    1  A    between atoms: C2_2  and  C3_3 
REMARK    2  A    between atoms: C3_3  and  C4_4 
REMARK    3  A    between atoms: C6_8  and  N2_9 
REMARK       I    between atoms: N2_9  and  C7_11 
REMARK    4  A    between atoms: C7_11  and  C8_13 
REMARK    5  A    between atoms: C8_13  and  C9_14 
REMARK    6  A    between atoms: C9_14  and  C10_15 
REMARK    7  A    between atoms: C10_15  and  N3_16 
REMARK       I    between atoms: N3_16  and  C11_18 
REMARK    8  A    between atoms: C11_18  and  C12_20 
REMARK    9  A    between atoms: C13_21  and  N4_22 
ROOT
HETATM    1  C10 UNL     1      20.402 -12.897  20.597  1.00  0.00     0.123 C 
ENDROOT
BRANCH   1   2
HETATM    2  C9  UNL     1      19.497 -12.079  19.742  1.00  0.00     0.029 C 
BRANCH   2   3
HETATM    3  C8  UNL     1      18.323 -11.480  20.459  1.00  0.00     0.105 C 
BRANCH   3   4
HETATM    4  C7  UNL     1      17.079 -11.617  19.719  1.00  0.00     0.235 C 
HETATM    5  N2  UNL     1      16.002 -10.731  20.038  1.00  0.00    -0.160 N 
ATOM      6  H2  UNL     1      16.128  -9.725  19.927  1.00  0.00     0.187 HD
HETATM    7  O1  UNL     1      16.854 -12.452  18.814  1.00  0.00    -0.273 OA
BRANCH   5   8
HETATM    8  C6  UNL     1      14.861 -11.195  20.468  1.00  0.00     0.685 A 
HETATM    9  N1  UNL     1      14.279 -12.360  20.154  1.00  0.00    -0.200 N 
HETATM   10  C5  UNL     1      13.111 -12.450  20.816  1.00  0.00     0.131 A 
ATOM     11  H1  UNL     1      14.658 -13.062  19.518  1.00  0.00     0.183 HD
HETATM   12  C4  UNL     1      12.958 -11.301  21.570  1.00  0.00     0.042 A 
HETATM   13  N7  UNL     1      14.052 -10.560  21.328  1.00  0.00    -0.194 N 
ATOM     14  H7  UNL     1      14.241  -9.646  21.740  1.00  0.00     0.184 HD
BRANCH  12  15
HETATM   15  C3  UNL     1      11.798 -10.968  22.471  1.00  0.00     0.058 C 
BRANCH  15  16
HETATM   16  C2  UNL     1      11.953  -9.507  22.846  1.00  0.00     0.002 C 
HETATM   17  C1  UNL     1      11.229  -9.296  24.156  1.00  0.00     0.005 C 
ENDBRANCH  15  16
ENDBRANCH  12  15
ENDBRANCH   5   8
ENDBRANCH   3   4
ENDBRANCH   2   3
ENDBRANCH   1   2
BRANCH   1  18
HETATM   18  N3  UNL     1      19.618 -13.529  21.670  1.00  0.00    -0.355 N 
HETATM   19  C11 UNL     1      19.739 -14.919  21.955  1.00  0.00     0.281 C 
HETATM   20  O2  UNL     1      20.555 -15.527  21.238  1.00  0.00    -0.266 OA
ATOM     21  H3  UNL     1      18.976 -12.961  22.221  1.00  0.00     0.162 HD
BRANCH  19  22
HETATM   22  C12 UNL     1      18.942 -15.528  23.021  1.00  0.00     0.267 A 
HETATM   23  C13 UNL     1      17.804 -16.216  22.882  1.00  0.00     0.246 A 
HETATM   24  C17 UNL     1      17.380 -16.621  24.239  1.00  0.00     0.303 A 
HETATM   25  O3  UNL     1      16.349 -17.293  24.565  1.00  0.00    -0.264 OA
HETATM   26  N5  UNL     1      18.341 -16.119  25.125  1.00  0.00    -0.175 N 
HETATM   27  N6  UNL     1      19.318 -15.448  24.407  1.00  0.00     0.046 N 
ATOM     28  H5  UNL     1      18.324 -16.230  26.139  1.00  0.00     0.198 HD
HETATM   29  C18 UNL     1      19.404 -14.075  24.879  1.00  0.00     0.309 C 
HETATM   30  C19 UNL     1      20.619 -16.089  24.633  1.00  0.00     0.309 C 
BRANCH  23  31
HETATM   31  N4  UNL     1      17.080 -16.538  21.705  1.00  0.00    -0.041 N 
HETATM   32  C14 UNL     1      15.728 -17.025  22.101  1.00  0.00     0.279 C 
HETATM   33  C15 UNL     1      16.799 -15.423  20.842  1.00  0.00     0.279 C 
HETATM   34  C16 UNL     1      17.623 -17.624  20.937  1.00  0.00     0.279 C 
ENDBRANCH  23  31
ENDBRANCH  19  22
ENDBRANCH   1  18
TORSDOF 9
ENDMDL
MODEL 4
REMARK VINA RESULT: -7.469579494      1.459      2.956
REMARK  9 active torsions:
REMARK  status: ('A' for Active; 'I' for Inactive)
REMARK    1  A    between atoms: C2_2  and  C3_3 
REMARK    2  A    between atoms: C3_3  and  C4_4 
REMARK    3  A    between atoms: C6_8  and  N2_9 
REMARK       I    between atoms: N2_9  and  C7_11 
REMARK    4  A    between atoms: C7_11  and  C8_13 
REMARK    5  A    between atoms: C8_13  and  C9_14 
REMARK    6  A    between atoms: C9_14  and  C10_15 
REMARK    7  A    between atoms: C10_15  and  N3_16 
REMARK       I    between atoms: N3_16  and  C11_18 
REMARK    8  A    between atoms: C11_18  and  C12_20 
REMARK    9  A    between atoms: C13_21  and  N4_22 
ROOT
HETATM    1  C10 UNL     1      18.349 -12.259  21.402  1.00  0.00     0.123 C 
ENDROOT
BRANCH   1   2
HETATM    2  C9  UNL     1      17.187 -12.707  20.586  1.00  0.00     0.029 C 
BRANCH   2   3
HETATM    3  C8  UNL     1      17.048 -12.022  19.258  1.00  0.00     0.105 C 
BRANCH   3   4
HETATM    4  C7  UNL     1      15.778 -11.329  19.109  1.00  0.00     0.235 C 
HETATM    5  N2  UNL     1      15.394 -10.396  20.123  1.00  0.00    -0.160 N 
ATOM      6  H2  UNL     1      15.983  -9.584  20.310  1.00  0.00     0.187 HD
HETATM    7  O1  UNL     1      14.973 -11.472  18.161  1.00  0.00    -0.273 OA
BRANCH   5   8
HETATM    8  C6  UNL     1      14.299 -10.572  20.811  1.00  0.00     0.685 A 
HETATM    9  N1  UNL     1      13.537 -11.672  20.872  1.00  0.00    -0.200 N 
HETATM   10  C5  UNL     1      12.501 -11.432  21.695  1.00  0.00     0.131 A 
ATOM     11  H1  UNL     1      13.713 -12.545  20.375  1.00  0.00     0.183 HD
HETATM   12  C4  UNL     1      12.619 -10.136  22.166  1.00  0.00     0.042 A 
HETATM   13  N7  UNL     1      13.735  -9.646  21.600  1.00  0.00    -0.194 N 
ATOM     14  H7  UNL     1      14.099  -8.705  21.749  1.00  0.00     0.184 HD
BRANCH  12  15
HETATM   15  C3  UNL     1      11.682  -9.438  23.117  1.00  0.00     0.058 C 
BRANCH  15  16
HETATM   16  C2  UNL     1      12.472  -8.304  23.739  1.00  0.00     0.002 C 
HETATM   17  C1  UNL     1      11.523  -7.519  24.614  1.00  0.00     0.005 C 
ENDBRANCH  15  16
ENDBRANCH  12  15
ENDBRANCH   5   8
ENDBRANCH   3   4
ENDBRANCH   2   3
ENDBRANCH   1   2
BRANCH   1  18
HETATM   18  N3  UNL     1      18.732 -13.331  22.334  1.00  0.00    -0.355 N 
HETATM   19  C11 UNL     1      20.027 -13.920  22.294  1.00  0.00     0.281 C 
HETATM   20  O2  UNL     1      20.786 -13.447  21.427  1.00  0.00    -0.266 OA
ATOM     21  H3  UNL     1      18.055 -13.659  23.023  1.00  0.00     0.162 HD
BRANCH  19  22
HETATM   22  C12 UNL     1      20.382 -14.992  23.225  1.00  0.00     0.267 A 
HETATM   23  C13 UNL     1      21.015 -14.865  24.396  1.00  0.00     0.246 A 
HETATM   24  C17 UNL     1      21.145 -16.223  24.962  1.00  0.00     0.303 A 
HETATM   25  O3  UNL     1      21.685 -16.560  26.066  1.00  0.00    -0.264 OA
HETATM   26  N5  UNL     1      20.552 -17.099  24.044  1.00  0.00    -0.175 N 
HETATM   27  N6  UNL     1      20.068 -16.372  22.968  1.00  0.00     0.046 N 
ATOM     28  H5  UNL     1      20.488 -18.111  24.150  1.00  0.00     0.198 HD
HETATM   29  C18 UNL     1      20.680 -16.860  21.742  1.00  0.00     0.309 C 
HETATM   30  C19 UNL     1      18.617 -16.566  22.860  1.00  0.00     0.309 C 
BRANCH  23  31
HETATM   31  N4  UNL     1      21.502 -13.697  25.038  1.00  0.00    -0.041 N 
HETATM   32  C14 UNL     1      21.928 -14.060  26.419  1.00  0.00     0.279 C 
HETATM   33  C15 UNL     1      22.688 -13.134  24.455  1.00  0.00     0.279 C 
HETATM   34  C16 UNL     1      20.523 -12.665  25.243  1.00  0.00     0.279 C 
ENDBRANCH  23  31
ENDBRANCH  19  22
ENDBRANCH   1  18
TORSDOF 9
ENDMDL
MODEL 5
REMARK VINA RESULT: -7.441214878      1.388      1.787
REMARK  9 active torsions:
REMARK  status: ('A' for Active; 'I' for Inactive)
REMARK    1  A    between atoms: C2_2  and  C3_3 
REMARK    2  A    between atoms: C3_3  and  C4_4 
REMARK    3  A    between atoms: C6_8  and  N2_9 
REMARK       I    between atoms: N2_9  and  C7_11 
REMARK    4  A    between atoms: C7_11  and  C8_13 
REMARK    5  A    between atoms: C8_13  and  C9_14 
REMARK    6  A    between atoms: C9_14  and  C10_15 
REMARK    7  A    between atoms: C10_15  and  N3_16 
REMARK       I    between atoms: N3_16  and  C11_18 
REMARK    8  A    between atoms: C11_18  and  C12_20 
REMARK    9  A    between atoms: C13_21  and  N4_22 
ROOT
HETATM    1  C10 UNL     1      18.571 -12.505  21.425  1.00  0.00     0.123 C 
ENDROOT
BRANCH   1   2
HETATM    2  C9  UNL     1      17.281 -13.146  21.046  1.00  0.00     0.029 C 
BRANCH   2   3
HETATM    3  C8  UNL     1      17.014 -13.202  19.571  1.00  0.00     0.105 C 
BRANCH   3   4
HETATM    4  C7  UNL     1      15.810 -12.483  19.186  1.00  0.00     0.235 C 
HETATM    5  N2  UNL     1      15.736 -11.084  19.475  1.00  0.00    -0.160 N 
ATOM      6  H2  UNL     1      16.421 -10.448  19.068  1.00  0.00     0.187 HD
HETATM    7  O1  UNL     1      14.812 -12.980  18.616  1.00  0.00    -0.273 OA
BRANCH   5   8
HETATM    8  C6  UNL     1      14.800 -10.612  20.253  1.00  0.00     0.685 A 
HETATM    9  N1  UNL     1      14.603  -9.339  20.621  1.00  0.00    -0.200 N 
HETATM   10  C5  UNL     1      13.530  -9.285  21.429  1.00  0.00     0.131 A 
ATOM     11  H1  UNL     1      15.173  -8.543  20.335  1.00  0.00     0.183 HD
HETATM   12  C4  UNL     1      13.038 -10.571  21.573  1.00  0.00     0.042 A 
HETATM   13  N7  UNL     1      13.846 -11.352  20.836  1.00  0.00    -0.194 N 
ATOM     14  H7  UNL     1      13.746 -12.362  20.734  1.00  0.00     0.184 HD
BRANCH  12  15
HETATM   15  C3  UNL     1      11.844 -10.988  22.391  1.00  0.00     0.058 C 
BRANCH  15  16
HETATM   16  C2  UNL     1      11.509  -9.812  23.287  1.00  0.00     0.002 C 
HETATM   17  C1  UNL     1      11.050 -10.371  24.614  1.00  0.00     0.005 C 
ENDBRANCH  15  16
ENDBRANCH  12  15
ENDBRANCH   5   8
ENDBRANCH   3   4
ENDBRANCH   2   3
ENDBRANCH   1   2
BRANCH   1  18
HETATM   18  N3  UNL     1      19.115 -13.174  22.617  1.00  0.00    -0.355 N 
HETATM   19  C11 UNL     1      20.488 -13.543  22.697  1.00  0.00     0.281 C 
HETATM   20  O2  UNL     1      21.165 -13.244  21.697  1.00  0.00    -0.266 OA
ATOM     21  H3  UNL     1      18.497 -13.378  23.402  1.00  0.00     0.162 HD
BRANCH  19  22
HETATM   22  C12 UNL     1      21.004 -14.216  23.890  1.00  0.00     0.267 A 
HETATM   23  C13 UNL     1      20.858 -15.506  24.214  1.00  0.00     0.246 A 
HETATM   24  C17 UNL     1      21.549 -15.704  25.505  1.00  0.00     0.303 A 
HETATM   25  O3  UNL     1      21.657 -16.783  26.173  1.00  0.00    -0.264 OA
HETATM   26  N5  UNL     1      22.080 -14.461  25.870  1.00  0.00    -0.175 N 
HETATM   27  N6  UNL     1      21.768 -13.527  24.896  1.00  0.00     0.046 N 
ATOM     28  H5  UNL     1      22.612 -14.274  26.720  1.00  0.00     0.198 HD
HETATM   29  C18 UNL     1      21.027 -12.431  25.499  1.00  0.00     0.309 C 
HETATM   30  C19 UNL     1      23.006 -12.981  24.327  1.00  0.00     0.309 C 
BRANCH  23  31
HETATM   31  N4  UNL     1      20.186 -16.542  23.516  1.00  0.00    -0.041 N 
HETATM   32  C14 UNL     1      20.728 -17.851  23.977  1.00  0.00     0.279 C 
HETATM   33  C15 UNL     1      18.778 -16.643  23.788  1.00  0.00     0.279 C 
HETATM   34  C16 UNL     1      20.410 -16.561  22.096  1.00  0.00     0.279 C 
ENDBRANCH  23  31
ENDBRANCH  19  22
ENDBRANCH   1  18
TORSDOF 9
ENDMDL
