MODEL 1
REMARK VINA RESULT: -6.335268599      0.000      0.000
REMARK  9 active torsions:
REMARK  status: ('A' for Active; 'I' for Inactive)
REMARK    1  A    between atoms: N1_2  and  C4_5 
REMARK    2  A    between atoms: C4_5  and  C5_6 
REMARK    3  A    between atoms: C5_6  and  N2_7 
REMARK    4  A    between atoms: N2_7  and  C8_10 
REMARK    5  A    between atoms: C10_12  and  N3_13 
REMARK       I    between atoms: N3_13  and  C11_15 
REMARK    6  A    between atoms: C11_15  and  C12_17 
REMARK    7  A    between atoms: C12_17  and  C13_18 
REMARK    8  A    between atoms: C19_25  and  O2_26 
REMARK    9  A    between atoms: C20_28  and  O3_29 
ROOT
HETATM    1  N3  UNL     1      20.813 -13.273  22.557  1.00  0.00    -0.354 N 
ATOM      2  H3  UNL     1      20.625 -12.305  22.816  1.00  0.00     0.162 HD
HETATM    3  C11 UNL     1      20.351 -13.740  21.320  1.00  0.00     0.218 C 
HETATM    4  O1  UNL     1      20.602 -14.948  21.027  1.00  0.00    -0.274 OA
ENDROOT
BRANCH   3   5
HETATM    5  C12 UNL     1      19.606 -12.842  20.423  1.00  0.00     0.107 C 
BRANCH   5   6
HETATM    6  C13 UNL     1      18.381 -12.240  21.079  1.00  0.00    -0.003 C 
HETATM    7  C14 UNL     1      17.510 -11.718  19.929  1.00  0.00     0.033 C 
HETATM    8  C15 UNL     1      16.620 -12.844  19.440  1.00  0.00     0.238 C 
HETATM    9  N4  UNL     1      15.577 -13.147  20.399  1.00  0.00    -0.062 N 
HETATM   10  C16 UNL     1      16.119 -12.929  21.713  1.00  0.00     0.238 C 
HETATM   11  C18 UNL     1      15.069 -14.487  20.269  1.00  0.00     0.271 C 
HETATM   12  C21 UNL     1      14.386 -12.334  20.171  1.00  0.00     0.271 C 
HETATM   13  C17 UNL     1      17.565 -13.354  21.726  1.00  0.00     0.033 C 
HETATM   14  C19 UNL     1      13.671 -14.473  20.852  1.00  0.00     0.174 C 
HETATM   15  C20 UNL     1      13.399 -12.992  21.125  1.00  0.00     0.174 C 
BRANCH  14  16
HETATM   16  O2  UNL     1      13.608 -15.124  22.080  1.00  0.00    -0.391 OA
ATOM     17  H2  UNL     1      13.150 -14.610  22.734  1.00  0.00     0.210 HD
ENDBRANCH  14  16
BRANCH  15  18
HETATM   18  O3  UNL     1      12.086 -12.750  20.782  1.00  0.00    -0.391 OA
ATOM     19  H3  UNL     1      11.988 -11.809  20.696  1.00  0.00     0.210 HD
ENDBRANCH  15  18
ENDBRANCH   5   6
ENDBRANCH   3   5
BRANCH   1  20
HETATM   20  C10 UNL     1      21.559 -14.122  23.494  1.00  0.00     0.117 A 
HETATM   21  C8  UNL     1      20.787 -14.885  24.506  1.00  0.00     0.214 A 
HETATM   22  C9  UNL     1      21.531 -13.636  24.897  1.00  0.00     0.063 A 
BRANCH  21  23
HETATM   23  N2  UNL     1      21.280 -16.159  24.994  1.00  0.00    -0.067 N 
HETATM   24  C6  UNL     1      22.207 -15.984  26.088  1.00  0.00     0.272 C 
HETATM   25  C7  UNL     1      22.020 -16.863  23.937  1.00  0.00     0.272 C 
BRANCH  23  26
HETATM   26  C5  UNL     1      20.161 -17.014  25.343  1.00  0.00     0.265 C 
BRANCH  26  27
HETATM   27  C4  UNL     1      18.862 -16.434  24.859  1.00  0.00     0.264 C 
BRANCH  27  28
HETATM   28  N1  UNL     1      18.101 -17.326  24.039  1.00  0.00    -0.077 N 
HETATM   29  C1  UNL     1      18.606 -18.691  24.122  1.00  0.00     0.271 C 
HETATM   30  C2  UNL     1      16.697 -17.373  24.391  1.00  0.00     0.271 C 
HETATM   31  C3  UNL     1      18.169 -16.948  22.639  1.00  0.00     0.271 C 
ENDBRANCH  27  28
ENDBRANCH  26  27
ENDBRANCH  23  26
ENDBRANCH  21  23
ENDBRANCH   1  20
TORSDOF 9
ENDMDL
MODEL 2
REMARK VINA RESULT: -6.301399648      2.332      6.634
REMARK  9 active torsions:
REMARK  status: ('A' for Active; 'I' for Inactive)
REMARK    1  A    between atoms: N1_2  and  C4_5 
REMARK    2  A    between atoms: C4_5  and  C5_6 
REMARK    3  A    between atoms: C5_6  and  N2_7 
REMARK    4  A    between atoms: N2_7  and  C8_10 
REMARK    5  A    between atoms: C10_12  and  N3_13 
REMARK       I    between atoms: N3_13  and  C11_15 
REMARK    6  A    between atoms: C11_15  and  C12_17 
REMARK    7  A    between atoms: C12_17  and  C13_18 
REMARK    8  A    between atoms: C19_25  and  O2_26 
REMARK    9  A    between atoms: C20_28  and  O3_29 
ROOT
HETATM    1  N3  UNL     1      17.775 -12.166  19.117  1.00  0.00    -0.354 N 
ATOM      2  H3  UNL     1      18.211 -12.571  18.288  1.00  0.00     0.162 HD
HETATM    3  C11 UNL     1      18.565 -11.944  20.252  1.00  0.00     0.218 C 
HETATM    4  O1  UNL     1      17.994 -11.438  21.265  1.00  0.00    -0.274 OA
ENDROOT
BRANCH   3   5
HETATM    5  C12 UNL     1      19.994 -12.295  20.237  1.00  0.00     0.107 C 
BRANCH   5   6
HETATM    6  C13 UNL     1      20.257 -13.707  20.717  1.00  0.00    -0.003 C 
HETATM    7  C14 UNL     1      21.006 -13.560  22.047  1.00  0.00     0.033 C 
HETATM    8  C15 UNL     1      19.992 -13.434  23.167  1.00  0.00     0.238 C 
HETATM    9  N4  UNL     1      19.322 -14.694  23.418  1.00  0.00    -0.062 N 
HETATM   10  C16 UNL     1      19.199 -15.378  22.159  1.00  0.00     0.238 C 
HETATM   11  C18 UNL     1      18.036 -14.531  24.043  1.00  0.00     0.271 C 
HETATM   12  C21 UNL     1      20.048 -15.501  24.394  1.00  0.00     0.271 C 
HETATM   13  C17 UNL     1      18.929 -14.366  21.074  1.00  0.00     0.033 C 
HETATM   14  C19 UNL     1      17.746 -15.829  24.767  1.00  0.00     0.174 C 
HETATM   15  C20 UNL     1      19.049 -16.622  24.644  1.00  0.00     0.174 C 
BRANCH  14  16
HETATM   16  O2  UNL     1      16.761 -16.576  24.129  1.00  0.00    -0.391 OA
ATOM     17  H2  UNL     1      15.968 -16.642  24.649  1.00  0.00     0.210 HD
ENDBRANCH  14  16
BRANCH  15  18
HETATM   18  O3  UNL     1      19.252 -17.257  25.850  1.00  0.00    -0.391 OA
ATOM     19  H3  UNL     1      19.128 -16.608  26.533  1.00  0.00     0.210 HD
ENDBRANCH  15  18
ENDBRANCH   5   6
ENDBRANCH   3   5
BRANCH   1  20
HETATM   20  C10 UNL     1      16.344 -11.838  19.073  1.00  0.00     0.117 A 
HETATM   21  C8  UNL     1      15.389 -12.816  19.648  1.00  0.00     0.214 A 
HETATM   22  C9  UNL     1      15.558 -12.703  18.157  1.00  0.00     0.063 A 
BRANCH  21  23
HETATM   23  N2  UNL     1      14.141 -12.363  20.234  1.00  0.00    -0.067 N 
HETATM   24  C6  UNL     1      13.811 -11.024  19.805  1.00  0.00     0.272 C 
HETATM   25  C7  UNL     1      14.252 -12.311  21.699  1.00  0.00     0.272 C 
BRANCH  23  26
HETATM   26  C5  UNL     1      13.090 -13.318  19.940  1.00  0.00     0.265 C 
BRANCH  26  27
HETATM   27  C4  UNL     1      12.960 -14.340  21.035  1.00  0.00     0.264 C 
BRANCH  27  28
HETATM   28  N1  UNL     1      13.198 -15.683  20.603  1.00  0.00    -0.077 N 
HETATM   29  C1  UNL     1      12.113 -16.573  21.001  1.00  0.00     0.271 C 
HETATM   30  C2  UNL     1      13.340 -15.807  19.168  1.00  0.00     0.271 C 
HETATM   31  C3  UNL     1      14.409 -16.223  21.193  1.00  0.00     0.271 C 
ENDBRANCH  27  28
ENDBRANCH  26  27
ENDBRANCH  23  26
ENDBRANCH  21  23
ENDBRANCH   1  20
TORSDOF 9
ENDMDL
MODEL 3
REMARK VINA RESULT: -6.242321435      0.878      1.886
REMARK  9 active torsions:
REMARK  status: ('A' for Active; 'I' for Inactive)
REMARK    1  A    between atoms: N1_2  and  C4_5 
REMARK    2  A    between atoms: C4_5  and  C5_6 
REMARK    3  A    between atoms: C5_6  and  N2_7 
REMARK    4  A    between atoms: N2_7  and  C8_10 
REMARK    5  A    between atoms: C10_12  and  N3_13 
REMARK       I    between atoms: N3_13  and  C11_15 
REMARK    6  A    between atoms: C11_15  and  C12_17 
REMARK    7  A    between atoms: C12_17  and  C13_18 
REMARK    8  A    between atoms: C19_25  and  O2_26 
REMARK    9  A    between atoms: C20_28  and  O3_29 
ROOT
HETATM    1  N3  UNL     1      20.859 -13.258  22.945  1.00  0.00    -0.354 N 
ATOM      2  H3  UNL     1      20.640 -12.324  23.291  1.00  0.00     0.162 HD
HETATM    3  C11 UNL     1      20.411 -13.625  21.670  1.00  0.00     0.218 C 
HETATM    4  O1  UNL     1      20.700 -14.793  21.269  1.00  0.00    -0.274 OA
ENDROOT
BRANCH   3   5
HETATM    5  C12 UNL     1      19.637 -12.673  20.856  1.00  0.00     0.107 C 
BRANCH   5   6
HETATM    6  C13 UNL     1      18.434 -13.310  20.194  1.00  0.00    -0.003 C 
HETATM    7  C14 UNL     1      17.576 -13.865  21.338  1.00  0.00     0.033 C 
HETATM    8  C15 UNL     1      16.649 -12.770  21.829  1.00  0.00     0.238 C 
HETATM    9  N4  UNL     1      15.600 -12.495  20.868  1.00  0.00    -0.062 N 
HETATM   10  C16 UNL     1      16.153 -12.691  19.554  1.00  0.00     0.238 C 
HETATM   11  C18 UNL     1      15.050 -11.173  21.002  1.00  0.00     0.271 C 
HETATM   12  C21 UNL     1      14.435 -13.347  21.088  1.00  0.00     0.271 C 
HETATM   13  C17 UNL     1      17.585 -12.219  19.549  1.00  0.00     0.033 C 
HETATM   14  C19 UNL     1      13.655 -11.229  20.414  1.00  0.00     0.174 C 
HETATM   15  C20 UNL     1      13.431 -12.717  20.134  1.00  0.00     0.174 C 
BRANCH  14  16
HETATM   16  O2  UNL     1      13.575 -10.574  19.189  1.00  0.00    -0.391 OA
ATOM     17  H2  UNL     1      14.340 -10.036  19.022  1.00  0.00     0.210 HD
ENDBRANCH  14  16
BRANCH  15  18
HETATM   18  O3  UNL     1      12.125 -13.001  20.471  1.00  0.00    -0.391 OA
ATOM     19  H3  UNL     1      12.147 -13.490  21.285  1.00  0.00     0.210 HD
ENDBRANCH  15  18
ENDBRANCH   5   6
ENDBRANCH   3   5
BRANCH   1  20
HETATM   20  C10 UNL     1      21.633 -14.165  23.803  1.00  0.00     0.117 A 
HETATM   21  C8  UNL     1      20.890 -14.998  24.781  1.00  0.00     0.214 A 
HETATM   22  C9  UNL     1      21.640 -13.774  25.236  1.00  0.00     0.063 A 
BRANCH  21  23
HETATM   23  N2  UNL     1      21.400 -16.300  25.169  1.00  0.00    -0.067 N 
HETATM   24  C6  UNL     1      22.332 -16.197  26.268  1.00  0.00     0.272 C 
HETATM   25  C7  UNL     1      22.140 -16.913  24.057  1.00  0.00     0.272 C 
BRANCH  23  26
HETATM   26  C5  UNL     1      20.292 -17.190  25.459  1.00  0.00     0.265 C 
BRANCH  26  27
HETATM   27  C4  UNL     1      18.991 -16.617  24.972  1.00  0.00     0.264 C 
BRANCH  27  28
HETATM   28  N1  UNL     1      18.273 -17.483  24.087  1.00  0.00    -0.077 N 
HETATM   29  C1  UNL     1      16.832 -17.328  24.240  1.00  0.00     0.271 C 
HETATM   30  C2  UNL     1      18.577 -17.254  22.690  1.00  0.00     0.271 C 
HETATM   31  C3  UNL     1      18.567 -18.878  24.357  1.00  0.00     0.271 C 
ENDBRANCH  27  28
ENDBRANCH  26  27
ENDBRANCH  23  26
ENDBRANCH  21  23
ENDBRANCH   1  20
TORSDOF 9
ENDMDL
MODEL 4
REMARK VINA RESULT: -6.233703271      2.124      3.544
REMARK  9 active torsions:
REMARK  status: ('A' for Active; 'I' for Inactive)
REMARK    1  A    between atoms: N1_2  and  C4_5 
REMARK    2  A    between atoms: C4_5  and  C5_6 
REMARK    3  A    between atoms: C5_6  and  N2_7 
REMARK    4  A    between atoms: N2_7  and  C8_10 
REMARK    5  A    between atoms: C10_12  and  N3_13 
REMARK       I    between atoms: N3_13  and  C11_15 
REMARK    6  A    between atoms: C11_15  and  C12_17 
REMARK    7  A    between atoms: C12_17  and  C13_18 
REMARK    8  A    between atoms: C19_25  and  O2_26 
REMARK    9  A    between atoms: C20_28  and  O3_29 
ROOT
HETATM    1  N3  UNL     1      18.771 -16.406  21.835  1.00  0.00    -0.354 N 
ATOM      2  H3  UNL     1      19.210 -16.181  20.942  1.00  0.00     0.162 HD
HETATM    3  C11 UNL     1      17.392 -16.206  21.975  1.00  0.00     0.218 C 
HETATM    4  O1  UNL     1      16.876 -16.496  23.098  1.00  0.00    -0.274 OA
ENDROOT
BRANCH   3   5
HETATM    5  C12 UNL     1      16.603 -15.681  20.849  1.00  0.00     0.107 C 
BRANCH   5   6
HETATM    6  C13 UNL     1      16.761 -14.186  20.670  1.00  0.00    -0.003 C 
HETATM    7  C14 UNL     1      16.055 -13.850  19.350  1.00  0.00     0.033 C 
HETATM    8  C15 UNL     1      14.586 -13.599  19.631  1.00  0.00     0.238 C 
HETATM    9  N4  UNL     1      14.388 -12.342  20.324  1.00  0.00    -0.062 N 
HETATM   10  C16 UNL     1      15.522 -12.138  21.186  1.00  0.00     0.238 C 
HETATM   11  C18 UNL     1      13.160 -12.303  21.074  1.00  0.00     0.271 C 
HETATM   12  C21 UNL     1      14.224 -11.235  19.388  1.00  0.00     0.271 C 
HETATM   13  C17 UNL     1      15.957 -13.467  21.749  1.00  0.00     0.033 C 
HETATM   14  C19 UNL     1      12.796 -10.839  21.220  1.00  0.00     0.174 C 
HETATM   15  C20 UNL     1      13.811 -10.115  20.333  1.00  0.00     0.174 C 
BRANCH  14  16
HETATM   16  O2  UNL     1      12.995 -10.377  22.516  1.00  0.00    -0.391 OA
ATOM     17  H2  UNL     1      12.290  -9.809  22.806  1.00  0.00     0.210 HD
ENDBRANCH  14  16
BRANCH  15  18
HETATM   18  O3  UNL     1      13.137  -9.098  19.692  1.00  0.00    -0.391 OA
ATOM     19  H3  UNL     1      12.269  -9.052  20.075  1.00  0.00     0.210 HD
ENDBRANCH  15  18
ENDBRANCH   5   6
ENDBRANCH   3   5
BRANCH   1  20
HETATM   20  C10 UNL     1      19.610 -16.925  22.923  1.00  0.00     0.117 A 
HETATM   21  C8  UNL     1      21.082 -16.852  22.760  1.00  0.00     0.214 A 
HETATM   22  C9  UNL     1      20.358 -18.157  22.567  1.00  0.00     0.063 A 
BRANCH  21  23
HETATM   23  N2  UNL     1      21.941 -16.708  23.921  1.00  0.00    -0.067 N 
HETATM   24  C6  UNL     1      23.136 -17.510  23.799  1.00  0.00     0.272 C 
HETATM   25  C7  UNL     1      21.251 -17.178  25.131  1.00  0.00     0.272 C 
BRANCH  23  26
HETATM   26  C5  UNL     1      22.232 -15.304  24.141  1.00  0.00     0.265 C 
BRANCH  26  27
HETATM   27  C4  UNL     1      21.383 -14.737  25.244  1.00  0.00     0.264 C 
BRANCH  27  28
HETATM   28  N1  UNL     1      20.573 -13.629  24.840  1.00  0.00    -0.077 N 
HETATM   29  C1  UNL     1      20.850 -13.239  23.463  1.00  0.00     0.271 C 
HETATM   30  C2  UNL     1      19.152 -13.896  24.926  1.00  0.00     0.271 C 
HETATM   31  C3  UNL     1      20.830 -12.458  25.658  1.00  0.00     0.271 C 
ENDBRANCH  27  28
ENDBRANCH  26  27
ENDBRANCH  23  26
ENDBRANCH  21  23
ENDBRANCH   1  20
TORSDOF 9
ENDMDL
MODEL 5
REMARK VINA RESULT: -6.148264267      1.916      3.215
REMARK  9 active torsions:
REMARK  status: ('A' for Active; 'I' for Inactive)
REMARK    1  A    between atoms: N1_2  and  C4_5 
REMARK    2  A    between atoms: C4_5  and  C5_6 
REMARK    3  A    between atoms: C5_6  and  N2_7 
REMARK    4  A    between atoms: N2_7  and  C8_10 
REMARK    5  A    between atoms: C10_12  and  N3_13 
REMARK       I    between atoms: N3_13  and  C11_15 
REMARK    6  A    between atoms: C11_15  and  C12_17 
REMARK    7  A    between atoms: C12_17  and  C13_18 
REMARK    8  A    between atoms: C19_25  and  O2_26 
REMARK    9  A    between atoms: C20_28  and  O3_29 
ROOT
HETATM    1  N3  UNL     1      17.989 -13.115  20.290  1.00  0.00    -0.354 N 
ATOM      2  H3  UNL     1      18.030 -14.021  19.825  1.00  0.00     0.162 HD
HETATM    3  C11 UNL     1      17.396 -12.039  19.618  1.00  0.00     0.218 C 
HETATM    4  O1  UNL     1      17.361 -10.925  20.225  1.00  0.00    -0.274 OA
ENDROOT
BRANCH   3   5
HETATM    5  C12 UNL     1      16.848 -12.225  18.265  1.00  0.00     0.107 C 
BRANCH   5   6
HETATM    6  C13 UNL     1      15.356 -12.484  18.267  1.00  0.00    -0.003 C 
HETATM    7  C14 UNL     1      15.175 -13.872  17.640  1.00  0.00     0.033 C 
HETATM    8  C15 UNL     1      15.296 -14.921  18.728  1.00  0.00     0.238 C 
HETATM    9  N4  UNL     1      14.140 -14.911  19.602  1.00  0.00    -0.062 N 
HETATM   10  C16 UNL     1      13.684 -13.550  19.703  1.00  0.00     0.238 C 
HETATM   11  C18 UNL     1      14.417 -15.457  20.904  1.00  0.00     0.271 C 
HETATM   12  C21 UNL     1      13.087 -15.791  19.106  1.00  0.00     0.271 C 
HETATM   13  C17 UNL     1      14.878 -12.630  19.708  1.00  0.00     0.033 C 
HETATM   14  C19 UNL     1      13.090 -15.935  21.458  1.00  0.00     0.174 C 
HETATM   15  C20 UNL     1      12.122 -15.780  20.283  1.00  0.00     0.174 C 
BRANCH  14  16
HETATM   16  O2  UNL     1      12.621 -15.112  22.476  1.00  0.00    -0.391 OA
ATOM     17  H2  UNL     1      11.685 -15.207  22.609  1.00  0.00     0.210 HD
ENDBRANCH  14  16
BRANCH  15  18
HETATM   18  O3  UNL     1      11.287 -16.876  20.298  1.00  0.00    -0.391 OA
ATOM     19  H3  UNL     1      11.755 -17.589  19.879  1.00  0.00     0.210 HD
ENDBRANCH  15  18
ENDBRANCH   5   6
ENDBRANCH   3   5
BRANCH   1  20
HETATM   20  C10 UNL     1      18.555 -12.989  21.640  1.00  0.00     0.117 A 
HETATM   21  C8  UNL     1      19.025 -14.224  22.314  1.00  0.00     0.214 A 
HETATM   22  C9  UNL     1      17.713 -13.596  22.702  1.00  0.00     0.063 A 
BRANCH  21  23
HETATM   23  N2  UNL     1      20.121 -14.167  23.263  1.00  0.00    -0.067 N 
HETATM   24  C6  UNL     1      19.754 -13.435  24.453  1.00  0.00     0.272 C 
HETATM   25  C7  UNL     1      21.269 -13.457  22.680  1.00  0.00     0.272 C 
BRANCH  23  26
HETATM   26  C5  UNL     1      20.582 -15.511  23.556  1.00  0.00     0.265 C 
BRANCH  26  27
HETATM   27  C4  UNL     1      20.131 -15.957  24.919  1.00  0.00     0.264 C 
BRANCH  27  28
HETATM   28  N1  UNL     1      19.197 -17.041  24.893  1.00  0.00    -0.077 N 
HETATM   29  C1  UNL     1      19.229 -17.743  23.616  1.00  0.00     0.271 C 
HETATM   30  C2  UNL     1      19.437 -18.028  25.925  1.00  0.00     0.271 C 
HETATM   31  C3  UNL     1      17.835 -16.571  25.070  1.00  0.00     0.271 C 
ENDBRANCH  27  28
ENDBRANCH  26  27
ENDBRANCH  23  26
ENDBRANCH  21  23
ENDBRANCH   1  20
TORSDOF 9
ENDMDL
