MODEL 1
REMARK VINA RESULT: -9.074889009      0.000      0.000
REMARK  8 active torsions:
REMARK  status: ('A' for Active; 'I' for Inactive)
REMARK    1  A    between atoms: C2_7  and  C3_8 
REMARK    2  A    between atoms: C3_8  and  C4_9 
REMARK    3  A    between atoms: C4_9  and  N3_10 
REMARK    4  A    between atoms: N5_15  and  O1_16 
REMARK    5  A    between atoms: C9_20  and  C10_21 
REMARK    6  A    between atoms: C10_21  and  C11_22 
REMARK    7  A    between atoms: C11_22  and  N6_23 
REMARK    8  A    between atoms: C14_26  and  C15_27 
ROOT
HETATM    1  N1  UNL     1     -27.264   0.330  13.697  1.00  0.00    -0.385 N 
ATOM      2  H11 UNL     1     -28.219   0.137  14.001  1.00  0.00     0.157 HD
ATOM      3  H12 UNL     1     -26.963   0.146  12.740  1.00  0.00     0.157 HD
HETATM    4  C1  UNL     1     -26.478   0.832  14.586  1.00  0.00     0.105 A 
HETATM    5  N2  UNL     1     -25.196   1.092  14.178  1.00  0.00    -0.346 N 
ATOM      6  H2  UNL     1     -24.934   0.895  13.212  1.00  0.00     0.167 HD
HETATM    7  C2  UNL     1     -24.276   1.597  15.009  1.00  0.00     0.012 A 
HETATM    8  C7  UNL     1     -24.631   1.862  16.315  1.00  0.00     0.025 A 
HETATM    9  C8  UNL     1     -25.916   1.606  16.741  1.00  0.00     0.013 A 
HETATM   10  C9  UNL     1     -26.882   1.079  15.872  1.00  0.00    -0.013 A 
ENDROOT
BRANCH  10  11
HETATM   11  C10 UNL     1     -28.245   0.838  16.283  1.00  0.00     0.062 C 
BRANCH  11  12
HETATM   12  C11 UNL     1     -28.631   1.253  17.651  1.00  0.00     0.132 C 
BRANCH  12  13
HETATM   13  N6  UNL     1     -29.047   0.106  18.436  1.00  0.00    -0.366 N 
HETATM   14  C12 UNL     1     -30.047  -0.663  17.964  1.00  0.00     0.091 A 
HETATM   15  C13 UNL     1     -30.488  -1.770  18.677  1.00  0.00     0.029 A 
HETATM   16  C14 UNL     1     -29.909  -2.096  19.877  1.00  0.00    -0.023 A 
HETATM   17  C21 UNL     1     -28.883  -1.269  20.316  1.00  0.00     0.029 A 
HETATM   18  C22 UNL     1     -28.446  -0.180  19.619  1.00  0.00     0.091 A 
BRANCH  16  19
HETATM   19  C15 UNL     1     -30.357  -3.259  20.652  1.00  0.00    -0.026 A 
HETATM   20  C16 UNL     1     -29.471  -4.314  20.766  1.00  0.00     0.012 A 
HETATM   21  C17 UNL     1     -29.875  -5.421  21.497  1.00  0.00     0.001 A 
HETATM   22  C18 UNL     1     -31.117  -5.469  22.090  1.00  0.00     0.000 A 
HETATM   23  C19 UNL     1     -31.978  -4.419  21.968  1.00  0.00     0.001 A 
HETATM   24  C20 UNL     1     -31.594  -3.312  21.247  1.00  0.00     0.012 A 
ENDBRANCH  16  19
ENDBRANCH  12  13
ENDBRANCH  11  12
ENDBRANCH  10  11
BRANCH   7  25
HETATM   25  C3  UNL     1     -22.881   1.894  14.601  1.00  0.00     0.079 C 
BRANCH  25  26
HETATM   26  C4  UNL     1     -21.969   0.719  14.739  1.00  0.00     0.158 C 
BRANCH  26  27
HETATM   27  N3  UNL     1     -21.078   0.971  15.855  1.00  0.00    -0.261 N 
HETATM   28  C5  UNL     1     -20.976   2.112  16.541  1.00  0.00     0.203 A 
HETATM   29  N4  UNL     1     -20.052   1.984  17.503  1.00  0.00    -0.344 N 
HETATM   30  C6  UNL     1     -19.565   0.755  17.428  1.00  0.00     0.235 A 
ATOM     31  H4  UNL     1     -19.775   2.702  18.173  1.00  0.00     0.167 HD
HETATM   32  N5  UNL     1     -20.206   0.145  16.410  1.00  0.00    -0.156 N 
BRANCH  32  33
HETATM   33  O1  UNL     1     -19.954  -1.157  16.037  1.00  0.00    -0.267 OA
ATOM     34  H1  UNL     1     -19.209  -1.470  15.537  1.00  0.00     0.247 HD
ENDBRANCH  32  33
ENDBRANCH  26  27
ENDBRANCH  25  26
ENDBRANCH   7  25
TORSDOF 8
ENDMDL
MODEL 2
REMARK VINA RESULT: -9.047524119      0.061      1.244
REMARK  8 active torsions:
REMARK  status: ('A' for Active; 'I' for Inactive)
REMARK    1  A    between atoms: C2_7  and  C3_8 
REMARK    2  A    between atoms: C3_8  and  C4_9 
REMARK    3  A    between atoms: C4_9  and  N3_10 
REMARK    4  A    between atoms: N5_15  and  O1_16 
REMARK    5  A    between atoms: C9_20  and  C10_21 
REMARK    6  A    between atoms: C10_21  and  C11_22 
REMARK    7  A    between atoms: C11_22  and  N6_23 
REMARK    8  A    between atoms: C14_26  and  C15_27 
ROOT
HETATM    1  N1  UNL     1     -27.241   0.335  13.674  1.00  0.00    -0.385 N 
ATOM      2  H11 UNL     1     -28.199   0.143  13.966  1.00  0.00     0.157 HD
ATOM      3  H12 UNL     1     -26.927   0.146  12.722  1.00  0.00     0.157 HD
HETATM    4  C1  UNL     1     -26.467   0.841  14.570  1.00  0.00     0.105 A 
HETATM    5  N2  UNL     1     -25.179   1.099  14.178  1.00  0.00    -0.346 N 
ATOM      6  H2  UNL     1     -24.905   0.897  13.217  1.00  0.00     0.167 HD
HETATM    7  C2  UNL     1     -24.270   1.608  15.019  1.00  0.00     0.012 A 
HETATM    8  C7  UNL     1     -24.643   1.879  16.319  1.00  0.00     0.025 A 
HETATM    9  C8  UNL     1     -25.934   1.626  16.729  1.00  0.00     0.013 A 
HETATM   10  C9  UNL     1     -26.888   1.095  15.850  1.00  0.00    -0.013 A 
ENDROOT
BRANCH  10  11
HETATM   11  C10 UNL     1     -28.256   0.857  16.244  1.00  0.00     0.062 C 
BRANCH  11  12
HETATM   12  C11 UNL     1     -28.650   1.242  17.618  1.00  0.00     0.132 C 
BRANCH  12  13
HETATM   13  N6  UNL     1     -29.096   0.082  18.367  1.00  0.00    -0.366 N 
HETATM   14  C12 UNL     1     -28.513  -0.177  19.553  1.00  0.00     0.091 A 
HETATM   15  C13 UNL     1     -28.898  -1.276  20.309  1.00  0.00     0.029 A 
HETATM   16  C14 UNL     1     -29.882  -2.117  19.856  1.00  0.00    -0.023 A 
HETATM   17  C21 UNL     1     -30.449  -1.803  18.628  1.00  0.00     0.029 A 
HETATM   18  C22 UNL     1     -30.074  -0.724  17.881  1.00  0.00     0.091 A 
BRANCH  16  19
HETATM   19  C15 UNL     1     -30.307  -3.286  20.634  1.00  0.00    -0.026 A 
HETATM   20  C16 UNL     1     -31.572  -3.242  21.189  1.00  0.00     0.012 A 
HETATM   21  C17 UNL     1     -31.993  -4.340  21.925  1.00  0.00     0.001 A 
HETATM   22  C18 UNL     1     -31.179  -5.437  22.098  1.00  0.00     0.000 A 
HETATM   23  C19 UNL     1     -29.934  -5.464  21.542  1.00  0.00     0.001 A 
HETATM   24  C20 UNL     1     -29.501  -4.384  20.808  1.00  0.00     0.012 A 
ENDBRANCH  16  19
ENDBRANCH  12  13
ENDBRANCH  11  12
ENDBRANCH  10  11
BRANCH   7  25
HETATM   25  C3  UNL     1     -22.869   1.902  14.628  1.00  0.00     0.079 C 
BRANCH  25  26
HETATM   26  C4  UNL     1     -21.969   0.716  14.745  1.00  0.00     0.158 C 
BRANCH  26  27
HETATM   27  N3  UNL     1     -21.065   0.947  15.855  1.00  0.00    -0.261 N 
HETATM   28  C5  UNL     1     -20.966   2.069  16.572  1.00  0.00     0.203 A 
HETATM   29  N4  UNL     1     -20.027   1.924  17.517  1.00  0.00    -0.344 N 
HETATM   30  C6  UNL     1     -19.527   0.703  17.400  1.00  0.00     0.235 A 
ATOM     31  H4  UNL     1     -19.748   2.626  18.203  1.00  0.00     0.167 HD
HETATM   32  N5  UNL     1     -20.176   0.116  16.374  1.00  0.00    -0.156 N 
BRANCH  32  33
HETATM   33  O1  UNL     1     -19.914  -1.173  15.960  1.00  0.00    -0.267 OA
ATOM     34  H1  UNL     1     -20.524  -1.901  15.951  1.00  0.00     0.247 HD
ENDBRANCH  32  33
ENDBRANCH  26  27
ENDBRANCH  25  26
ENDBRANCH   7  25
TORSDOF 8
ENDMDL
MODEL 3
REMARK VINA RESULT: -8.601412520      1.473      2.163
REMARK  8 active torsions:
REMARK  status: ('A' for Active; 'I' for Inactive)
REMARK    1  A    between atoms: C2_7  and  C3_8 
REMARK    2  A    between atoms: C3_8  and  C4_9 
REMARK    3  A    between atoms: C4_9  and  N3_10 
REMARK    4  A    between atoms: N5_15  and  O1_16 
REMARK    5  A    between atoms: C9_20  and  C10_21 
REMARK    6  A    between atoms: C10_21  and  C11_22 
REMARK    7  A    between atoms: C11_22  and  N6_23 
REMARK    8  A    between atoms: C14_26  and  C15_27 
ROOT
HETATM    1  N1  UNL     1     -26.220   2.846  11.846  1.00  0.00    -0.385 N 
ATOM      2  H11 UNL     1     -27.237   2.919  11.819  1.00  0.00     0.157 HD
ATOM      3  H12 UNL     1     -25.646   3.109  11.045  1.00  0.00     0.157 HD
HETATM    4  C1  UNL     1     -25.712   2.419  12.951  1.00  0.00     0.105 A 
HETATM    5  N2  UNL     1     -24.345   2.320  12.988  1.00  0.00    -0.346 N 
ATOM      6  H2  UNL     1     -23.808   2.595  12.166  1.00  0.00     0.167 HD
HETATM    7  C2  UNL     1     -23.696   1.874  14.069  1.00  0.00     0.012 A 
HETATM    8  C7  UNL     1     -24.425   1.503  15.179  1.00  0.00     0.025 A 
HETATM    9  C8  UNL     1     -25.800   1.596  15.159  1.00  0.00     0.013 A 
HETATM   10  C9  UNL     1     -26.483   2.065  14.028  1.00  0.00    -0.013 A 
ENDROOT
BRANCH  10  11
HETATM   11  C10 UNL     1     -27.919   2.208  13.994  1.00  0.00     0.062 C 
BRANCH  11  12
HETATM   12  C11 UNL     1     -28.576   2.797  15.183  1.00  0.00     0.132 C 
BRANCH  12  13
HETATM   13  N6  UNL     1     -28.899   1.767  16.152  1.00  0.00    -0.366 N 
HETATM   14  C12 UNL     1     -29.729   0.774  15.778  1.00  0.00     0.091 A 
HETATM   15  C13 UNL     1     -30.076  -0.234  16.667  1.00  0.00     0.029 A 
HETATM   16  C14 UNL     1     -29.578  -0.232  17.945  1.00  0.00    -0.023 A 
HETATM   17  C21 UNL     1     -28.728   0.815  18.277  1.00  0.00     0.029 A 
HETATM   18  C22 UNL     1     -28.384   1.808  17.407  1.00  0.00     0.091 A 
BRANCH  16  19
HETATM   19  C15 UNL     1     -29.930  -1.284  18.905  1.00  0.00    -0.026 A 
HETATM   20  C16 UNL     1     -29.119  -2.404  18.930  1.00  0.00     0.012 A 
HETATM   21  C17 UNL     1     -29.434  -3.409  19.835  1.00  0.00     0.001 A 
HETATM   22  C18 UNL     1     -30.517  -3.295  20.678  1.00  0.00     0.000 A 
HETATM   23  C19 UNL     1     -31.305  -2.183  20.639  1.00  0.00     0.001 A 
HETATM   24  C20 UNL     1     -31.007  -1.177  19.749  1.00  0.00     0.012 A 
ENDBRANCH  16  19
ENDBRANCH  12  13
ENDBRANCH  11  12
ENDBRANCH  10  11
BRANCH   7  25
HETATM   25  C3  UNL     1     -22.218   1.758  14.145  1.00  0.00     0.079 C 
BRANCH  25  26
HETATM   26  C4  UNL     1     -21.765   0.490  14.791  1.00  0.00     0.158 C 
BRANCH  26  27
HETATM   27  N3  UNL     1     -20.948   0.838  15.938  1.00  0.00    -0.261 N 
HETATM   28  C5  UNL     1     -20.946   2.010  16.579  1.00  0.00     0.203 A 
HETATM   29  N4  UNL     1     -20.068   1.975  17.590  1.00  0.00    -0.344 N 
HETATM   30  C6  UNL     1     -19.510   0.774  17.593  1.00  0.00     0.235 A 
ATOM     31  H4  UNL     1     -19.866   2.735  18.241  1.00  0.00     0.167 HD
HETATM   32  N5  UNL     1     -20.062   0.087  16.571  1.00  0.00    -0.156 N 
BRANCH  32  33
HETATM   33  O1  UNL     1     -19.718  -1.212  16.269  1.00  0.00    -0.267 OA
ATOM     34  H1  UNL     1     -18.839  -1.564  16.194  1.00  0.00     0.247 HD
ENDBRANCH  32  33
ENDBRANCH  26  27
ENDBRANCH  25  26
ENDBRANCH   7  25
TORSDOF 8
ENDMDL
MODEL 4
REMARK VINA RESULT: -8.599629412      1.502      1.851
REMARK  8 active torsions:
REMARK  status: ('A' for Active; 'I' for Inactive)
REMARK    1  A    between atoms: C2_7  and  C3_8 
REMARK    2  A    between atoms: C3_8  and  C4_9 
REMARK    3  A    between atoms: C4_9  and  N3_10 
REMARK    4  A    between atoms: N5_15  and  O1_16 
REMARK    5  A    between atoms: C9_20  and  C10_21 
REMARK    6  A    between atoms: C10_21  and  C11_22 
REMARK    7  A    between atoms: C11_22  and  N6_23 
REMARK    8  A    between atoms: C14_26  and  C15_27 
ROOT
HETATM    1  N1  UNL     1     -26.068   2.475  17.957  1.00  0.00    -0.385 N 
ATOM      2  H11 UNL     1     -26.992   2.608  18.368  1.00  0.00     0.157 HD
ATOM      3  H12 UNL     1     -25.217   2.668  18.487  1.00  0.00     0.157 HD
HETATM    4  C1  UNL     1     -26.044   2.037  16.746  1.00  0.00     0.105 A 
HETATM    5  N2  UNL     1     -24.803   1.858  16.193  1.00  0.00    -0.346 N 
ATOM      6  H2  UNL     1     -23.977   2.061  16.756  1.00  0.00     0.167 HD
HETATM    7  C2  UNL     1     -24.641   1.425  14.937  1.00  0.00     0.012 A 
HETATM    8  C7  UNL     1     -25.759   1.153  14.177  1.00  0.00     0.025 A 
HETATM    9  C8  UNL     1     -27.015   1.327  14.717  1.00  0.00     0.013 A 
HETATM   10  C9  UNL     1     -27.187   1.779  16.033  1.00  0.00    -0.013 A 
ENDROOT
BRANCH  10  11
HETATM   11  C10 UNL     1     -28.490   1.933  16.635  1.00  0.00     0.062 C 
BRANCH  11  12
HETATM   12  C11 UNL     1     -29.553   0.992  16.217  1.00  0.00     0.132 C 
BRANCH  12  13
HETATM   13  N6  UNL     1     -29.736  -0.049  17.211  1.00  0.00    -0.366 N 
HETATM   14  C12 UNL     1     -30.911  -0.707  17.239  1.00  0.00     0.091 A 
HETATM   15  C13 UNL     1     -31.142  -1.708  18.172  1.00  0.00     0.029 A 
HETATM   16  C14 UNL     1     -30.172  -2.042  19.083  1.00  0.00    -0.023 A 
HETATM   17  C21 UNL     1     -28.981  -1.332  19.009  1.00  0.00     0.029 A 
HETATM   18  C22 UNL     1     -28.749  -0.346  18.094  1.00  0.00     0.091 A 
BRANCH  16  19
HETATM   19  C15 UNL     1     -30.390  -3.095  20.082  1.00  0.00    -0.026 A 
HETATM   20  C16 UNL     1     -29.360  -3.997  20.274  1.00  0.00     0.012 A 
HETATM   21  C17 UNL     1     -29.546  -4.998  21.217  1.00  0.00     0.001 A 
HETATM   22  C18 UNL     1     -30.717  -5.091  21.936  1.00  0.00     0.000 A 
HETATM   23  C19 UNL     1     -31.722  -4.193  21.732  1.00  0.00     0.001 A 
HETATM   24  C20 UNL     1     -31.555  -3.193  20.802  1.00  0.00     0.012 A 
ENDBRANCH  16  19
ENDBRANCH  12  13
ENDBRANCH  11  12
ENDBRANCH  10  11
BRANCH   7  25
HETATM   25  C3  UNL     1     -23.313   1.217  14.309  1.00  0.00     0.079 C 
BRANCH  25  26
HETATM   26  C4  UNL     1     -22.316   2.262  14.691  1.00  0.00     0.158 C 
BRANCH  26  27
HETATM   27  N3  UNL     1     -21.367   1.661  15.608  1.00  0.00    -0.261 N 
HETATM   28  C5  UNL     1     -20.326   0.892  15.275  1.00  0.00     0.203 A 
HETATM   29  N4  UNL     1     -19.667   0.515  16.379  1.00  0.00    -0.344 N 
HETATM   30  C6  UNL     1     -20.292   1.046  17.418  1.00  0.00     0.235 A 
ATOM     31  H4  UNL     1     -18.835  -0.075  16.413  1.00  0.00     0.167 HD
HETATM   32  N5  UNL     1     -21.334   1.748  16.927  1.00  0.00    -0.156 N 
BRANCH  32  33
HETATM   33  O1  UNL     1     -22.215   2.442  17.728  1.00  0.00    -0.267 OA
ATOM     34  H1  UNL     1     -22.941   2.079  18.222  1.00  0.00     0.247 HD
ENDBRANCH  32  33
ENDBRANCH  26  27
ENDBRANCH  25  26
ENDBRANCH   7  25
TORSDOF 8
ENDMDL
MODEL 5
REMARK VINA RESULT: -8.597224321      1.502      2.219
REMARK  8 active torsions:
REMARK  status: ('A' for Active; 'I' for Inactive)
REMARK    1  A    between atoms: C2_7  and  C3_8 
REMARK    2  A    between atoms: C3_8  and  C4_9 
REMARK    3  A    between atoms: C4_9  and  N3_10 
REMARK    4  A    between atoms: N5_15  and  O1_16 
REMARK    5  A    between atoms: C9_20  and  C10_21 
REMARK    6  A    between atoms: C10_21  and  C11_22 
REMARK    7  A    between atoms: C11_22  and  N6_23 
REMARK    8  A    between atoms: C14_26  and  C15_27 
ROOT
HETATM    1  N1  UNL     1     -26.048   2.464  17.947  1.00  0.00    -0.385 N 
ATOM      2  H11 UNL     1     -26.967   2.604  18.366  1.00  0.00     0.157 HD
ATOM      3  H12 UNL     1     -25.191   2.654  18.467  1.00  0.00     0.157 HD
HETATM    4  C1  UNL     1     -26.040   2.022  16.737  1.00  0.00     0.105 A 
HETATM    5  N2  UNL     1     -24.805   1.833  16.172  1.00  0.00    -0.346 N 
ATOM      6  H2  UNL     1     -23.972   2.033  16.727  1.00  0.00     0.167 HD
HETATM    7  C2  UNL     1     -24.659   1.396  14.916  1.00  0.00     0.012 A 
HETATM    8  C7  UNL     1     -25.786   1.128  14.169  1.00  0.00     0.025 A 
HETATM    9  C8  UNL     1     -27.035   1.311  14.720  1.00  0.00     0.013 A 
HETATM   10  C9  UNL     1     -27.191   1.768  16.037  1.00  0.00    -0.013 A 
ENDROOT
BRANCH  10  11
HETATM   11  C10 UNL     1     -28.487   1.933  16.651  1.00  0.00     0.062 C 
BRANCH  11  12
HETATM   12  C11 UNL     1     -29.574   1.030  16.210  1.00  0.00     0.132 C 
BRANCH  12  13
HETATM   13  N6  UNL     1     -29.793  -0.023  17.183  1.00  0.00    -0.366 N 
HETATM   14  C12 UNL     1     -28.813  -0.289  18.069  1.00  0.00     0.091 A 
HETATM   15  C13 UNL     1     -28.968  -1.289  19.019  1.00  0.00     0.029 A 
HETATM   16  C14 UNL     1     -30.125  -2.025  19.068  1.00  0.00    -0.023 A 
HETATM   17  C21 UNL     1     -31.101  -1.708  18.132  1.00  0.00     0.029 A 
HETATM   18  C22 UNL     1     -30.954  -0.726  17.196  1.00  0.00     0.091 A 
BRANCH  16  19
HETATM   19  C15 UNL     1     -30.314  -3.089  20.061  1.00  0.00    -0.026 A 
HETATM   20  C16 UNL     1     -31.517  -3.102  20.742  1.00  0.00     0.012 A 
HETATM   21  C17 UNL     1     -31.716  -4.103  21.682  1.00  0.00     0.001 A 
HETATM   22  C18 UNL     1     -30.748  -5.051  21.929  1.00  0.00     0.000 A 
HETATM   23  C19 UNL     1     -29.567  -5.022  21.248  1.00  0.00     0.001 A 
HETATM   24  C20 UNL     1     -29.354  -4.037  20.311  1.00  0.00     0.012 A 
ENDBRANCH  16  19
ENDBRANCH  12  13
ENDBRANCH  11  12
ENDBRANCH  10  11
BRANCH   7  25
HETATM   25  C3  UNL     1     -23.338   1.177  14.275  1.00  0.00     0.079 C 
BRANCH  25  26
HETATM   26  C4  UNL     1     -22.336   2.226  14.631  1.00  0.00     0.158 C 
BRANCH  26  27
HETATM   27  N3  UNL     1     -21.388   1.643  15.561  1.00  0.00    -0.261 N 
HETATM   28  C5  UNL     1     -20.327   0.896  15.244  1.00  0.00     0.203 A 
HETATM   29  N4  UNL     1     -19.678   0.531  16.357  1.00  0.00    -0.344 N 
HETATM   30  C6  UNL     1     -20.329   1.048  17.387  1.00  0.00     0.235 A 
ATOM     31  H4  UNL     1     -18.834  -0.042  16.403  1.00  0.00     0.167 HD
HETATM   32  N5  UNL     1     -21.378   1.729  16.881  1.00  0.00    -0.156 N 
BRANCH  32  33
HETATM   33  O1  UNL     1     -22.285   2.403  17.669  1.00  0.00    -0.267 OA
ATOM     34  H1  UNL     1     -23.090   2.055  18.033  1.00  0.00     0.247 HD
ENDBRANCH  32  33
ENDBRANCH  26  27
ENDBRANCH  25  26
ENDBRANCH   7  25
TORSDOF 8
ENDMDL
