MODEL 1
REMARK VINA RESULT: -7.252194931      0.000      0.000
REMARK  7 active torsions:
REMARK  status: ('A' for Active; 'I' for Inactive)
REMARK    1  A    between atoms: C3_4  and  C4_5 
REMARK    2  A    between atoms: C6_11  and  C7_12 
REMARK    3  A    between atoms: C7_12  and  C8_13 
REMARK    4  A    between atoms: C8_13  and  C9_14 
REMARK    5  A    between atoms: C9_14  and  N4_15 
REMARK    6  A    between atoms: C17_25  and  C18_26 
REMARK    7  A    between atoms: C18_26  and  N6_27 
ROOT
HETATM    1  C4  UNL     1     -27.120   0.993  14.876  1.00  0.00     0.119 A 
HETATM    2  N2  UNL     1     -28.134   1.016  15.745  1.00  0.00    -0.326 N 
ATOM      3  H2  UNL     1     -28.056   1.311  16.718  1.00  0.00     0.169 HD
HETATM    4  C5  UNL     1     -29.277   0.598  15.163  1.00  0.00     0.134 A 
HETATM    5  N3  UNL     1     -30.574   0.357  15.325  1.00  0.00    -0.344 N 
ATOM      6  H3  UNL     1     -31.082   0.493  16.199  1.00  0.00     0.167 HD
HETATM    7  C6  UNL     1     -31.129  -0.090  14.181  1.00  0.00     0.013 A 
HETATM    8  C13 UNL     1     -30.102  -0.125  13.260  1.00  0.00     0.058 A 
HETATM    9  C14 UNL     1     -28.920   0.302  13.844  1.00  0.00     0.080 A 
HETATM   10  N5  UNL     1     -27.607   0.554  13.708  1.00  0.00    -0.339 N 
ATOM     11  H5  UNL     1     -27.067   0.431  12.851  1.00  0.00     0.167 HD
ENDROOT
BRANCH   1  12
HETATM   12  C3  UNL     1     -25.747   1.369  15.130  1.00  0.00     0.024 A 
HETATM   13  C2  UNL     1     -24.811   1.421  14.134  1.00  0.00     0.105 A 
HETATM   14  N1  UNL     1     -23.503   1.772  14.334  1.00  0.00    -0.362 N 
HETATM   15  C1  UNL     1     -22.639   1.758  13.172  1.00  0.00     0.155 C 
HETATM   16  C17 UNL     1     -23.071   2.088  15.539  1.00  0.00     0.029 A 
HETATM   17  C16 UNL     1     -23.996   2.051  16.599  1.00  0.00     0.028 A 
HETATM   18  C15 UNL     1     -25.314   1.698  16.405  1.00  0.00     0.018 A 
BRANCH  16  19
HETATM   19  C18 UNL     1     -21.673   2.487  15.782  1.00  0.00     0.186 C 
BRANCH  19  20
HETATM   20  N6  UNL     1     -20.845   1.482  16.362  1.00  0.00    -0.346 N 
HETATM   21  C19 UNL     1     -20.306   1.471  17.581  1.00  0.00     0.109 A 
HETATM   22  C20 UNL     1     -19.562   0.316  17.769  1.00  0.00     0.106 A 
HETATM   23  N7  UNL     1     -19.673  -0.370  16.613  1.00  0.00    -0.361 N 
HETATM   24  C21 UNL     1     -20.449   0.343  15.769  1.00  0.00     0.182 A 
ATOM     25  H7  UNL     1     -19.243  -1.273  16.411  1.00  0.00     0.166 HD
ENDBRANCH  19  20
ENDBRANCH  16  19
ENDBRANCH   1  12
BRANCH   7  26
HETATM   26  C7  UNL     1     -32.569  -0.476  13.945  1.00  0.00     0.059 C 
BRANCH  26  27
HETATM   27  C8  UNL     1     -32.703  -1.252  12.668  1.00  0.00     0.034 C 
BRANCH  27  28
HETATM   28  C9  UNL     1     -33.808  -0.734  11.841  1.00  0.00     0.236 C 
BRANCH  28  29
HETATM   29  N4  UNL     1     -33.584  -0.494  10.468  1.00  0.00    -0.079 N 
HETATM   30  C10 UNL     1     -32.376   0.332  10.309  1.00  0.00     0.271 C 
HETATM   31  C11 UNL     1     -34.676   0.378   9.994  1.00  0.00     0.271 C 
HETATM   32  C12 UNL     1     -33.527  -1.613   9.611  1.00  0.00     0.271 C 
ENDBRANCH  28  29
ENDBRANCH  27  28
ENDBRANCH  26  27
ENDBRANCH   7  26
TORSDOF 7
ENDMDL
MODEL 2
REMARK VINA RESULT: -7.217863501      0.489      1.187
REMARK  7 active torsions:
REMARK  status: ('A' for Active; 'I' for Inactive)
REMARK    1  A    between atoms: C3_4  and  C4_5 
REMARK    2  A    between atoms: C6_11  and  C7_12 
REMARK    3  A    between atoms: C7_12  and  C8_13 
REMARK    4  A    between atoms: C8_13  and  C9_14 
REMARK    5  A    between atoms: C9_14  and  N4_15 
REMARK    6  A    between atoms: C17_25  and  C18_26 
REMARK    7  A    between atoms: C18_26  and  N6_27 
ROOT
HETATM    1  C4  UNL     1     -27.147   0.991  14.883  1.00  0.00     0.119 A 
HETATM    2  N2  UNL     1     -27.684   0.638  13.712  1.00  0.00    -0.326 N 
ATOM      3  H2  UNL     1     -27.172   0.593  12.831  1.00  0.00     0.169 HD
HETATM    4  C5  UNL     1     -28.993   0.348  13.850  1.00  0.00     0.134 A 
HETATM    5  N3  UNL     1     -30.109  -0.039  13.239  1.00  0.00    -0.344 N 
ATOM      6  H3  UNL     1     -30.179  -0.246  12.242  1.00  0.00     0.167 HD
HETATM    7  C6  UNL     1     -31.133  -0.121  14.110  1.00  0.00     0.013 A 
HETATM    8  C13 UNL     1     -30.609   0.239  15.335  1.00  0.00     0.058 A 
HETATM    9  C14 UNL     1     -29.262   0.541  15.208  1.00  0.00     0.080 A 
HETATM   10  N5  UNL     1     -28.121   0.931  15.801  1.00  0.00    -0.339 N 
ATOM     11  H5  UNL     1     -28.013   1.146  16.793  1.00  0.00     0.167 HD
ENDROOT
BRANCH   1  12
HETATM   12  C3  UNL     1     -25.774   1.371  15.132  1.00  0.00     0.024 A 
HETATM   13  C2  UNL     1     -24.843   1.429  14.132  1.00  0.00     0.105 A 
HETATM   14  N1  UNL     1     -23.535   1.784  14.327  1.00  0.00    -0.362 N 
HETATM   15  C1  UNL     1     -22.677   1.777  13.160  1.00  0.00     0.155 C 
HETATM   16  C17 UNL     1     -23.098   2.096  15.531  1.00  0.00     0.029 A 
HETATM   17  C16 UNL     1     -24.018   2.051  16.596  1.00  0.00     0.028 A 
HETATM   18  C15 UNL     1     -25.336   1.695  16.406  1.00  0.00     0.018 A 
BRANCH  16  19
HETATM   19  C18 UNL     1     -21.701   2.498  15.769  1.00  0.00     0.186 C 
BRANCH  19  20
HETATM   20  N6  UNL     1     -20.870   1.497  16.351  1.00  0.00    -0.346 N 
HETATM   21  C19 UNL     1     -20.311   1.502  17.562  1.00  0.00     0.109 A 
HETATM   22  C20 UNL     1     -19.572   0.345  17.756  1.00  0.00     0.106 A 
HETATM   23  N7  UNL     1     -19.705  -0.358  16.613  1.00  0.00    -0.361 N 
HETATM   24  C21 UNL     1     -20.490   0.346  15.770  1.00  0.00     0.182 A 
ATOM     25  H7  UNL     1     -19.284  -1.267  16.418  1.00  0.00     0.166 HD
ENDBRANCH  19  20
ENDBRANCH  16  19
ENDBRANCH   1  12
BRANCH   7  26
HETATM   26  C7  UNL     1     -32.560  -0.521  13.820  1.00  0.00     0.059 C 
BRANCH  26  27
HETATM   27  C8  UNL     1     -32.648  -1.240  12.506  1.00  0.00     0.034 C 
BRANCH  27  28
HETATM   28  C9  UNL     1     -33.832  -0.811  11.740  1.00  0.00     0.236 C 
BRANCH  28  29
HETATM   29  N4  UNL     1     -33.678  -0.447  10.385  1.00  0.00    -0.079 N 
HETATM   30  C10 UNL     1     -33.543  -1.664   9.566  1.00  0.00     0.271 C 
HETATM   31  C11 UNL     1     -32.365   0.214  10.257  1.00  0.00     0.271 C 
HETATM   32  C12 UNL     1     -34.647   0.412   9.826  1.00  0.00     0.271 C 
ENDBRANCH  28  29
ENDBRANCH  27  28
ENDBRANCH  26  27
ENDBRANCH   7  26
TORSDOF 7
ENDMDL
MODEL 3
REMARK VINA RESULT: -6.803923542      1.715      2.862
REMARK  7 active torsions:
REMARK  status: ('A' for Active; 'I' for Inactive)
REMARK    1  A    between atoms: C3_4  and  C4_5 
REMARK    2  A    between atoms: C6_11  and  C7_12 
REMARK    3  A    between atoms: C7_12  and  C8_13 
REMARK    4  A    between atoms: C8_13  and  C9_14 
REMARK    5  A    between atoms: C9_14  and  N4_15 
REMARK    6  A    between atoms: C17_25  and  C18_26 
REMARK    7  A    between atoms: C18_26  and  N6_27 
ROOT
HETATM    1  C4  UNL     1     -27.146   0.972  14.837  1.00  0.00     0.119 A 
HETATM    2  N2  UNL     1     -27.654   0.523  13.686  1.00  0.00    -0.326 N 
ATOM      3  H2  UNL     1     -27.118   0.396  12.828  1.00  0.00     0.169 HD
HETATM    4  C5  UNL     1     -28.971   0.261  13.810  1.00  0.00     0.134 A 
HETATM    5  N3  UNL     1     -30.073  -0.165  13.201  1.00  0.00    -0.344 N 
ATOM      6  H3  UNL     1     -30.118  -0.458  12.225  1.00  0.00     0.167 HD
HETATM    7  C6  UNL     1     -31.124  -0.160  14.046  1.00  0.00     0.013 A 
HETATM    8  C13 UNL     1     -30.630   0.301  15.249  1.00  0.00     0.058 A 
HETATM    9  C14 UNL     1     -29.276   0.576  15.137  1.00  0.00     0.080 A 
HETATM   10  N5  UNL     1     -28.147   1.003  15.728  1.00  0.00    -0.339 N 
ATOM     11  H5  UNL     1     -28.064   1.302  16.700  1.00  0.00     0.167 HD
ENDROOT
BRANCH   1  12
HETATM   12  C3  UNL     1     -25.776   1.356  15.093  1.00  0.00     0.024 A 
HETATM   13  C2  UNL     1     -24.838   1.409  14.099  1.00  0.00     0.105 A 
HETATM   14  N1  UNL     1     -23.532   1.768  14.300  1.00  0.00    -0.362 N 
HETATM   15  C1  UNL     1     -22.666   1.753  13.140  1.00  0.00     0.155 C 
HETATM   16  C17 UNL     1     -23.104   2.091  15.505  1.00  0.00     0.029 A 
HETATM   17  C16 UNL     1     -24.032   2.053  16.563  1.00  0.00     0.028 A 
HETATM   18  C15 UNL     1     -25.348   1.693  16.368  1.00  0.00     0.018 A 
BRANCH  16  19
HETATM   19  C18 UNL     1     -21.710   2.498  15.750  1.00  0.00     0.186 C 
BRANCH  19  20
HETATM   20  N6  UNL     1     -20.880   1.504  16.346  1.00  0.00    -0.346 N 
HETATM   21  C19 UNL     1     -20.329   1.520  17.559  1.00  0.00     0.109 A 
HETATM   22  C20 UNL     1     -19.589   0.366  17.767  1.00  0.00     0.106 A 
HETATM   23  N7  UNL     1     -19.715  -0.347  16.630  1.00  0.00    -0.361 N 
HETATM   24  C21 UNL     1     -20.496   0.348  15.777  1.00  0.00     0.182 A 
ATOM     25  H7  UNL     1     -19.292  -1.257  16.446  1.00  0.00     0.166 HD
ENDBRANCH  19  20
ENDBRANCH  16  19
ENDBRANCH   1  12
BRANCH   7  26
HETATM   26  C7  UNL     1     -32.547  -0.568  13.750  1.00  0.00     0.059 C 
BRANCH  26  27
HETATM   27  C8  UNL     1     -33.473   0.601  13.911  1.00  0.00     0.034 C 
BRANCH  27  28
HETATM   28  C9  UNL     1     -34.501   0.331  14.933  1.00  0.00     0.236 C 
BRANCH  28  29
HETATM   29  N4  UNL     1     -34.410   0.976  16.185  1.00  0.00    -0.079 N 
HETATM   30  C10 UNL     1     -33.855   0.038  17.176  1.00  0.00     0.271 C 
HETATM   31  C11 UNL     1     -35.788   1.214  16.656  1.00  0.00     0.271 C 
HETATM   32  C12 UNL     1     -33.721   2.205  16.238  1.00  0.00     0.271 C 
ENDBRANCH  28  29
ENDBRANCH  27  28
ENDBRANCH  26  27
ENDBRANCH   7  26
TORSDOF 7
ENDMDL
MODEL 4
REMARK VINA RESULT: -6.773899377      1.805      2.454
REMARK  7 active torsions:
REMARK  status: ('A' for Active; 'I' for Inactive)
REMARK    1  A    between atoms: C3_4  and  C4_5 
REMARK    2  A    between atoms: C6_11  and  C7_12 
REMARK    3  A    between atoms: C7_12  and  C8_13 
REMARK    4  A    between atoms: C8_13  and  C9_14 
REMARK    5  A    between atoms: C9_14  and  N4_15 
REMARK    6  A    between atoms: C17_25  and  C18_26 
REMARK    7  A    between atoms: C18_26  and  N6_27 
ROOT
HETATM    1  C4  UNL     1     -27.117   0.993  14.878  1.00  0.00     0.119 A 
HETATM    2  N2  UNL     1     -28.128   1.002  15.751  1.00  0.00    -0.326 N 
ATOM      3  H2  UNL     1     -28.046   1.284  16.728  1.00  0.00     0.169 HD
HETATM    4  C5  UNL     1     -29.271   0.587  15.169  1.00  0.00     0.134 A 
HETATM    5  N3  UNL     1     -30.567   0.340  15.334  1.00  0.00    -0.344 N 
ATOM      6  H3  UNL     1     -31.072   0.463  16.212  1.00  0.00     0.167 HD
HETATM    7  C6  UNL     1     -31.126  -0.094  14.187  1.00  0.00     0.013 A 
HETATM    8  C13 UNL     1     -30.103  -0.114  13.261  1.00  0.00     0.058 A 
HETATM    9  C14 UNL     1     -28.920   0.310  13.845  1.00  0.00     0.080 A 
HETATM   10  N5  UNL     1     -27.608   0.567  13.706  1.00  0.00    -0.339 N 
ATOM     11  H5  UNL     1     -27.072   0.457  12.846  1.00  0.00     0.167 HD
ENDROOT
BRANCH   1  12
HETATM   12  C3  UNL     1     -25.745   1.371  15.131  1.00  0.00     0.024 A 
HETATM   13  C2  UNL     1     -24.812   1.431  14.132  1.00  0.00     0.105 A 
HETATM   14  N1  UNL     1     -23.504   1.785  14.331  1.00  0.00    -0.362 N 
HETATM   15  C1  UNL     1     -22.643   1.780  13.166  1.00  0.00     0.155 C 
HETATM   16  C17 UNL     1     -23.069   2.093  15.537  1.00  0.00     0.029 A 
HETATM   17  C16 UNL     1     -23.991   2.046  16.599  1.00  0.00     0.028 A 
HETATM   18  C15 UNL     1     -25.309   1.692  16.407  1.00  0.00     0.018 A 
BRANCH  16  19
HETATM   19  C18 UNL     1     -21.672   2.493  15.779  1.00  0.00     0.186 C 
BRANCH  19  20
HETATM   20  N6  UNL     1     -20.842   1.490  16.360  1.00  0.00    -0.346 N 
HETATM   21  C19 UNL     1     -20.299   1.484  17.577  1.00  0.00     0.109 A 
HETATM   22  C20 UNL     1     -19.556   0.328  17.767  1.00  0.00     0.106 A 
HETATM   23  N7  UNL     1     -19.671  -0.362  16.614  1.00  0.00    -0.361 N 
HETATM   24  C21 UNL     1     -20.450   0.348  15.770  1.00  0.00     0.182 A 
ATOM     25  H7  UNL     1     -19.244  -1.266  16.414  1.00  0.00     0.166 HD
ENDBRANCH  19  20
ENDBRANCH  16  19
ENDBRANCH   1  12
BRANCH   7  26
HETATM   26  C7  UNL     1     -32.566  -0.482  13.952  1.00  0.00     0.059 C 
BRANCH  26  27
HETATM   27  C8  UNL     1     -33.477   0.319  14.836  1.00  0.00     0.034 C 
BRANCH  27  28
HETATM   28  C9  UNL     1     -34.838   0.391  14.274  1.00  0.00     0.236 C 
BRANCH  28  29
HETATM   29  N4  UNL     1     -35.945   0.200  15.129  1.00  0.00    -0.079 N 
HETATM   30  C10 UNL     1     -36.841  -0.813  14.548  1.00  0.00     0.271 C 
HETATM   31  C11 UNL     1     -36.743   1.441  15.094  1.00  0.00     0.271 C 
HETATM   32  C12 UNL     1     -35.680  -0.100  16.481  1.00  0.00     0.271 C 
ENDBRANCH  28  29
ENDBRANCH  27  28
ENDBRANCH  26  27
ENDBRANCH   7  26
TORSDOF 7
ENDMDL
MODEL 5
REMARK VINA RESULT: -6.330209364      2.123      3.397
REMARK  7 active torsions:
REMARK  status: ('A' for Active; 'I' for Inactive)
REMARK    1  A    between atoms: C3_4  and  C4_5 
REMARK    2  A    between atoms: C6_11  and  C7_12 
REMARK    3  A    between atoms: C7_12  and  C8_13 
REMARK    4  A    between atoms: C8_13  and  C9_14 
REMARK    5  A    between atoms: C9_14  and  N4_15 
REMARK    6  A    between atoms: C17_25  and  C18_26 
REMARK    7  A    between atoms: C18_26  and  N6_27 
ROOT
HETATM    1  C4  UNL     1     -27.200   1.099  15.218  1.00  0.00     0.119 A 
HETATM    2  N2  UNL     1     -28.077   0.807  16.181  1.00  0.00    -0.326 N 
ATOM      3  H2  UNL     1     -27.860   0.797  17.178  1.00  0.00     0.169 HD
HETATM    4  C5  UNL     1     -29.289   0.527  15.660  1.00  0.00     0.134 A 
HETATM    5  N3  UNL     1     -30.548   0.184  15.916  1.00  0.00    -0.344 N 
ATOM      6  H3  UNL     1     -30.925   0.023  16.850  1.00  0.00     0.167 HD
HETATM    7  C6  UNL     1     -31.260   0.076  14.777  1.00  0.00     0.013 A 
HETATM    8  C13 UNL     1     -30.378   0.374  13.758  1.00  0.00     0.058 A 
HETATM    9  C14 UNL     1     -29.126   0.663  14.279  1.00  0.00     0.080 A 
HETATM   10  N5  UNL     1     -27.848   1.010  14.049  1.00  0.00    -0.339 N 
ATOM     11  H5  UNL     1     -27.437   1.179  13.130  1.00  0.00     0.167 HD
ENDROOT
BRANCH   1  12
HETATM   12  C3  UNL     1     -25.807   1.449  15.386  1.00  0.00     0.024 A 
HETATM   13  C2  UNL     1     -24.934   1.484  14.333  1.00  0.00     0.105 A 
HETATM   14  N1  UNL     1     -23.610   1.811  14.451  1.00  0.00    -0.362 N 
HETATM   15  C1  UNL     1     -22.821   1.782  13.237  1.00  0.00     0.155 C 
HETATM   16  C17 UNL     1     -23.097   2.118  15.627  1.00  0.00     0.029 A 
HETATM   17  C16 UNL     1     -23.955   2.097  16.743  1.00  0.00     0.028 A 
HETATM   18  C15 UNL     1     -25.289   1.769  16.631  1.00  0.00     0.018 A 
BRANCH  16  19
HETATM   19  C18 UNL     1     -21.680   2.490  15.783  1.00  0.00     0.186 C 
BRANCH  19  20
HETATM   20  N6  UNL     1     -20.844   1.484  16.348  1.00  0.00    -0.346 N 
HETATM   21  C19 UNL     1     -20.289   1.470  17.560  1.00  0.00     0.109 A 
HETATM   22  C20 UNL     1     -19.543   0.314  17.735  1.00  0.00     0.106 A 
HETATM   23  N7  UNL     1     -19.669  -0.368  16.579  1.00  0.00    -0.361 N 
HETATM   24  C21 UNL     1     -20.456   0.346  15.747  1.00  0.00     0.182 A 
ATOM     25  H7  UNL     1     -19.242  -1.271  16.368  1.00  0.00     0.166 HD
ENDBRANCH  19  20
ENDBRANCH  16  19
ENDBRANCH   1  12
BRANCH   7  26
HETATM   26  C7  UNL     1     -32.717  -0.292  14.631  1.00  0.00     0.059 C 
BRANCH  26  27
HETATM   27  C8  UNL     1     -33.574   0.615  15.464  1.00  0.00     0.034 C 
BRANCH  27  28
HETATM   28  C9  UNL     1     -34.081  -0.080  16.662  1.00  0.00     0.236 C 
BRANCH  28  29
HETATM   29  N4  UNL     1     -33.828   0.473  17.936  1.00  0.00    -0.079 N 
HETATM   30  C10 UNL     1     -35.093   0.574  18.683  1.00  0.00     0.271 C 
HETATM   31  C11 UNL     1     -33.426   1.878  17.729  1.00  0.00     0.271 C 
HETATM   32  C12 UNL     1     -32.839  -0.142  18.730  1.00  0.00     0.271 C 
ENDBRANCH  28  29
ENDBRANCH  27  28
ENDBRANCH  26  27
ENDBRANCH   7  26
TORSDOF 7
ENDMDL
