MODEL 1
REMARK VINA RESULT: -6.384869917      0.000      0.000
REMARK  14 active torsions:
REMARK  status: ('A' for Active; 'I' for Inactive)
REMARK    1  A    between atoms: N1_4  and  C4_5 
REMARK    2  A    between atoms: C4_5  and  C5_6 
REMARK    3  A    between atoms: C5_6  and  C6_7 
REMARK    4  A    between atoms: C6_7  and  O1_8 
REMARK    5  A    between atoms: N2_12  and  C9_13 
REMARK    6  A    between atoms: C9_13  and  C10_14 
REMARK    7  A    between atoms: C10_14  and  C11_15 
REMARK    8  A    between atoms: C12_16  and  C13_17 
REMARK    9  A    between atoms: C14_18  and  C15_19 
REMARK   10  A    between atoms: C15_19  and  C16_20 
REMARK   11  A    between atoms: C16_20  and  C17_21 
REMARK   12  A    between atoms: C17_21  and  C18_22 
REMARK   13  A    between atoms: C19_23  and  N3_24 
REMARK   14  A    between atoms: N3_24  and  C20_26 
ROOT
HETATM    1  C10 UNL     1     -31.624  -0.459  16.541  1.00  0.00     0.123 C 
ENDROOT
BRANCH   1   2
HETATM    2  C9  UNL     1     -31.410  -1.430  17.623  1.00  0.00     0.256 C 
BRANCH   2   3
HETATM    3  N2  UNL     1     -30.944  -1.057  18.887  1.00  0.00    -0.036 N 
HETATM    4  C2  UNL     1     -29.727  -1.648  19.319  1.00  0.00     0.131 C 
HETATM    5  C1  UNL     1     -29.342  -2.841  18.963  1.00  0.00     0.048 C 
HETATM    6  C3  UNL     1     -28.896  -0.799  20.219  1.00  0.00     0.301 C 
HETATM    7  N1  UNL     1     -29.897   0.011  21.033  1.00  0.00    -0.059 N 
HETATM    8  C7  UNL     1     -30.949  -0.951  21.260  1.00  0.00     0.266 C 
HETATM    9  C23 UNL     1     -30.310   1.014  20.113  1.00  0.00     0.266 C 
HETATM   10  C8  UNL     1     -31.833  -1.066  20.004  1.00  0.00     0.271 C 
HETATM   11  C22 UNL     1     -30.587   0.407  18.753  1.00  0.00     0.271 C 
BRANCH   7  12
HETATM   12  C4  UNL     1     -29.203   0.359  22.186  1.00  0.00     0.240 C 
BRANCH  12  13
HETATM   13  C5  UNL     1     -28.582   1.644  22.466  1.00  0.00     0.054 C 
BRANCH  13  14
HETATM   14  C6  UNL     1     -27.209   1.943  21.975  1.00  0.00     0.165 C 
BRANCH  14  15
HETATM   15  O1  UNL     1     -26.298   0.926  21.930  1.00  0.00    -0.401 OA
ATOM     16  H1  UNL     1     -25.420   1.118  21.621  1.00  0.00     0.209 HD
ENDBRANCH  14  15
ENDBRANCH  13  14
ENDBRANCH  12  13
ENDBRANCH   7  12
ENDBRANCH   2   3
ENDBRANCH   1   2
BRANCH   1  17
HETATM   17  C11 UNL     1     -30.424  -0.038  15.845  1.00  0.00    -0.091 C 
HETATM   18  C12 UNL     1     -29.389   0.299  15.276  1.00  0.00    -0.015 C 
BRANCH  18  19
HETATM   19  C13 UNL     1     -28.210   0.708  14.613  1.00  0.00    -0.015 C 
HETATM   20  C14 UNL     1     -27.212   1.057  14.029  1.00  0.00    -0.092 C 
BRANCH  20  21
HETATM   21  C15 UNL     1     -26.006   1.488  13.292  1.00  0.00     0.096 C 
BRANCH  21  22
HETATM   22  C16 UNL     1     -24.921   1.744  14.317  1.00  0.00     0.024 C 
BRANCH  22  23
HETATM   23  C17 UNL     1     -23.575   1.984  13.668  1.00  0.00     0.097 C 
BRANCH  23  24
HETATM   24  C18 UNL     1     -22.522   1.247  14.367  1.00  0.00    -0.083 C 
HETATM   25  C19 UNL     1     -21.639   0.642  14.927  1.00  0.00     0.011 C 
BRANCH  25  26
HETATM   26  N3  UNL     1     -20.602  -0.052  15.557  1.00  0.00    -0.305 N 
ATOM     27  H3  UNL     1     -20.323  -0.975  15.220  1.00  0.00     0.177 HD
BRANCH  26  28
HETATM   28  C20 UNL     1     -19.936   0.533  16.668  1.00  0.00     0.078 C 
HETATM   29  C21 UNL     1     -20.518   1.667  17.437  1.00  0.00     0.089 C 
HETATM   30  N4  UNL     1     -18.772   0.066  17.034  1.00  0.00    -0.389 N 
ATOM     31  H42 UNL     1     -18.373  -0.711  16.508  1.00  0.00     0.157 HD
ATOM     32  H41 UNL     1     -18.294   0.485  17.831  1.00  0.00     0.157 HD
ENDBRANCH  26  28
ENDBRANCH  25  26
ENDBRANCH  23  24
ENDBRANCH  22  23
ENDBRANCH  21  22
ENDBRANCH  20  21
ENDBRANCH  18  19
ENDBRANCH   1  17
TORSDOF 14
ENDMDL
MODEL 2
REMARK VINA RESULT: -6.283829410      2.252      3.192
REMARK  14 active torsions:
REMARK  status: ('A' for Active; 'I' for Inactive)
REMARK    1  A    between atoms: N1_4  and  C4_5 
REMARK    2  A    between atoms: C4_5  and  C5_6 
REMARK    3  A    between atoms: C5_6  and  C6_7 
REMARK    4  A    between atoms: C6_7  and  O1_8 
REMARK    5  A    between atoms: N2_12  and  C9_13 
REMARK    6  A    between atoms: C9_13  and  C10_14 
REMARK    7  A    between atoms: C10_14  and  C11_15 
REMARK    8  A    between atoms: C12_16  and  C13_17 
REMARK    9  A    between atoms: C14_18  and  C15_19 
REMARK   10  A    between atoms: C15_19  and  C16_20 
REMARK   11  A    between atoms: C16_20  and  C17_21 
REMARK   12  A    between atoms: C17_21  and  C18_22 
REMARK   13  A    between atoms: C19_23  and  N3_24 
REMARK   14  A    between atoms: N3_24  and  C20_26 
ROOT
HETATM    1  C10 UNL     1     -30.750   2.245  17.839  1.00  0.00     0.123 C 
ENDROOT
BRANCH   1   2
HETATM    2  C9  UNL     1     -30.385   1.635  19.126  1.00  0.00     0.256 C 
BRANCH   2   3
HETATM    3  N2  UNL     1     -30.472   0.260  19.359  1.00  0.00    -0.036 N 
HETATM    4  C2  UNL     1     -29.252  -0.424  19.610  1.00  0.00     0.131 C 
HETATM    5  C1  UNL     1     -28.109  -0.063  19.100  1.00  0.00     0.048 C 
HETATM    6  C3  UNL     1     -29.363  -1.602  20.516  1.00  0.00     0.301 C 
HETATM    7  N1  UNL     1     -30.738  -2.192  20.230  1.00  0.00    -0.059 N 
HETATM    8  C7  UNL     1     -30.851  -2.018  18.803  1.00  0.00     0.266 C 
HETATM    9  C23 UNL     1     -31.608  -1.306  20.925  1.00  0.00     0.266 C 
HETATM   10  C8  UNL     1     -31.240  -0.563  18.481  1.00  0.00     0.271 C 
HETATM   11  C22 UNL     1     -31.213   0.134  20.672  1.00  0.00     0.271 C 
BRANCH   7  12
HETATM   12  C4  UNL     1     -30.632  -3.521  20.623  1.00  0.00     0.240 C 
BRANCH  12  13
HETATM   13  C5  UNL     1     -31.458  -4.199  21.609  1.00  0.00     0.054 C 
BRANCH  13  14
HETATM   14  C6  UNL     1     -31.094  -5.558  22.096  1.00  0.00     0.165 C 
BRANCH  14  15
HETATM   15  O1  UNL     1     -30.071  -6.219  21.477  1.00  0.00    -0.401 OA
ATOM     16  H1  UNL     1     -29.402  -6.624  22.017  1.00  0.00     0.209 HD
ENDBRANCH  14  15
ENDBRANCH  13  14
ENDBRANCH  12  13
ENDBRANCH   7  12
ENDBRANCH   2   3
ENDBRANCH   1   2
BRANCH   1  17
HETATM   17  C11 UNL     1     -29.678   2.315  16.866  1.00  0.00    -0.091 C 
HETATM   18  C12 UNL     1     -28.752   2.394  16.062  1.00  0.00    -0.015 C 
BRANCH  18  19
HETATM   19  C13 UNL     1     -27.703   2.479  15.119  1.00  0.00    -0.015 C 
HETATM   20  C14 UNL     1     -26.821   2.557  14.298  1.00  0.00    -0.092 C 
BRANCH  20  21
HETATM   21  C15 UNL     1     -25.758   2.662  13.277  1.00  0.00     0.096 C 
BRANCH  21  22
HETATM   22  C16 UNL     1     -24.673   1.676  13.655  1.00  0.00     0.024 C 
BRANCH  22  23
HETATM   23  C17 UNL     1     -23.291   2.283  13.537  1.00  0.00     0.097 C 
BRANCH  23  24
HETATM   24  C18 UNL     1     -22.305   1.477  14.257  1.00  0.00    -0.083 C 
HETATM   25  C19 UNL     1     -21.506   0.799  14.859  1.00  0.00     0.011 C 
BRANCH  25  26
HETATM   26  N3  UNL     1     -20.601  -0.001  15.562  1.00  0.00    -0.305 N 
ATOM     27  H3  UNL     1     -20.421  -0.959  15.259  1.00  0.00     0.177 HD
BRANCH  26  28
HETATM   28  C20 UNL     1     -19.931   0.526  16.700  1.00  0.00     0.078 C 
HETATM   29  C21 UNL     1     -20.500   1.634  17.515  1.00  0.00     0.089 C 
HETATM   30  N4  UNL     1     -18.775   0.027  17.049  1.00  0.00    -0.389 N 
ATOM     31  H42 UNL     1     -18.386  -0.733  16.491  1.00  0.00     0.157 HD
ATOM     32  H41 UNL     1     -18.295   0.404  17.865  1.00  0.00     0.157 HD
ENDBRANCH  26  28
ENDBRANCH  25  26
ENDBRANCH  23  24
ENDBRANCH  22  23
ENDBRANCH  21  22
ENDBRANCH  20  21
ENDBRANCH  18  19
ENDBRANCH   1  17
TORSDOF 14
ENDMDL
MODEL 3
REMARK VINA RESULT: -6.238131779      2.254      3.366
REMARK  14 active torsions:
REMARK  status: ('A' for Active; 'I' for Inactive)
REMARK    1  A    between atoms: N1_4  and  C4_5 
REMARK    2  A    between atoms: C4_5  and  C5_6 
REMARK    3  A    between atoms: C5_6  and  C6_7 
REMARK    4  A    between atoms: C6_7  and  O1_8 
REMARK    5  A    between atoms: N2_12  and  C9_13 
REMARK    6  A    between atoms: C9_13  and  C10_14 
REMARK    7  A    between atoms: C10_14  and  C11_15 
REMARK    8  A    between atoms: C12_16  and  C13_17 
REMARK    9  A    between atoms: C14_18  and  C15_19 
REMARK   10  A    between atoms: C15_19  and  C16_20 
REMARK   11  A    between atoms: C16_20  and  C17_21 
REMARK   12  A    between atoms: C17_21  and  C18_22 
REMARK   13  A    between atoms: C19_23  and  N3_24 
REMARK   14  A    between atoms: N3_24  and  C20_26 
ROOT
HETATM    1  C10 UNL     1     -27.713   0.995  19.229  1.00  0.00     0.123 C 
ENDROOT
BRANCH   1   2
HETATM    2  C9  UNL     1     -28.189  -0.383  19.423  1.00  0.00     0.256 C 
BRANCH   2   3
HETATM    3  N2  UNL     1     -29.476  -0.677  19.885  1.00  0.00    -0.036 N 
HETATM    4  C2  UNL     1     -29.852  -2.046  19.896  1.00  0.00     0.131 C 
HETATM    5  C1  UNL     1     -29.402  -2.922  19.042  1.00  0.00     0.048 C 
HETATM    6  C3  UNL     1     -30.810  -2.430  20.971  1.00  0.00     0.301 C 
HETATM    7  N1  UNL     1     -31.691  -1.203  21.171  1.00  0.00    -0.059 N 
HETATM    8  C7  UNL     1     -31.849  -0.722  19.820  1.00  0.00     0.266 C 
HETATM    9  C23 UNL     1     -30.854  -0.338  21.928  1.00  0.00     0.266 C 
HETATM   10  C8  UNL     1     -30.594   0.061  19.393  1.00  0.00     0.271 C 
HETATM   11  C22 UNL     1     -29.454  -0.314  21.354  1.00  0.00     0.271 C 
BRANCH   7  12
HETATM   12  C4  UNL     1     -32.863  -1.706  21.724  1.00  0.00     0.240 C 
BRANCH  12  13
HETATM   13  C5  UNL     1     -33.009  -2.959  22.447  1.00  0.00     0.054 C 
BRANCH  13  14
HETATM   14  C6  UNL     1     -33.077  -2.972  23.934  1.00  0.00     0.165 C 
BRANCH  14  15
HETATM   15  O1  UNL     1     -32.165  -2.232  24.633  1.00  0.00    -0.401 OA
ATOM     16  H1  UNL     1     -31.992  -2.465  25.537  1.00  0.00     0.209 HD
ENDBRANCH  14  15
ENDBRANCH  13  14
ENDBRANCH  12  13
ENDBRANCH   7  12
ENDBRANCH   2   3
ENDBRANCH   1   2
BRANCH   1  17
HETATM   17  C11 UNL     1     -27.019   1.234  17.979  1.00  0.00    -0.091 C 
HETATM   18  C12 UNL     1     -26.451   1.463  16.914  1.00  0.00    -0.015 C 
BRANCH  18  19
HETATM   19  C13 UNL     1     -25.789   1.702  15.689  1.00  0.00    -0.015 C 
HETATM   20  C14 UNL     1     -25.235   1.924  14.639  1.00  0.00    -0.092 C 
BRANCH  20  21
HETATM   21  C15 UNL     1     -24.567   2.219  13.355  1.00  0.00     0.096 C 
BRANCH  21  22
HETATM   22  C16 UNL     1     -23.074   2.190  13.608  1.00  0.00     0.024 C 
BRANCH  22  23
HETATM   23  C17 UNL     1     -22.525   0.779  13.594  1.00  0.00     0.097 C 
BRANCH  23  24
HETATM   24  C18 UNL     1     -21.591   0.573  14.701  1.00  0.00    -0.083 C 
HETATM   25  C19 UNL     1     -20.825   0.383  15.615  1.00  0.00     0.011 C 
BRANCH  25  26
HETATM   26  N3  UNL     1     -19.944   0.138  16.673  1.00  0.00    -0.305 N 
ATOM     27  H3  UNL     1     -19.370  -0.706  16.677  1.00  0.00     0.177 HD
BRANCH  26  28
HETATM   28  C20 UNL     1     -19.852   1.070  17.743  1.00  0.00     0.078 C 
HETATM   29  C21 UNL     1     -19.779   0.641  19.166  1.00  0.00     0.089 C 
HETATM   30  N4  UNL     1     -19.829   2.348  17.476  1.00  0.00    -0.389 N 
ATOM     31  H42 UNL     1     -19.879   2.642  16.501  1.00  0.00     0.157 HD
ATOM     32  H41 UNL     1     -19.763   3.017  18.243  1.00  0.00     0.157 HD
ENDBRANCH  26  28
ENDBRANCH  25  26
ENDBRANCH  23  24
ENDBRANCH  22  23
ENDBRANCH  21  22
ENDBRANCH  20  21
ENDBRANCH  18  19
ENDBRANCH   1  17
TORSDOF 14
ENDMDL
MODEL 4
REMARK VINA RESULT: -6.176286495      0.961      1.724
REMARK  14 active torsions:
REMARK  status: ('A' for Active; 'I' for Inactive)
REMARK    1  A    between atoms: N1_4  and  C4_5 
REMARK    2  A    between atoms: C4_5  and  C5_6 
REMARK    3  A    between atoms: C5_6  and  C6_7 
REMARK    4  A    between atoms: C6_7  and  O1_8 
REMARK    5  A    between atoms: N2_12  and  C9_13 
REMARK    6  A    between atoms: C9_13  and  C10_14 
REMARK    7  A    between atoms: C10_14  and  C11_15 
REMARK    8  A    between atoms: C12_16  and  C13_17 
REMARK    9  A    between atoms: C14_18  and  C15_19 
REMARK   10  A    between atoms: C15_19  and  C16_20 
REMARK   11  A    between atoms: C16_20  and  C17_21 
REMARK   12  A    between atoms: C17_21  and  C18_22 
REMARK   13  A    between atoms: C19_23  and  N3_24 
REMARK   14  A    between atoms: N3_24  and  C20_26 
ROOT
HETATM    1  C10 UNL     1     -31.555  -0.549  15.964  1.00  0.00     0.123 C 
ENDROOT
BRANCH   1   2
HETATM    2  C9  UNL     1     -31.775  -0.086  17.342  1.00  0.00     0.256 C 
BRANCH   2   3
HETATM    3  N2  UNL     1     -30.812  -0.226  18.346  1.00  0.00    -0.036 N 
HETATM    4  C2  UNL     1     -30.235   0.971  18.847  1.00  0.00     0.131 C 
HETATM    5  C1  UNL     1     -30.074   2.047  18.129  1.00  0.00     0.048 C 
HETATM    6  C3  UNL     1     -29.821   0.922  20.278  1.00  0.00     0.301 C 
HETATM    7  N1  UNL     1     -29.373  -0.515  20.510  1.00  0.00    -0.059 N 
HETATM    8  C7  UNL     1     -28.709  -0.829  19.269  1.00  0.00     0.266 C 
HETATM    9  C23 UNL     1     -30.608  -1.213  20.621  1.00  0.00     0.266 C 
HETATM   10  C8  UNL     1     -29.752  -1.168  18.188  1.00  0.00     0.271 C 
HETATM   11  C22 UNL     1     -31.569  -0.769  19.538  1.00  0.00     0.271 C 
BRANCH   7  12
HETATM   12  C4  UNL     1     -28.512  -0.437  21.599  1.00  0.00     0.240 C 
BRANCH  12  13
HETATM   13  C5  UNL     1     -28.379   0.683  22.517  1.00  0.00     0.054 C 
BRANCH  13  14
HETATM   14  C6  UNL     1     -27.975   0.459  23.932  1.00  0.00     0.165 C 
BRANCH  14  15
HETATM   15  O1  UNL     1     -26.998  -0.460  24.192  1.00  0.00    -0.401 OA
ATOM     16  H1  UNL     1     -26.966  -0.853  25.056  1.00  0.00     0.209 HD
ENDBRANCH  14  15
ENDBRANCH  13  14
ENDBRANCH  12  13
ENDBRANCH   7  12
ENDBRANCH   2   3
ENDBRANCH   1   2
BRANCH   1  17
HETATM   17  C11 UNL     1     -30.362  -0.030  15.325  1.00  0.00    -0.091 C 
HETATM   18  C12 UNL     1     -29.342   0.379  14.776  1.00  0.00    -0.015 C 
BRANCH  18  19
HETATM   19  C13 UNL     1     -28.170   0.870  14.158  1.00  0.00    -0.015 C 
HETATM   20  C14 UNL     1     -27.162   1.298  13.648  1.00  0.00    -0.092 C 
BRANCH  20  21
HETATM   21  C15 UNL     1     -25.921   1.827  13.048  1.00  0.00     0.096 C 
BRANCH  21  22
HETATM   22  C16 UNL     1     -24.857   1.809  14.125  1.00  0.00     0.024 C 
BRANCH  22  23
HETATM   23  C17 UNL     1     -23.484   2.125  13.570  1.00  0.00     0.097 C 
BRANCH  23  24
HETATM   24  C18 UNL     1     -22.448   1.385  14.291  1.00  0.00    -0.083 C 
HETATM   25  C19 UNL     1     -21.600   0.756  14.877  1.00  0.00     0.011 C 
BRANCH  25  26
HETATM   26  N3  UNL     1     -20.625   0.007  15.544  1.00  0.00    -0.305 N 
ATOM     27  H3  UNL     1     -20.402  -0.938  15.231  1.00  0.00     0.177 HD
BRANCH  26  28
HETATM   28  C20 UNL     1     -19.946   0.569  16.659  1.00  0.00     0.078 C 
HETATM   29  C21 UNL     1     -20.485   1.732  17.415  1.00  0.00     0.089 C 
HETATM   30  N4  UNL     1     -18.808   0.053  17.040  1.00  0.00    -0.389 N 
ATOM     31  H42 UNL     1     -18.438  -0.744  16.522  1.00  0.00     0.157 HD
ATOM     32  H41 UNL     1     -18.320   0.456  17.840  1.00  0.00     0.157 HD
ENDBRANCH  26  28
ENDBRANCH  25  26
ENDBRANCH  23  24
ENDBRANCH  22  23
ENDBRANCH  21  22
ENDBRANCH  20  21
ENDBRANCH  18  19
ENDBRANCH   1  17
TORSDOF 14
ENDMDL
MODEL 5
REMARK VINA RESULT: -6.084684603      5.024      7.516
REMARK  14 active torsions:
REMARK  status: ('A' for Active; 'I' for Inactive)
REMARK    1  A    between atoms: N1_4  and  C4_5 
REMARK    2  A    between atoms: C4_5  and  C5_6 
REMARK    3  A    between atoms: C5_6  and  C6_7 
REMARK    4  A    between atoms: C6_7  and  O1_8 
REMARK    5  A    between atoms: N2_12  and  C9_13 
REMARK    6  A    between atoms: C9_13  and  C10_14 
REMARK    7  A    between atoms: C10_14  and  C11_15 
REMARK    8  A    between atoms: C12_16  and  C13_17 
REMARK    9  A    between atoms: C14_18  and  C15_19 
REMARK   10  A    between atoms: C15_19  and  C16_20 
REMARK   11  A    between atoms: C16_20  and  C17_21 
REMARK   12  A    between atoms: C17_21  and  C18_22 
REMARK   13  A    between atoms: C19_23  and  N3_24 
REMARK   14  A    between atoms: N3_24  and  C20_26 
ROOT
HETATM    1  C10 UNL     1     -31.632  -0.193  15.508  1.00  0.00     0.123 C 
ENDROOT
BRANCH   1   2
HETATM    2  C9  UNL     1     -32.579   0.741  14.882  1.00  0.00     0.256 C 
BRANCH   2   3
HETATM    3  N2  UNL     1     -32.970   0.632  13.544  1.00  0.00    -0.036 N 
HETATM    4  C2  UNL     1     -32.191   1.343  12.592  1.00  0.00     0.131 C 
HETATM    5  C1  UNL     1     -31.579   2.462  12.856  1.00  0.00     0.048 C 
HETATM    6  C3  UNL     1     -32.112   0.713  11.244  1.00  0.00     0.301 C 
HETATM    7  N1  UNL     1     -33.461   0.032  11.046  1.00  0.00    -0.059 N 
HETATM    8  C7  UNL     1     -34.367   0.975  11.655  1.00  0.00     0.266 C 
HETATM    9  C23 UNL     1     -33.336  -1.143  11.839  1.00  0.00     0.266 C 
HETATM   10  C8  UNL     1     -34.339   0.815  13.186  1.00  0.00     0.271 C 
HETATM   11  C22 UNL     1     -32.719  -0.815  13.182  1.00  0.00     0.271 C 
BRANCH   7  12
HETATM   12  C4  UNL     1     -33.601  -0.065   9.667  1.00  0.00     0.240 C 
BRANCH  12  13
HETATM   13  C5  UNL     1     -34.272  -1.130   8.939  1.00  0.00     0.054 C 
BRANCH  13  14
HETATM   14  C6  UNL     1     -33.500  -2.286   8.405  1.00  0.00     0.165 C 
BRANCH  14  15
HETATM   15  O1  UNL     1     -32.685  -2.082   7.328  1.00  0.00    -0.401 OA
ATOM     16  H1  UNL     1     -31.777  -2.357   7.389  1.00  0.00     0.209 HD
ENDBRANCH  14  15
ENDBRANCH  13  14
ENDBRANCH  12  13
ENDBRANCH   7  12
ENDBRANCH   2   3
ENDBRANCH   1   2
BRANCH   1  17
HETATM   17  C11 UNL     1     -30.237   0.186  15.407  1.00  0.00    -0.091 C 
HETATM   18  C12 UNL     1     -29.046   0.477  15.326  1.00  0.00    -0.015 C 
BRANCH  18  19
HETATM   19  C13 UNL     1     -27.681   0.834  15.239  1.00  0.00    -0.015 C 
HETATM   20  C14 UNL     1     -26.515   1.140  15.186  1.00  0.00    -0.092 C 
BRANCH  20  21
HETATM   21  C15 UNL     1     -25.085   1.512  15.146  1.00  0.00     0.096 C 
BRANCH  21  22
HETATM   22  C16 UNL     1     -24.706   1.685  13.690  1.00  0.00     0.024 C 
BRANCH  22  23
HETATM   23  C17 UNL     1     -23.320   2.273  13.532  1.00  0.00     0.097 C 
BRANCH  23  24
HETATM   24  C18 UNL     1     -22.331   1.476  14.258  1.00  0.00    -0.083 C 
HETATM   25  C19 UNL     1     -21.529   0.804  14.862  1.00  0.00     0.011 C 
BRANCH  25  26
HETATM   26  N3  UNL     1     -20.620   0.009  15.566  1.00  0.00    -0.305 N 
ATOM     27  H3  UNL     1     -20.439  -0.950  15.267  1.00  0.00     0.177 HD
BRANCH  26  28
HETATM   28  C20 UNL     1     -19.947   0.542  16.699  1.00  0.00     0.078 C 
HETATM   29  C21 UNL     1     -20.516   1.653  17.510  1.00  0.00     0.089 C 
HETATM   30  N4  UNL     1     -18.790   0.047  17.048  1.00  0.00    -0.389 N 
ATOM     31  H42 UNL     1     -18.401  -0.715  16.492  1.00  0.00     0.157 HD
ATOM     32  H41 UNL     1     -18.308   0.429  17.861  1.00  0.00     0.157 HD
ENDBRANCH  26  28
ENDBRANCH  25  26
ENDBRANCH  23  24
ENDBRANCH  22  23
ENDBRANCH  21  22
ENDBRANCH  20  21
ENDBRANCH  18  19
ENDBRANCH   1  17
TORSDOF 14
ENDMDL
