MODEL 1
REMARK VINA RESULT: -7.522315461      0.000      0.000
REMARK  7 active torsions:
REMARK  status: ('A' for Active; 'I' for Inactive)
REMARK    1  A    between atoms: C4_7  and  C5_8 
REMARK    2  A    between atoms: C5_8  and  C6_9 
REMARK    3  A    between atoms: C6_9  and  C7_10 
REMARK    4  A    between atoms: C7_10  and  O1_11 
REMARK    5  A    between atoms: O1_11  and  C8_12 
REMARK    6  A    between atoms: C8_12  and  C9_13 
REMARK    7  A    between atoms: C12_20  and  C13_21 
ROOT
HETATM    1  C9  UNL     1     -28.147   3.342  18.114  1.00  0.00    -0.005 A 
HETATM    2  C10 UNL     1     -29.339   3.551  17.517  1.00  0.00     0.100 A 
HETATM    3  N3  UNL     1     -29.140   3.217  16.186  1.00  0.00    -0.351 N 
ATOM      4  H3  UNL     1     -29.841   3.254  15.446  1.00  0.00     0.166 HD
HETATM    5  C11 UNL     1     -27.835   2.827  16.042  1.00  0.00     0.116 A 
HETATM    6  N4  UNL     1     -26.937   2.358  15.185  1.00  0.00    -0.341 N 
ATOM      7  H4  UNL     1     -27.139   2.190  14.199  1.00  0.00     0.167 HD
HETATM    8  C12 UNL     1     -25.736   2.126  15.742  1.00  0.00     0.051 A 
HETATM    9  C21 UNL     1     -25.902   2.471  17.104  1.00  0.00     0.046 A 
HETATM   10  C22 UNL     1     -27.195   2.900  17.236  1.00  0.00     0.020 A 
ENDROOT
BRANCH   1  11
HETATM   11  C8  UNL     1     -27.733   3.535  19.590  1.00  0.00     0.208 C 
BRANCH  11  12
HETATM   12  O1  UNL     1     -27.637   2.320  20.042  1.00  0.00    -0.387 OA
BRANCH  12  13
HETATM   13  C7  UNL     1     -28.330   1.286  20.226  1.00  0.00     0.168 C 
BRANCH  13  14
HETATM   14  C6  UNL     1     -27.724   0.013  19.748  1.00  0.00     0.032 C 
BRANCH  14  15
HETATM   15  C5  UNL     1     -28.456  -0.349  18.412  1.00  0.00     0.061 C 
BRANCH  15  16
HETATM   16  C4  UNL     1     -29.418  -1.368  18.897  1.00  0.00     0.029 A 
HETATM   17  N1  UNL     1     -30.558  -1.671  18.317  1.00  0.00    -0.301 N 
HETATM   18  C1  UNL     1     -31.158  -0.939  17.173  1.00  0.00     0.177 C 
HETATM   19  N2  UNL     1     -31.090  -2.705  18.860  1.00  0.00    -0.310 N 
HETATM   20  C2  UNL     1     -30.309  -3.137  19.882  1.00  0.00     0.109 A 
ATOM     21  H2  UNL     1     -31.967  -3.136  18.569  1.00  0.00     0.186 HD
HETATM   22  C3  UNL     1     -29.213  -2.271  19.933  1.00  0.00     0.045 A 
ENDBRANCH  15  16
ENDBRANCH  14  15
ENDBRANCH  13  14
ENDBRANCH  12  13
ENDBRANCH  11  12
ENDBRANCH   1  11
BRANCH   8  23
HETATM   23  C13 UNL     1     -24.486   1.700  15.123  1.00  0.00     0.071 A 
HETATM   24  C14 UNL     1     -23.257   1.636  15.464  1.00  0.00     0.009 A 
HETATM   25  C15 UNL     1     -22.636   1.970  16.662  1.00  0.00     0.015 A 
HETATM   26  C19 UNL     1     -22.501   1.113  14.467  1.00  0.00     0.046 A 
HETATM   27  C16 UNL     1     -21.262   1.754  16.796  1.00  0.00     0.001 A 
HETATM   28  C17 UNL     1     -20.502   1.234  15.773  1.00  0.00     0.002 A 
HETATM   29  C18 UNL     1     -21.104   0.898  14.586  1.00  0.00     0.030 A 
HETATM   30  N5  UNL     1     -23.200   0.827  13.447  1.00  0.00    -0.322 N 
HETATM   31  C20 UNL     1     -24.514   1.168  13.725  1.00  0.00     0.259 A 
ATOM     32  H5  UNL     1     -22.855   0.420  12.577  1.00  0.00     0.169 HD
HETATM   33  O2  UNL     1     -25.553   1.087  13.025  1.00  0.00    -0.267 OA
ENDBRANCH   8  23
TORSDOF 7
ENDMDL
MODEL 2
REMARK VINA RESULT: -7.499882342      2.296      7.644
REMARK  7 active torsions:
REMARK  status: ('A' for Active; 'I' for Inactive)
REMARK    1  A    between atoms: C4_7  and  C5_8 
REMARK    2  A    between atoms: C5_8  and  C6_9 
REMARK    3  A    between atoms: C6_9  and  C7_10 
REMARK    4  A    between atoms: C7_10  and  O1_11 
REMARK    5  A    between atoms: O1_11  and  C8_12 
REMARK    6  A    between atoms: C8_12  and  C9_13 
REMARK    7  A    between atoms: C12_20  and  C13_21 
ROOT
HETATM    1  C9  UNL     1     -26.302   2.360  14.015  1.00  0.00    -0.005 A 
HETATM    2  C10 UNL     1     -26.697   3.495  13.402  1.00  0.00     0.100 A 
HETATM    3  N3  UNL     1     -28.049   3.611  13.693  1.00  0.00    -0.351 N 
ATOM      4  H3  UNL     1     -28.667   4.362  13.387  1.00  0.00     0.166 HD
HETATM    5  C11 UNL     1     -28.406   2.536  14.463  1.00  0.00     0.116 A 
HETATM    6  N4  UNL     1     -29.403   1.972  15.132  1.00  0.00    -0.341 N 
ATOM      7  H4  UNL     1     -30.347   2.359  15.161  1.00  0.00     0.167 HD
HETATM    8  C12 UNL     1     -29.049   0.841  15.767  1.00  0.00     0.051 A 
HETATM    9  C21 UNL     1     -27.673   0.686  15.479  1.00  0.00     0.046 A 
HETATM   10  C22 UNL     1     -27.328   1.738  14.674  1.00  0.00     0.020 A 
ENDROOT
BRANCH   1  11
HETATM   11  C8  UNL     1     -24.909   1.694  14.062  1.00  0.00     0.208 C 
BRANCH  11  12
HETATM   12  O1  UNL     1     -24.382   2.164  15.152  1.00  0.00    -0.387 OA
BRANCH  12  13
HETATM   13  C7  UNL     1     -24.152   1.842  16.347  1.00  0.00     0.168 C 
BRANCH  13  14
HETATM   14  C6  UNL     1     -23.047   2.588  17.011  1.00  0.00     0.032 C 
BRANCH  14  15
HETATM   15  C5  UNL     1     -21.884   2.677  15.967  1.00  0.00     0.061 C 
BRANCH  15  16
HETATM   16  C4  UNL     1     -21.039   1.539  16.405  1.00  0.00     0.029 A 
HETATM   17  N1  UNL     1     -20.852   0.429  15.727  1.00  0.00    -0.301 N 
HETATM   18  C1  UNL     1     -21.576   0.049  14.488  1.00  0.00     0.177 C 
HETATM   19  N2  UNL     1     -19.938  -0.292  16.269  1.00  0.00    -0.310 N 
HETATM   20  C2  UNL     1     -19.477   0.320  17.388  1.00  0.00     0.109 A 
ATOM     21  H2  UNL     1     -19.609  -1.189  15.912  1.00  0.00     0.186 HD
HETATM   22  C3  UNL     1     -20.190   1.517  17.505  1.00  0.00     0.045 A 
ENDBRANCH  15  16
ENDBRANCH  14  15
ENDBRANCH  13  14
ENDBRANCH  12  13
ENDBRANCH  11  12
ENDBRANCH   1  11
BRANCH   8  23
HETATM   23  C13 UNL     1     -29.867  -0.102  16.521  1.00  0.00     0.071 A 
HETATM   24  C14 UNL     1     -29.763  -0.749  17.617  1.00  0.00     0.009 A 
HETATM   25  C15 UNL     1     -28.742  -0.767  18.560  1.00  0.00     0.015 A 
HETATM   26  C19 UNL     1     -30.878  -1.484  17.857  1.00  0.00     0.046 A 
HETATM   27  C16 UNL     1     -28.900  -1.537  19.716  1.00  0.00     0.001 A 
HETATM   28  C17 UNL     1     -30.031  -2.289  19.943  1.00  0.00     0.002 A 
HETATM   29  C18 UNL     1     -31.047  -2.278  19.020  1.00  0.00     0.030 A 
HETATM   30  N5  UNL     1     -31.737  -1.351  16.932  1.00  0.00    -0.322 N 
HETATM   31  C20 UNL     1     -31.209  -0.487  15.986  1.00  0.00     0.259 A 
ATOM     32  H5  UNL     1     -32.652  -1.800  16.892  1.00  0.00     0.169 HD
HETATM   33  O2  UNL     1     -31.678  -0.070  14.898  1.00  0.00    -0.267 OA
ENDBRANCH   8  23
TORSDOF 7
ENDMDL
MODEL 3
REMARK VINA RESULT: -7.497785957      2.000      7.759
REMARK  7 active torsions:
REMARK  status: ('A' for Active; 'I' for Inactive)
REMARK    1  A    between atoms: C4_7  and  C5_8 
REMARK    2  A    between atoms: C5_8  and  C6_9 
REMARK    3  A    between atoms: C6_9  and  C7_10 
REMARK    4  A    between atoms: C7_10  and  O1_11 
REMARK    5  A    between atoms: O1_11  and  C8_12 
REMARK    6  A    between atoms: C8_12  and  C9_13 
REMARK    7  A    between atoms: C12_20  and  C13_21 
ROOT
HETATM    1  C9  UNL     1     -26.547   2.450  14.142  1.00  0.00    -0.005 A 
HETATM    2  C10 UNL     1     -27.052   3.624  13.710  1.00  0.00     0.100 A 
HETATM    3  N3  UNL     1     -27.860   4.072  14.746  1.00  0.00    -0.351 N 
ATOM      4  H3  UNL     1     -28.397   4.939  14.757  1.00  0.00     0.166 HD
HETATM    5  C11 UNL     1     -27.806   3.143  15.751  1.00  0.00     0.116 A 
HETATM    6  N4  UNL     1     -28.214   2.860  16.981  1.00  0.00    -0.341 N 
ATOM      7  H4  UNL     1     -28.840   3.464  17.516  1.00  0.00     0.167 HD
HETATM    8  C12 UNL     1     -27.724   1.701  17.454  1.00  0.00     0.051 A 
HETATM    9  C21 UNL     1     -26.903   1.209  16.412  1.00  0.00     0.046 A 
HETATM   10  C22 UNL     1     -26.992   2.118  15.393  1.00  0.00     0.020 A 
ENDROOT
BRANCH   1  11
HETATM   11  C8  UNL     1     -25.581   1.471  13.439  1.00  0.00     0.208 C 
BRANCH  11  12
HETATM   12  O1  UNL     1     -24.500   2.173  13.272  1.00  0.00    -0.387 OA
BRANCH  12  13
HETATM   13  C7  UNL     1     -23.293   2.211  13.625  1.00  0.00     0.168 C 
BRANCH  13  14
HETATM   14  C6  UNL     1     -22.978   1.531  14.912  1.00  0.00     0.032 C 
BRANCH  14  15
HETATM   15  C5  UNL     1     -21.809   0.535  14.608  1.00  0.00     0.061 C 
BRANCH  15  16
HETATM   16  C4  UNL     1     -20.961   0.738  15.809  1.00  0.00     0.029 A 
HETATM   17  N1  UNL     1     -20.092  -0.129  16.277  1.00  0.00    -0.301 N 
HETATM   18  C1  UNL     1     -19.921  -1.520  15.789  1.00  0.00     0.177 C 
HETATM   19  N2  UNL     1     -19.385   0.390  17.215  1.00  0.00    -0.310 N 
HETATM   20  C2  UNL     1     -19.786   1.667  17.437  1.00  0.00     0.109 A 
ATOM     21  H2  UNL     1     -18.636  -0.085  17.718  1.00  0.00     0.186 HD
HETATM   22  C3  UNL     1     -20.825   1.915  16.534  1.00  0.00     0.045 A 
ENDBRANCH  15  16
ENDBRANCH  14  15
ENDBRANCH  13  14
ENDBRANCH  12  13
ENDBRANCH  11  12
ENDBRANCH   1  11
BRANCH   8  23
HETATM   23  C13 UNL     1     -28.005   1.011  18.708  1.00  0.00     0.071 A 
HETATM   24  C14 UNL     1     -28.445  -0.136  19.057  1.00  0.00     0.009 A 
HETATM   25  C15 UNL     1     -28.831  -1.226  18.285  1.00  0.00     0.015 A 
HETATM   26  C19 UNL     1     -28.477  -0.256  20.408  1.00  0.00     0.046 A 
HETATM   27  C16 UNL     1     -29.235  -2.400  18.926  1.00  0.00     0.001 A 
HETATM   28  C17 UNL     1     -29.275  -2.507  20.297  1.00  0.00     0.002 A 
HETATM   29  C18 UNL     1     -28.894  -1.439  21.071  1.00  0.00     0.030 A 
HETATM   30  N5  UNL     1     -28.071   0.800  20.984  1.00  0.00    -0.322 N 
HETATM   31  C20 UNL     1     -27.740   1.718  19.999  1.00  0.00     0.259 A 
ATOM     32  H5  UNL     1     -28.000   0.946  21.991  1.00  0.00     0.169 HD
HETATM   33  O2  UNL     1     -27.312   2.896  20.081  1.00  0.00    -0.267 OA
ENDBRANCH   8  23
TORSDOF 7
ENDMDL
MODEL 4
REMARK VINA RESULT: -7.442732061      2.404      8.326
REMARK  7 active torsions:
REMARK  status: ('A' for Active; 'I' for Inactive)
REMARK    1  A    between atoms: C4_7  and  C5_8 
REMARK    2  A    between atoms: C5_8  and  C6_9 
REMARK    3  A    between atoms: C6_9  and  C7_10 
REMARK    4  A    between atoms: C7_10  and  O1_11 
REMARK    5  A    between atoms: O1_11  and  C8_12 
REMARK    6  A    between atoms: C8_12  and  C9_13 
REMARK    7  A    between atoms: C12_20  and  C13_21 
ROOT
HETATM    1  C9  UNL     1     -26.879   1.265  14.765  1.00  0.00    -0.005 A 
HETATM    2  C10 UNL     1     -27.293   1.436  13.493  1.00  0.00     0.100 A 
HETATM    3  N3  UNL     1     -28.626   1.049  13.492  1.00  0.00    -0.351 N 
ATOM      4  H3  UNL     1     -29.252   1.056  12.688  1.00  0.00     0.166 HD
HETATM    5  C11 UNL     1     -28.949   0.658  14.764  1.00  0.00     0.116 A 
HETATM    6  N4  UNL     1     -29.934   0.231  15.544  1.00  0.00    -0.341 N 
ATOM      7  H4  UNL     1     -30.879   0.052  15.204  1.00  0.00     0.167 HD
HETATM    8  C12 UNL     1     -29.566   0.057  16.824  1.00  0.00     0.051 A 
HETATM    9  C21 UNL     1     -28.202   0.432  16.857  1.00  0.00     0.046 A 
HETATM   10  C22 UNL     1     -27.870   0.782  15.577  1.00  0.00     0.020 A 
ENDROOT
BRANCH   1  11
HETATM   11  C8  UNL     1     -25.493   1.523  15.397  1.00  0.00     0.208 C 
BRANCH  11  12
HETATM   12  O1  UNL     1     -24.821   2.089  14.440  1.00  0.00    -0.387 OA
BRANCH  12  13
HETATM   13  C7  UNL     1     -23.739   1.982  13.807  1.00  0.00     0.168 C 
BRANCH  13  14
HETATM   14  C6  UNL     1     -22.501   2.076  14.629  1.00  0.00     0.032 C 
BRANCH  14  15
HETATM   15  C5  UNL     1     -21.839   0.658  14.592  1.00  0.00     0.061 C 
BRANCH  15  16
HETATM   16  C4  UNL     1     -21.000   0.718  15.814  1.00  0.00     0.029 A 
HETATM   17  N1  UNL     1     -20.175  -0.224  16.213  1.00  0.00    -0.301 N 
HETATM   18  C1  UNL     1     -20.055  -1.573  15.605  1.00  0.00     0.177 C 
HETATM   19  N2  UNL     1     -19.460   0.180  17.200  1.00  0.00    -0.310 N 
HETATM   20  C2  UNL     1     -19.810   1.448  17.530  1.00  0.00     0.109 A 
ATOM     21  H2  UNL     1     -18.738  -0.369  17.667  1.00  0.00     0.186 HD
HETATM   22  C3  UNL     1     -20.825   1.819  16.643  1.00  0.00     0.045 A 
ENDBRANCH  15  16
ENDBRANCH  14  15
ENDBRANCH  13  14
ENDBRANCH  12  13
ENDBRANCH  11  12
ENDBRANCH   1  11
BRANCH   8  23
HETATM   23  C13 UNL     1     -30.324  -0.477  17.950  1.00  0.00     0.071 A 
HETATM   24  C14 UNL     1     -30.219  -1.463  18.755  1.00  0.00     0.009 A 
HETATM   25  C15 UNL     1     -29.246  -2.451  18.847  1.00  0.00     0.015 A 
HETATM   26  C19 UNL     1     -31.229  -1.463  19.661  1.00  0.00     0.046 A 
HETATM   27  C16 UNL     1     -29.341  -3.403  19.866  1.00  0.00     0.001 A 
HETATM   28  C17 UNL     1     -30.376  -3.401  20.772  1.00  0.00     0.002 A 
HETATM   29  C18 UNL     1     -31.343  -2.429  20.693  1.00  0.00     0.030 A 
HETATM   30  N5  UNL     1     -32.025  -0.491  19.478  1.00  0.00    -0.322 N 
HETATM   31  C20 UNL     1     -31.567   0.231  18.387  1.00  0.00     0.259 A 
ATOM     32  H5  UNL     1     -32.854  -0.281  20.034  1.00  0.00     0.169 HD
HETATM   33  O2  UNL     1     -32.027   1.255  17.824  1.00  0.00    -0.267 OA
ENDBRANCH   8  23
TORSDOF 7
ENDMDL
MODEL 5
REMARK VINA RESULT: -7.363262394      0.954      1.556
REMARK  7 active torsions:
REMARK  status: ('A' for Active; 'I' for Inactive)
REMARK    1  A    between atoms: C4_7  and  C5_8 
REMARK    2  A    between atoms: C5_8  and  C6_9 
REMARK    3  A    between atoms: C6_9  and  C7_10 
REMARK    4  A    between atoms: C7_10  and  O1_11 
REMARK    5  A    between atoms: O1_11  and  C8_12 
REMARK    6  A    between atoms: C8_12  and  C9_13 
REMARK    7  A    between atoms: C12_20  and  C13_21 
ROOT
HETATM    1  C9  UNL     1     -28.394   2.742  18.214  1.00  0.00    -0.005 A 
HETATM    2  C10 UNL     1     -29.449   3.371  17.656  1.00  0.00     0.100 A 
HETATM    3  N3  UNL     1     -29.113   3.525  16.319  1.00  0.00    -0.351 N 
ATOM      4  H3  UNL     1     -29.690   3.961  15.601  1.00  0.00     0.166 HD
HETATM    5  C11 UNL     1     -27.867   2.985  16.136  1.00  0.00     0.116 A 
HETATM    6  N4  UNL     1     -26.931   2.713  15.236  1.00  0.00    -0.341 N 
ATOM      7  H4  UNL     1     -27.013   2.963  14.250  1.00  0.00     0.167 HD
HETATM    8  C12 UNL     1     -25.865   2.076  15.749  1.00  0.00     0.051 A 
HETATM    9  C21 UNL     1     -26.171   1.915  17.121  1.00  0.00     0.046 A 
HETATM   10  C22 UNL     1     -27.398   2.492  17.310  1.00  0.00     0.020 A 
ENDROOT
BRANCH   1  11
HETATM   11  C8  UNL     1     -28.169   2.294  19.675  1.00  0.00     0.208 C 
BRANCH  11  12
HETATM   12  O1  UNL     1     -28.670   1.096  19.709  1.00  0.00    -0.387 OA
BRANCH  12  13
HETATM   13  C7  UNL     1     -28.321  -0.110  19.792  1.00  0.00     0.168 C 
BRANCH  13  14
HETATM   14  C6  UNL     1     -28.568  -0.936  18.578  1.00  0.00     0.032 C 
BRANCH  14  15
HETATM   15  C5  UNL     1     -29.452  -2.143  19.039  1.00  0.00     0.061 C 
BRANCH  15  16
HETATM   16  C4  UNL     1     -30.805  -1.629  18.713  1.00  0.00     0.029 A 
HETATM   17  N1  UNL     1     -31.705  -1.254  19.594  1.00  0.00    -0.301 N 
HETATM   18  C1  UNL     1     -31.591  -1.430  21.064  1.00  0.00     0.177 C 
HETATM   19  N2  UNL     1     -32.706  -0.693  19.018  1.00  0.00    -0.310 N 
HETATM   20  C2  UNL     1     -32.518  -0.692  17.675  1.00  0.00     0.109 A 
ATOM     21  H2  UNL     1     -33.519  -0.306  19.497  1.00  0.00     0.186 HD
HETATM   22  C3  UNL     1     -31.284  -1.310  17.449  1.00  0.00     0.045 A 
ENDBRANCH  15  16
ENDBRANCH  14  15
ENDBRANCH  13  14
ENDBRANCH  12  13
ENDBRANCH  11  12
ENDBRANCH   1  11
BRANCH   8  23
HETATM   23  C13 UNL     1     -24.611   1.691  15.111  1.00  0.00     0.071 A 
HETATM   24  C14 UNL     1     -23.378   1.642  15.443  1.00  0.00     0.009 A 
HETATM   25  C15 UNL     1     -22.756   1.957  16.645  1.00  0.00     0.015 A 
HETATM   26  C19 UNL     1     -22.619   1.159  14.428  1.00  0.00     0.046 A 
HETATM   27  C16 UNL     1     -21.377   1.764  16.765  1.00  0.00     0.001 A 
HETATM   28  C17 UNL     1     -20.614   1.285  15.724  1.00  0.00     0.002 A 
HETATM   29  C18 UNL     1     -21.217   0.969  14.533  1.00  0.00     0.030 A 
HETATM   30  N5  UNL     1     -23.319   0.887  13.405  1.00  0.00    -0.322 N 
HETATM   31  C20 UNL     1     -24.638   1.195  13.700  1.00  0.00     0.259 A 
ATOM     32  H5  UNL     1     -22.973   0.508  12.523  1.00  0.00     0.169 HD
HETATM   33  O2  UNL     1     -25.680   1.112  13.005  1.00  0.00    -0.267 OA
ENDBRANCH   8  23
TORSDOF 7
ENDMDL
