MODEL 1
REMARK VINA RESULT: -4.435127184      0.000      0.000
REMARK  9 active torsions:
REMARK  status: ('A' for Active; 'I' for Inactive)
REMARK    1  A    between atoms: C2_2  and  C3_3 
REMARK    2  A    between atoms: C3_3  and  C5_5 
REMARK    3  A    between atoms: N1_6  and  S1_7 
REMARK    4  A    between atoms: S1_7  and  N2_10 
REMARK    5  A    between atoms: N2_10  and  C6_11 
REMARK    6  A    between atoms: N2_10  and  C8_13 
REMARK    7  A    between atoms: C8_13  and  C9_14 
REMARK    8  A    between atoms: C8_13  and  C10_19 
REMARK    9  A    between atoms: C9_14  and  N3_15 
ROOT
HETATM    1  S1  UNL     1     -31.200   0.527  17.767  1.00  0.00     0.306 S 
HETATM    2  O1  UNL     1     -32.569  -0.072  17.614  1.00  0.00    -0.188 OA
HETATM    3  O2  UNL     1     -31.378   1.889  18.317  1.00  0.00    -0.188 OA
ENDROOT
BRANCH   1   4
HETATM    4  N1  UNL     1     -30.414   0.450  16.235  1.00  0.00    -0.256 N 
HETATM    5  C5  UNL     1     -29.035   0.758  15.977  1.00  0.00     0.199 C 
HETATM    6  S2  UNL     1     -28.668   1.000  14.282  1.00  0.00     0.043 S 
HETATM    7  C16 UNL     1     -30.110   1.122  13.313  1.00  0.00     0.146 C 
HETATM    8  O3  UNL     1     -27.619  -0.132  13.676  1.00  0.00    -0.256 OA
HETATM    9  C14 UNL     1     -31.145   0.247  13.899  1.00  0.00    -0.056 C 
HETATM   10  C13 UNL     1     -31.256  -0.023  15.159  1.00  0.00     0.109 C 
HETATM   11  C15 UNL     1     -32.117  -0.340  12.920  1.00  0.00     0.046 C 
BRANCH   5  12
HETATM   12  C3  UNL     1     -28.404   1.844  16.759  1.00  0.00     0.017 C 
HETATM   13  C4  UNL     1     -26.905   1.476  16.894  1.00  0.00     0.013 C 
BRANCH  12  14
HETATM   14  C2  UNL     1     -28.460   3.229  16.215  1.00  0.00     0.002 C 
HETATM   15  C1  UNL     1     -27.612   4.263  16.850  1.00  0.00     0.005 C 
ENDBRANCH  12  14
ENDBRANCH   5  12
ENDBRANCH   1   4
BRANCH   1  16
HETATM   16  N2  UNL     1     -30.310  -0.334  18.981  1.00  0.00    -0.187 NA
BRANCH  16  17
HETATM   17  C6  UNL     1     -29.929   0.609  20.009  1.00  0.00     0.105 C 
HETATM   18  C7  UNL     1     -28.413   0.563  20.259  1.00  0.00     0.022 C 
ENDBRANCH  16  17
BRANCH  16  19
HETATM   19  C8  UNL     1     -31.101  -1.429  19.439  1.00  0.00     0.104 C 
BRANCH  19  20
HETATM   20  C9  UNL     1     -31.740  -1.232  20.788  1.00  0.00     0.250 C 
BRANCH  20  21
HETATM   21  N3  UNL     1     -33.164  -0.965  20.723  1.00  0.00    -0.078 N 
ATOM     22  H33 UNL     1     -33.382  -0.069  21.160  1.00  0.00     0.274 HD
ATOM     23  H32 UNL     1     -33.449  -0.761  19.765  1.00  0.00     0.274 HD
ATOM     24  H31 UNL     1     -33.738  -1.709  21.120  1.00  0.00     0.274 HD
ENDBRANCH  20  21
ENDBRANCH  19  20
BRANCH  19  25
HETATM   25  C10 UNL     1     -30.383  -2.762  19.399  1.00  0.00    -0.002 C 
HETATM   26  C11 UNL     1     -29.818  -3.109  20.759  1.00  0.00     0.011 C 
HETATM   27  C12 UNL     1     -29.167  -2.549  18.487  1.00  0.00     0.011 C 
ENDBRANCH  19  25
ENDBRANCH  16  19
ENDBRANCH   1  16
TORSDOF 9
ENDMDL
MODEL 2
REMARK VINA RESULT: -4.427189065      2.545      5.893
REMARK  9 active torsions:
REMARK  status: ('A' for Active; 'I' for Inactive)
REMARK    1  A    between atoms: C2_2  and  C3_3 
REMARK    2  A    between atoms: C3_3  and  C5_5 
REMARK    3  A    between atoms: N1_6  and  S1_7 
REMARK    4  A    between atoms: S1_7  and  N2_10 
REMARK    5  A    between atoms: N2_10  and  C6_11 
REMARK    6  A    between atoms: N2_10  and  C8_13 
REMARK    7  A    between atoms: C8_13  and  C9_14 
REMARK    8  A    between atoms: C8_13  and  C10_19 
REMARK    9  A    between atoms: C9_14  and  N3_15 
ROOT
HETATM    1  S1  UNL     1     -28.126   1.701  17.622  1.00  0.00     0.306 S 
HETATM    2  O1  UNL     1     -27.145   0.665  18.092  1.00  0.00    -0.188 OA
HETATM    3  O2  UNL     1     -27.908   2.913  18.443  1.00  0.00    -0.188 OA
ENDROOT
BRANCH   1   4
HETATM    4  N1  UNL     1     -29.706   1.020  17.724  1.00  0.00    -0.256 N 
HETATM    5  C5  UNL     1     -30.167   0.104  18.731  1.00  0.00     0.199 C 
HETATM    6  S2  UNL     1     -31.652  -0.722  18.310  1.00  0.00     0.043 S 
HETATM    7  C16 UNL     1     -32.077  -0.491  16.637  1.00  0.00     0.146 C 
HETATM    8  O3  UNL     1     -32.913  -0.347  19.319  1.00  0.00    -0.256 OA
HETATM    9  C14 UNL     1     -31.646   0.861  16.227  1.00  0.00    -0.056 C 
HETATM   10  C13 UNL     1     -30.621   1.487  16.707  1.00  0.00     0.109 C 
HETATM   11  C15 UNL     1     -32.488   1.508  15.168  1.00  0.00     0.046 C 
BRANCH   5  12
HETATM   12  C3  UNL     1     -29.207  -0.885  19.267  1.00  0.00     0.017 C 
HETATM   13  C4  UNL     1     -29.186  -0.690  20.804  1.00  0.00     0.013 C 
BRANCH  12  14
HETATM   14  C2  UNL     1     -29.473  -2.330  19.020  1.00  0.00     0.002 C 
HETATM   15  C1  UNL     1     -29.536  -3.237  20.189  1.00  0.00     0.005 C 
ENDBRANCH  12  14
ENDBRANCH   5  12
ENDBRANCH   1   4
BRANCH   1  16
HETATM   16  N2  UNL     1     -27.747   2.184  16.001  1.00  0.00    -0.187 NA
BRANCH  16  17
HETATM   17  C6  UNL     1     -27.568   3.619  15.991  1.00  0.00     0.105 C 
HETATM   18  C7  UNL     1     -28.551   4.286  15.015  1.00  0.00     0.022 C 
ENDBRANCH  16  17
BRANCH  16  19
HETATM   19  C8  UNL     1     -26.615   1.439  15.554  1.00  0.00     0.104 C 
BRANCH  19  20
HETATM   20  C9  UNL     1     -25.300   2.167  15.640  1.00  0.00     0.250 C 
BRANCH  20  21
HETATM   21  N3  UNL     1     -24.593   1.945  16.885  1.00  0.00    -0.078 N 
ATOM     22  H33 UNL     1     -24.275   2.830  17.281  1.00  0.00     0.274 HD
ATOM     23  H32 UNL     1     -25.239   1.653  17.619  1.00  0.00     0.274 HD
ATOM     24  H31 UNL     1     -23.818   1.288  16.804  1.00  0.00     0.274 HD
ENDBRANCH  20  21
ENDBRANCH  19  20
BRANCH  19  25
HETATM   25  C10 UNL     1     -26.783   0.839  14.174  1.00  0.00    -0.002 C 
HETATM   26  C11 UNL     1     -26.479   1.863  13.101  1.00  0.00     0.011 C 
HETATM   27  C12 UNL     1     -28.281   0.529  14.037  1.00  0.00     0.011 C 
ENDBRANCH  19  25
ENDBRANCH  16  19
ENDBRANCH   1  16
TORSDOF 9
ENDMDL
MODEL 3
REMARK VINA RESULT: -4.414737907      2.982      6.673
REMARK  9 active torsions:
REMARK  status: ('A' for Active; 'I' for Inactive)
REMARK    1  A    between atoms: C2_2  and  C3_3 
REMARK    2  A    between atoms: C3_3  and  C5_5 
REMARK    3  A    between atoms: N1_6  and  S1_7 
REMARK    4  A    between atoms: S1_7  and  N2_10 
REMARK    5  A    between atoms: N2_10  and  C6_11 
REMARK    6  A    between atoms: N2_10  and  C8_13 
REMARK    7  A    between atoms: C8_13  and  C9_14 
REMARK    8  A    between atoms: C8_13  and  C10_19 
REMARK    9  A    between atoms: C9_14  and  N3_15 
ROOT
HETATM    1  S1  UNL     1     -27.138   2.022  16.126  1.00  0.00     0.306 S 
HETATM    2  O1  UNL     1     -26.677   0.675  15.643  1.00  0.00    -0.188 OA
HETATM    3  O2  UNL     1     -26.022   2.969  15.906  1.00  0.00    -0.188 OA
ENDROOT
BRANCH   1   4
HETATM    4  N1  UNL     1     -27.645   1.851  17.764  1.00  0.00    -0.256 N 
HETATM    5  C5  UNL     1     -28.147   0.651  18.372  1.00  0.00     0.199 C 
HETATM    6  S2  UNL     1     -28.969   0.917  19.895  1.00  0.00     0.043 S 
HETATM    7  C16 UNL     1     -29.274   2.608  20.185  1.00  0.00     0.146 C 
HETATM    8  O3  UNL     1     -28.203   0.205  21.181  1.00  0.00    -0.256 OA
HETATM    9  C14 UNL     1     -28.163   3.391  19.607  1.00  0.00    -0.056 C 
HETATM   10  C13 UNL     1     -27.481   3.045  18.563  1.00  0.00     0.109 C 
HETATM   11  C15 UNL     1     -27.848   4.674  20.315  1.00  0.00     0.046 C 
BRANCH   5  12
HETATM   12  C3  UNL     1     -28.964  -0.262  17.544  1.00  0.00     0.017 C 
HETATM   13  C4  UNL     1     -29.180  -1.546  18.384  1.00  0.00     0.013 C 
BRANCH  12  14
HETATM   14  C2  UNL     1     -30.312   0.198  17.108  1.00  0.00     0.002 C 
HETATM   15  C1  UNL     1     -31.405  -0.799  17.048  1.00  0.00     0.005 C 
ENDBRANCH  12  14
ENDBRANCH   5  12
ENDBRANCH   1   4
BRANCH   1  16
HETATM   16  N2  UNL     1     -28.424   2.603  15.120  1.00  0.00    -0.187 NA
BRANCH  16  17
HETATM   17  C6  UNL     1     -28.301   4.040  15.023  1.00  0.00     0.105 C 
HETATM   18  C7  UNL     1     -29.423   4.739  15.809  1.00  0.00     0.022 C 
ENDBRANCH  16  17
BRANCH  16  19
HETATM   19  C8  UNL     1     -28.376   1.914  13.871  1.00  0.00     0.104 C 
BRANCH  19  20
HETATM   20  C9  UNL     1     -27.610   2.621  12.784  1.00  0.00     0.250 C 
BRANCH  20  21
HETATM   21  N3  UNL     1     -26.194   2.309  12.774  1.00  0.00    -0.078 N 
ATOM     22  H33 UNL     1     -25.914   1.878  13.656  1.00  0.00     0.274 HD
ATOM     23  H32 UNL     1     -26.001   1.535  12.138  1.00  0.00     0.274 HD
ATOM     24  H31 UNL     1     -25.601   3.109  12.559  1.00  0.00     0.274 HD
ENDBRANCH  20  21
ENDBRANCH  19  20
BRANCH  19  25
HETATM   25  C10 UNL     1     -29.734   1.492  13.352  1.00  0.00    -0.002 C 
HETATM   26  C11 UNL     1     -29.882  -0.013  13.392  1.00  0.00     0.011 C 
HETATM   27  C12 UNL     1     -29.745   1.870  11.864  1.00  0.00     0.011 C 
ENDBRANCH  19  25
ENDBRANCH  16  19
ENDBRANCH   1  16
TORSDOF 9
ENDMDL
MODEL 4
REMARK VINA RESULT: -4.407927642      2.307      6.035
REMARK  9 active torsions:
REMARK  status: ('A' for Active; 'I' for Inactive)
REMARK    1  A    between atoms: C2_2  and  C3_3 
REMARK    2  A    between atoms: C3_3  and  C5_5 
REMARK    3  A    between atoms: N1_6  and  S1_7 
REMARK    4  A    between atoms: S1_7  and  N2_10 
REMARK    5  A    between atoms: N2_10  and  C6_11 
REMARK    6  A    between atoms: N2_10  and  C8_13 
REMARK    7  A    between atoms: C8_13  and  C9_14 
REMARK    8  A    between atoms: C8_13  and  C10_19 
REMARK    9  A    between atoms: C9_14  and  N3_15 
ROOT
HETATM    1  S1  UNL     1     -28.272   1.254  16.537  1.00  0.00     0.306 S 
HETATM    2  O1  UNL     1     -27.626  -0.043  16.138  1.00  0.00    -0.188 OA
HETATM    3  O2  UNL     1     -27.341   1.940  17.460  1.00  0.00    -0.188 OA
ENDROOT
BRANCH   1   4
HETATM    4  N1  UNL     1     -29.825   0.893  17.192  1.00  0.00    -0.256 N 
HETATM    5  C5  UNL     1     -30.082   0.280  18.465  1.00  0.00     0.199 C 
HETATM    6  S2  UNL     1     -31.711  -0.336  18.640  1.00  0.00     0.043 S 
HETATM    7  C16 UNL     1     -32.568  -0.353  17.123  1.00  0.00     0.146 C 
HETATM    8  O3  UNL     1     -32.577   0.439  19.822  1.00  0.00    -0.256 OA
HETATM    9  C14 UNL     1     -32.117   0.800  16.317  1.00  0.00    -0.056 C 
HETATM   10  C13 UNL     1     -30.931   1.314  16.363  1.00  0.00     0.109 C 
HETATM   11  C15 UNL     1     -33.146   1.373  15.389  1.00  0.00     0.046 C 
BRANCH   5  12
HETATM   12  C3  UNL     1     -29.131  -0.744  18.952  1.00  0.00     0.017 C 
HETATM   13  C4  UNL     1     -29.033  -0.560  20.488  1.00  0.00     0.013 C 
BRANCH  12  14
HETATM   14  C2  UNL     1     -29.456  -2.178  18.710  1.00  0.00     0.002 C 
HETATM   15  C1  UNL     1     -29.488  -3.092  19.875  1.00  0.00     0.005 C 
ENDBRANCH  12  14
ENDBRANCH   5  12
ENDBRANCH   1   4
BRANCH   1  16
HETATM   16  N2  UNL     1     -28.392   2.302  15.162  1.00  0.00    -0.187 NA
BRANCH  16  17
HETATM   17  C6  UNL     1     -27.593   3.478  15.424  1.00  0.00     0.105 C 
HETATM   18  C7  UNL     1     -28.485   4.717  15.604  1.00  0.00     0.022 C 
ENDBRANCH  16  17
BRANCH  16  19
HETATM   19  C8  UNL     1     -28.014   1.573  13.995  1.00  0.00     0.104 C 
BRANCH  19  20
HETATM   20  C9  UNL     1     -26.715   2.004  13.368  1.00  0.00     0.250 C 
BRANCH  20  21
HETATM   21  N3  UNL     1     -25.615   1.096  13.628  1.00  0.00    -0.078 N 
ATOM     22  H33 UNL     1     -25.660   0.739  14.583  1.00  0.00     0.274 HD
ATOM     23  H32 UNL     1     -25.738   0.224  13.114  1.00  0.00     0.274 HD
ATOM     24  H31 UNL     1     -24.698   1.500  13.438  1.00  0.00     0.274 HD
ENDBRANCH  20  21
ENDBRANCH  19  20
BRANCH  19  25
HETATM   25  C10 UNL     1     -29.097   1.504  12.939  1.00  0.00    -0.002 C 
HETATM   26  C11 UNL     1     -30.103   2.619  13.125  1.00  0.00     0.011 C 
HETATM   27  C12 UNL     1     -29.864   0.203  13.218  1.00  0.00     0.011 C 
ENDBRANCH  19  25
ENDBRANCH  16  19
ENDBRANCH   1  16
TORSDOF 9
ENDMDL
MODEL 5
REMARK VINA RESULT: -4.308079245      1.680      3.743
REMARK  9 active torsions:
REMARK  status: ('A' for Active; 'I' for Inactive)
REMARK    1  A    between atoms: C2_2  and  C3_3 
REMARK    2  A    between atoms: C3_3  and  C5_5 
REMARK    3  A    between atoms: N1_6  and  S1_7 
REMARK    4  A    between atoms: S1_7  and  N2_10 
REMARK    5  A    between atoms: N2_10  and  C6_11 
REMARK    6  A    between atoms: N2_10  and  C8_13 
REMARK    7  A    between atoms: C8_13  and  C9_14 
REMARK    8  A    between atoms: C8_13  and  C10_19 
REMARK    9  A    between atoms: C9_14  and  N3_15 
ROOT
HETATM    1  S1  UNL     1     -31.737   0.151  17.098  1.00  0.00     0.306 S 
HETATM    2  O1  UNL     1     -32.040  -1.318  17.010  1.00  0.00    -0.188 OA
HETATM    3  O2  UNL     1     -33.027   0.852  17.286  1.00  0.00    -0.188 OA
ENDROOT
BRANCH   1   4
HETATM    4  N1  UNL     1     -30.857   0.596  15.684  1.00  0.00    -0.256 N 
HETATM    5  C5  UNL     1     -31.406   0.771  14.368  1.00  0.00     0.199 C 
HETATM    6  S2  UNL     1     -30.204   0.793  13.096  1.00  0.00     0.043 S 
HETATM    7  C16 UNL     1     -28.639   0.284  13.668  1.00  0.00     0.146 C 
HETATM    8  O3  UNL     1     -30.122   2.246  12.304  1.00  0.00    -0.256 OA
HETATM    9  C14 UNL     1     -28.484   0.729  15.068  1.00  0.00    -0.056 C 
HETATM   10  C13 UNL     1     -29.453   0.851  15.915  1.00  0.00     0.109 C 
HETATM   11  C15 UNL     1     -27.079   1.042  15.488  1.00  0.00     0.046 C 
BRANCH   5  12
HETATM   12  C3  UNL     1     -32.522  -0.108  13.955  1.00  0.00     0.017 C 
HETATM   13  C4  UNL     1     -33.776   0.795  13.842  1.00  0.00     0.013 C 
BRANCH  12  14
HETATM   14  C2  UNL     1     -32.400  -0.839  12.662  1.00  0.00     0.002 C 
HETATM   15  C1  UNL     1     -33.576  -0.865  11.762  1.00  0.00     0.005 C 
ENDBRANCH  12  14
ENDBRANCH   5  12
ENDBRANCH   1   4
BRANCH   1  16
HETATM   16  N2  UNL     1     -30.833   0.484  18.539  1.00  0.00    -0.187 NA
BRANCH  16  17
HETATM   17  C6  UNL     1     -31.378   1.679  19.144  1.00  0.00     0.105 C 
HETATM   18  C7  UNL     1     -30.412   2.864  18.981  1.00  0.00     0.022 C 
ENDBRANCH  16  17
BRANCH  16  19
HETATM   19  C8  UNL     1     -30.860  -0.673  19.374  1.00  0.00     0.104 C 
BRANCH  19  20
HETATM   20  C9  UNL     1     -31.659  -0.524  20.642  1.00  0.00     0.250 C 
BRANCH  20  21
HETATM   21  N3  UNL     1     -32.676  -1.543  20.812  1.00  0.00    -0.078 N 
ATOM     22  H33 UNL     1     -32.450  -2.372  20.262  1.00  0.00     0.274 HD
ATOM     23  H32 UNL     1     -32.631  -1.942  21.750  1.00  0.00     0.274 HD
ATOM     24  H31 UNL     1     -33.619  -1.217  20.604  1.00  0.00     0.274 HD
ENDBRANCH  20  21
ENDBRANCH  19  20
BRANCH  19  25
HETATM   25  C10 UNL     1     -29.489  -1.231  19.692  1.00  0.00    -0.002 C 
HETATM   26  C11 UNL     1     -28.406  -0.411  19.024  1.00  0.00     0.011 C 
HETATM   27  C12 UNL     1     -29.437  -2.610  19.020  1.00  0.00     0.011 C 
ENDBRANCH  19  25
ENDBRANCH  16  19
ENDBRANCH   1  16
TORSDOF 9
ENDMDL
