MODEL 1
REMARK VINA RESULT: -8.369584704      0.000      0.000
REMARK  8 active torsions:
REMARK  status: ('A' for Active; 'I' for Inactive)
REMARK    1  A    between atoms: N2_8  and  C6_9 
REMARK    2  A    between atoms: C6_9  and  C7_10 
REMARK    3  A    between atoms: C7_10  and  C8_11 
REMARK    4  A    between atoms: C8_11  and  C9_12 
REMARK    5  A    between atoms: C9_12  and  N3_13 
REMARK    6  A    between atoms: C13_17  and  C14_18 
REMARK    7  A    between atoms: N4_19  and  N5_21 
REMARK    8  A    between atoms: N5_21  and  C15_23 
ROOT
HETATM    1  N3  UNL     1     -28.598   0.781  15.823  1.00  0.00    -0.366 N 
HETATM    2  C10 UNL     1     -29.618   0.246  15.135  1.00  0.00     0.090 A 
HETATM    3  C11 UNL     1     -29.711   0.410  13.757  1.00  0.00     0.018 A 
HETATM    4  C12 UNL     1     -28.753   1.130  13.063  1.00  0.00     0.015 A 
HETATM    5  C13 UNL     1     -27.708   1.678  13.770  1.00  0.00    -0.004 A 
HETATM    6  C20 UNL     1     -27.682   1.471  15.152  1.00  0.00     0.103 A 
ENDROOT
BRANCH   5   7
HETATM    7  C14 UNL     1     -26.667   2.437  13.137  1.00  0.00     0.120 C 
HETATM    8  N4  UNL     1     -25.442   2.245  13.036  1.00  0.00    -0.297 N 
ATOM      9  H4  UNL     1     -24.942   2.967  12.518  1.00  0.00     0.186 HD
BRANCH   8  10
HETATM   10  N5  UNL     1     -24.665   1.246  13.493  1.00  0.00    -0.132 N 
ATOM     11  H5  UNL     1     -24.840   0.312  13.123  1.00  0.00     0.205 HD
BRANCH  10  12
HETATM   12  C15 UNL     1     -23.709   1.370  14.367  1.00  0.00     0.699 A 
HETATM   13  N6  UNL     1     -24.029   1.843  15.580  1.00  0.00    -0.200 N 
HETATM   14  C16 UNL     1     -23.091   1.993  16.524  1.00  0.00     0.118 A 
ATOM     15  H6  UNL     1     -24.997   2.090  15.787  1.00  0.00     0.183 HD
HETATM   16  C17 UNL     1     -21.786   1.659  16.247  1.00  0.00     0.022 A 
HETATM   17  C18 UNL     1     -20.701   1.811  17.269  1.00  0.00     0.056 C 
HETATM   18  C19 UNL     1     -21.449   1.170  14.992  1.00  0.00     0.266 A 
HETATM   19  O1  UNL     1     -20.255   0.865  14.740  1.00  0.00    -0.267 OA
HETATM   20  N7  UNL     1     -22.439   1.040  14.079  1.00  0.00    -0.154 N 
ATOM     21  H7  UNL     1     -22.216   0.682  13.150  1.00  0.00     0.187 HD
ENDBRANCH  10  12
ENDBRANCH   8  10
ENDBRANCH   5   7
BRANCH   1  22
HETATM   22  C9  UNL     1     -28.538   0.592  17.254  1.00  0.00     0.128 C 
BRANCH  22  23
HETATM   23  C8  UNL     1     -29.609  -0.399  17.630  1.00  0.00     0.022 C 
BRANCH  23  24
HETATM   24  C7  UNL     1     -29.109  -1.515  18.522  1.00  0.00     0.022 C 
BRANCH  24  25
HETATM   25  C6  UNL     1     -29.484  -1.225  19.945  1.00  0.00     0.130 C 
BRANCH  25  26
HETATM   26  N2  UNL     1     -30.201  -2.284  20.603  1.00  0.00    -0.344 N 
HETATM   27  C2  UNL     1     -31.530  -2.165  21.081  1.00  0.00     0.097 A 
HETATM   28  C1  UNL     1     -32.188  -1.027  21.020  1.00  0.00     0.064 C 
HETATM   29  N1  UNL     1     -32.133  -3.309  21.662  1.00  0.00    -0.353 N 
HETATM   30  C3  UNL     1     -31.449  -4.543  21.773  1.00  0.00     0.091 A 
ATOM     31  H1  UNL     1     -33.089  -3.240  22.012  1.00  0.00     0.166 HD
HETATM   32  C4  UNL     1     -30.213  -4.608  21.315  1.00  0.00     0.034 A 
HETATM   33  C5  UNL     1     -29.589  -3.440  20.718  1.00  0.00     0.094 A 
ENDBRANCH  25  26
ENDBRANCH  24  25
ENDBRANCH  23  24
ENDBRANCH  22  23
ENDBRANCH   1  22
TORSDOF 8
ENDMDL
MODEL 2
REMARK VINA RESULT: -8.275094177      0.901      1.259
REMARK  8 active torsions:
REMARK  status: ('A' for Active; 'I' for Inactive)
REMARK    1  A    between atoms: N2_8  and  C6_9 
REMARK    2  A    between atoms: C6_9  and  C7_10 
REMARK    3  A    between atoms: C7_10  and  C8_11 
REMARK    4  A    between atoms: C8_11  and  C9_12 
REMARK    5  A    between atoms: C9_12  and  N3_13 
REMARK    6  A    between atoms: C13_17  and  C14_18 
REMARK    7  A    between atoms: N4_19  and  N5_21 
REMARK    8  A    between atoms: N5_21  and  C15_23 
ROOT
HETATM    1  N3  UNL     1     -29.203   0.796  15.793  1.00  0.00    -0.366 N 
HETATM    2  C10 UNL     1     -30.125   0.169  15.046  1.00  0.00     0.090 A 
HETATM    3  C11 UNL     1     -30.112   0.276  13.660  1.00  0.00     0.018 A 
HETATM    4  C12 UNL     1     -29.147   1.032  13.017  1.00  0.00     0.015 A 
HETATM    5  C13 UNL     1     -28.202   1.675  13.784  1.00  0.00    -0.004 A 
HETATM    6  C20 UNL     1     -28.279   1.520  15.171  1.00  0.00     0.103 A 
ENDROOT
BRANCH   5   7
HETATM    7  C14 UNL     1     -27.162   2.478  13.207  1.00  0.00     0.120 C 
HETATM    8  N4  UNL     1     -25.944   2.276  13.052  1.00  0.00    -0.297 N 
ATOM      9  H4  UNL     1     -25.441   3.041  12.601  1.00  0.00     0.186 HD
BRANCH   8  10
HETATM   10  N5  UNL     1     -25.176   1.221  13.380  1.00  0.00    -0.132 N 
ATOM     11  H5  UNL     1     -25.453   0.311  13.012  1.00  0.00     0.205 HD
BRANCH  10  12
HETATM   12  C15 UNL     1     -24.111   1.262  14.127  1.00  0.00     0.699 A 
HETATM   13  N6  UNL     1     -22.977   0.754  13.624  1.00  0.00    -0.200 N 
HETATM   14  C16 UNL     1     -21.847   0.766  14.343  1.00  0.00     0.118 A 
ATOM     15  H6  UNL     1     -22.974   0.354  12.686  1.00  0.00     0.183 HD
HETATM   16  C17 UNL     1     -21.849   1.304  15.608  1.00  0.00     0.022 A 
HETATM   17  C18 UNL     1     -20.610   1.340  16.451  1.00  0.00     0.056 C 
HETATM   18  C19 UNL     1     -23.021   1.831  16.133  1.00  0.00     0.266 A 
HETATM   19  O1  UNL     1     -23.022   2.324  17.291  1.00  0.00    -0.267 OA
HETATM   20  N7  UNL     1     -24.132   1.791  15.361  1.00  0.00    -0.154 N 
ATOM     21  H7  UNL     1     -25.005   2.172  15.726  1.00  0.00     0.187 HD
ENDBRANCH  10  12
ENDBRANCH   8  10
ENDBRANCH   5   7
BRANCH   1  22
HETATM   22  C9  UNL     1     -29.252   0.663  17.230  1.00  0.00     0.128 C 
BRANCH  22  23
HETATM   23  C8  UNL     1     -29.931  -0.644  17.547  1.00  0.00     0.022 C 
BRANCH  23  24
HETATM   24  C7  UNL     1     -29.105  -1.551  18.434  1.00  0.00     0.022 C 
BRANCH  24  25
HETATM   25  C6  UNL     1     -29.402  -1.248  19.873  1.00  0.00     0.130 C 
BRANCH  25  26
HETATM   26  N2  UNL     1     -30.170  -2.259  20.551  1.00  0.00    -0.344 N 
HETATM   27  C2  UNL     1     -31.499  -2.073  21.006  1.00  0.00     0.097 A 
HETATM   28  C1  UNL     1     -32.111  -0.913  20.902  1.00  0.00     0.064 C 
HETATM   29  N1  UNL     1     -32.155  -3.174  21.612  1.00  0.00    -0.353 N 
HETATM   30  C3  UNL     1     -31.521  -4.430  21.769  1.00  0.00     0.091 A 
ATOM     31  H1  UNL     1     -33.112  -3.058  21.945  1.00  0.00     0.166 HD
HETATM   32  C4  UNL     1     -30.283  -4.558  21.332  1.00  0.00     0.034 A 
HETATM   33  C5  UNL     1     -29.605  -3.433  20.710  1.00  0.00     0.094 A 
ENDBRANCH  25  26
ENDBRANCH  24  25
ENDBRANCH  23  24
ENDBRANCH  22  23
ENDBRANCH   1  22
TORSDOF 8
ENDMDL
MODEL 3
REMARK VINA RESULT: -8.030370762      0.593      1.383
REMARK  8 active torsions:
REMARK  status: ('A' for Active; 'I' for Inactive)
REMARK    1  A    between atoms: N2_8  and  C6_9 
REMARK    2  A    between atoms: C6_9  and  C7_10 
REMARK    3  A    between atoms: C7_10  and  C8_11 
REMARK    4  A    between atoms: C8_11  and  C9_12 
REMARK    5  A    between atoms: C9_12  and  N3_13 
REMARK    6  A    between atoms: C13_17  and  C14_18 
REMARK    7  A    between atoms: N4_19  and  N5_21 
REMARK    8  A    between atoms: N5_21  and  C15_23 
ROOT
HETATM    1  N3  UNL     1     -28.534   0.752  16.046  1.00  0.00    -0.366 N 
HETATM    2  C10 UNL     1     -29.609   0.262  15.409  1.00  0.00     0.090 A 
HETATM    3  C11 UNL     1     -29.766   0.435  14.039  1.00  0.00     0.018 A 
HETATM    4  C12 UNL     1     -28.817   1.118  13.297  1.00  0.00     0.015 A 
HETATM    5  C13 UNL     1     -27.715   1.622  13.951  1.00  0.00    -0.004 A 
HETATM    6  C20 UNL     1     -27.627   1.407  15.330  1.00  0.00     0.103 A 
ENDROOT
BRANCH   5   7
HETATM    7  C14 UNL     1     -26.679   2.340  13.267  1.00  0.00     0.120 C 
HETATM    8  N4  UNL     1     -25.457   2.135  13.158  1.00  0.00    -0.297 N 
ATOM      9  H4  UNL     1     -24.959   2.827  12.598  1.00  0.00     0.186 HD
BRANCH   8  10
HETATM   10  N5  UNL     1     -24.679   1.155  13.654  1.00  0.00    -0.132 N 
ATOM     11  H5  UNL     1     -24.883   0.202  13.353  1.00  0.00     0.205 HD
BRANCH  10  12
HETATM   12  C15 UNL     1     -23.691   1.318  14.483  1.00  0.00     0.699 A 
HETATM   13  N6  UNL     1     -23.969   1.819  15.696  1.00  0.00    -0.200 N 
HETATM   14  C16 UNL     1     -22.996   2.011  16.595  1.00  0.00     0.118 A 
ATOM     15  H6  UNL     1     -24.932   2.056  15.936  1.00  0.00     0.183 HD
HETATM   16  C17 UNL     1     -21.698   1.691  16.273  1.00  0.00     0.022 A 
HETATM   17  C18 UNL     1     -20.574   1.889  17.244  1.00  0.00     0.056 C 
HETATM   18  C19 UNL     1     -21.404   1.173  15.019  1.00  0.00     0.266 A 
HETATM   19  O1  UNL     1     -20.215   0.882  14.725  1.00  0.00    -0.267 OA
HETATM   20  N7  UNL     1     -22.428   1.002  14.151  1.00  0.00    -0.154 N 
ATOM     21  H7  UNL     1     -22.237   0.623  13.224  1.00  0.00     0.187 HD
ENDBRANCH  10  12
ENDBRANCH   8  10
ENDBRANCH   5   7
BRANCH   1  22
HETATM   22  C9  UNL     1     -28.408   0.555  17.471  1.00  0.00     0.128 C 
BRANCH  22  23
HETATM   23  C8  UNL     1     -29.149  -0.709  17.825  1.00  0.00     0.022 C 
BRANCH  23  24
HETATM   24  C7  UNL     1     -29.035  -1.082  19.287  1.00  0.00     0.022 C 
BRANCH  24  25
HETATM   25  C6  UNL     1     -29.539  -2.480  19.488  1.00  0.00     0.130 C 
BRANCH  25  26
HETATM   26  N2  UNL     1     -30.595  -2.603  20.457  1.00  0.00    -0.344 N 
HETATM   27  C2  UNL     1     -30.760  -3.722  21.311  1.00  0.00     0.097 A 
HETATM   28  C1  UNL     1     -29.986  -4.782  21.223  1.00  0.00     0.064 C 
HETATM   29  N1  UNL     1     -31.815  -3.685  22.258  1.00  0.00    -0.353 N 
HETATM   30  C3  UNL     1     -32.689  -2.577  22.366  1.00  0.00     0.091 A 
ATOM     31  H1  UNL     1     -31.949  -4.483  22.880  1.00  0.00     0.166 HD
HETATM   32  C4  UNL     1     -32.498  -1.558  21.550  1.00  0.00     0.034 A 
HETATM   33  C5  UNL     1     -31.419  -1.588  20.577  1.00  0.00     0.094 A 
ENDBRANCH  25  26
ENDBRANCH  24  25
ENDBRANCH  23  24
ENDBRANCH  22  23
ENDBRANCH   1  22
TORSDOF 8
ENDMDL
MODEL 4
REMARK VINA RESULT: -8.019788354      1.616      2.378
REMARK  8 active torsions:
REMARK  status: ('A' for Active; 'I' for Inactive)
REMARK    1  A    between atoms: N2_8  and  C6_9 
REMARK    2  A    between atoms: C6_9  and  C7_10 
REMARK    3  A    between atoms: C7_10  and  C8_11 
REMARK    4  A    between atoms: C8_11  and  C9_12 
REMARK    5  A    between atoms: C9_12  and  N3_13 
REMARK    6  A    between atoms: C13_17  and  C14_18 
REMARK    7  A    between atoms: N4_19  and  N5_21 
REMARK    8  A    between atoms: N5_21  and  C15_23 
ROOT
HETATM    1  N3  UNL     1     -28.033   1.580  16.896  1.00  0.00    -0.366 N 
HETATM    2  C10 UNL     1     -28.998   0.713  16.553  1.00  0.00     0.090 A 
HETATM    3  C11 UNL     1     -29.205   0.368  15.222  1.00  0.00     0.018 A 
HETATM    4  C12 UNL     1     -28.420   0.910  14.218  1.00  0.00     0.015 A 
HETATM    5  C13 UNL     1     -27.431   1.799  14.572  1.00  0.00    -0.004 A 
HETATM    6  C20 UNL     1     -27.283   2.097  15.929  1.00  0.00     0.103 A 
ENDROOT
BRANCH   5   7
HETATM    7  C14 UNL     1     -26.566   2.410  13.603  1.00  0.00     0.120 C 
HETATM    8  N4  UNL     1     -25.406   2.144  13.239  1.00  0.00    -0.297 N 
ATOM      9  H4  UNL     1     -25.037   2.762  12.516  1.00  0.00     0.186 HD
BRANCH   8  10
HETATM   10  N5  UNL     1     -24.556   1.180  13.635  1.00  0.00    -0.132 N 
ATOM     11  H5  UNL     1     -24.684   0.251  13.234  1.00  0.00     0.205 HD
BRANCH  10  12
HETATM   12  C15 UNL     1     -23.585   1.330  14.488  1.00  0.00     0.699 A 
HETATM   13  N6  UNL     1     -23.879   1.865  15.682  1.00  0.00    -0.200 N 
HETATM   14  C16 UNL     1     -22.924   2.046  16.603  1.00  0.00     0.118 A 
ATOM     15  H6  UNL     1     -24.840   2.138  15.890  1.00  0.00     0.183 HD
HETATM   16  C17 UNL     1     -21.629   1.678  16.323  1.00  0.00     0.022 A 
HETATM   17  C18 UNL     1     -20.526   1.861  17.320  1.00  0.00     0.056 C 
HETATM   18  C19 UNL     1     -21.319   1.124  15.088  1.00  0.00     0.266 A 
HETATM   19  O1  UNL     1     -20.133   0.788  14.833  1.00  0.00    -0.267 OA
HETATM   20  N7  UNL     1     -22.325   0.966  14.197  1.00  0.00    -0.154 N 
ATOM     21  H7  UNL     1     -22.121   0.561  13.284  1.00  0.00     0.187 HD
ENDBRANCH  10  12
ENDBRANCH   8  10
ENDBRANCH   5   7
BRANCH   1  22
HETATM   22  C9  UNL     1     -27.852   1.916  18.289  1.00  0.00     0.128 C 
BRANCH  22  23
HETATM   23  C8  UNL     1     -27.671   0.629  19.051  1.00  0.00     0.022 C 
BRANCH  23  24
HETATM   24  C7  UNL     1     -28.248   0.674  20.450  1.00  0.00     0.022 C 
BRANCH  24  25
HETATM   25  C6  UNL     1     -29.170  -0.493  20.648  1.00  0.00     0.130 C 
BRANCH  25  26
HETATM   26  N2  UNL     1     -30.208  -0.611  19.659  1.00  0.00    -0.344 N 
HETATM   27  C2  UNL     1     -30.400  -1.755  18.845  1.00  0.00     0.097 A 
HETATM   28  C1  UNL     1     -29.578  -2.782  18.887  1.00  0.00     0.064 C 
HETATM   29  N1  UNL     1     -31.498  -1.756  17.948  1.00  0.00    -0.353 N 
HETATM   30  C3  UNL     1     -32.388  -0.660  17.851  1.00  0.00     0.091 A 
ATOM     31  H1  UNL     1     -31.650  -2.572  17.354  1.00  0.00     0.166 HD
HETATM   32  C4  UNL     1     -32.171   0.384  18.627  1.00  0.00     0.034 A 
HETATM   33  C5  UNL     1     -31.047   0.392  19.549  1.00  0.00     0.094 A 
ENDBRANCH  25  26
ENDBRANCH  24  25
ENDBRANCH  23  24
ENDBRANCH  22  23
ENDBRANCH   1  22
TORSDOF 8
ENDMDL
MODEL 5
REMARK VINA RESULT: -7.889356043      1.593      2.015
REMARK  8 active torsions:
REMARK  status: ('A' for Active; 'I' for Inactive)
REMARK    1  A    between atoms: N2_8  and  C6_9 
REMARK    2  A    between atoms: C6_9  and  C7_10 
REMARK    3  A    between atoms: C7_10  and  C8_11 
REMARK    4  A    between atoms: C8_11  and  C9_12 
REMARK    5  A    between atoms: C9_12  and  N3_13 
REMARK    6  A    between atoms: C13_17  and  C14_18 
REMARK    7  A    between atoms: N4_19  and  N5_21 
REMARK    8  A    between atoms: N5_21  and  C15_23 
ROOT
HETATM    1  N3  UNL     1     -27.565   1.162  16.533  1.00  0.00    -0.366 N 
HETATM    2  C10 UNL     1     -28.587   0.452  16.032  1.00  0.00     0.090 A 
HETATM    3  C11 UNL     1     -28.750   0.310  14.659  1.00  0.00     0.018 A 
HETATM    4  C12 UNL     1     -27.861   0.898  13.775  1.00  0.00     0.015 A 
HETATM    5  C13 UNL     1     -26.814   1.627  14.290  1.00  0.00    -0.004 A 
HETATM    6  C20 UNL     1     -26.715   1.725  15.681  1.00  0.00     0.103 A 
ENDROOT
BRANCH   5   7
HETATM    7  C14 UNL     1     -25.841   2.269  13.453  1.00  0.00     0.120 C 
HETATM    8  N4  UNL     1     -24.649   2.009  13.213  1.00  0.00    -0.297 N 
ATOM      9  H4  UNL     1     -24.197   2.654  12.563  1.00  0.00     0.186 HD
BRANCH   8  10
HETATM   10  N5  UNL     1     -23.853   1.023  13.664  1.00  0.00    -0.132 N 
ATOM     11  H5  UNL     1     -23.955   0.106  13.230  1.00  0.00     0.205 HD
BRANCH  10  12
HETATM   12  C15 UNL     1     -22.965   1.138  14.608  1.00  0.00     0.699 A 
HETATM   13  N6  UNL     1     -23.081   2.173  15.452  1.00  0.00    -0.200 N 
HETATM   14  C16 UNL     1     -22.199   2.347  16.444  1.00  0.00     0.118 A 
ATOM     15  H6  UNL     1     -23.849   2.834  15.338  1.00  0.00     0.183 HD
HETATM   16  C17 UNL     1     -21.163   1.456  16.600  1.00  0.00     0.022 A 
HETATM   17  C18 UNL     1     -20.150   1.608  17.693  1.00  0.00     0.056 C 
HETATM   18  C19 UNL     1     -21.037   0.383  15.727  1.00  0.00     0.266 A 
HETATM   19  O1  UNL     1     -20.089  -0.432  15.870  1.00  0.00    -0.267 OA
HETATM   20  N7  UNL     1     -21.958   0.258  14.744  1.00  0.00    -0.154 N 
ATOM     21  H7  UNL     1     -21.886  -0.522  14.091  1.00  0.00     0.187 HD
ENDBRANCH  10  12
ENDBRANCH   8  10
ENDBRANCH   5   7
BRANCH   1  22
HETATM   22  C9  UNL     1     -27.431   1.290  17.966  1.00  0.00     0.128 C 
BRANCH  22  23
HETATM   23  C8  UNL     1     -28.434   2.315  18.430  1.00  0.00     0.022 C 
BRANCH  23  24
HETATM   24  C7  UNL     1     -29.237   1.868  19.632  1.00  0.00     0.022 C 
BRANCH  24  25
HETATM   25  C6  UNL     1     -30.470   1.150  19.171  1.00  0.00     0.130 C 
BRANCH  25  26
HETATM   26  N2  UNL     1     -30.409  -0.282  19.289  1.00  0.00    -0.344 N 
HETATM   27  C2  UNL     1     -31.065  -1.179  18.408  1.00  0.00     0.097 A 
HETATM   28  C1  UNL     1     -31.852  -0.752  17.445  1.00  0.00     0.064 C 
HETATM   29  N1  UNL     1     -30.873  -2.569  18.611  1.00  0.00    -0.353 N 
HETATM   30  C3  UNL     1     -30.058  -3.070  19.654  1.00  0.00     0.091 A 
ATOM     31  H1  UNL     1     -31.338  -3.228  17.987  1.00  0.00     0.166 HD
HETATM   32  C4  UNL     1     -29.468  -2.199  20.450  1.00  0.00     0.034 A 
HETATM   33  C5  UNL     1     -29.660  -0.772  20.248  1.00  0.00     0.094 A 
ENDBRANCH  25  26
ENDBRANCH  24  25
ENDBRANCH  23  24
ENDBRANCH  22  23
ENDBRANCH   1  22
TORSDOF 8
ENDMDL
