MODEL 1
REMARK VINA RESULT: -7.811163632      0.000      0.000
REMARK  10 active torsions:
REMARK  status: ('A' for Active; 'I' for Inactive)
REMARK    1  A    between atoms: C1_2  and  C2_3 
REMARK       I    between atoms: C1_2  and  N4_24 
REMARK    2  A    between atoms: C2_3  and  N1_4 
REMARK    3  A    between atoms: C4_6  and  C5_7 
REMARK    4  A    between atoms: C6_8  and  C7_9 
REMARK    5  A    between atoms: C7_9  and  C8_10 
REMARK    6  A    between atoms: C8_10  and  C9_11 
REMARK    7  A    between atoms: C9_11  and  N2_12 
REMARK    8  A    between atoms: C15_20  and  C16_21 
REMARK    9  A    between atoms: C16_21  and  O2_22 
REMARK   10  A    between atoms: N4_24  and  C17_26 
ROOT
HETATM    1  N1  UNL     1     -24.719   1.872  14.261  1.00  0.00    -0.333 N 
HETATM    2  C3  UNL     1     -25.808   1.519  13.513  1.00  0.00     0.132 A 
HETATM    3  C4  UNL     1     -26.868   1.191  14.330  1.00  0.00     0.103 A 
HETATM    4  N3  UNL     1     -26.419   1.346  15.587  1.00  0.00    -0.336 N 
ATOM      5  H3  UNL     1     -26.960   1.183  16.436  1.00  0.00     0.168 HD
HETATM    6  C15 UNL     1     -25.119   1.758  15.537  1.00  0.00     0.108 A 
ENDROOT
BRANCH   1   7
HETATM    7  C2  UNL     1     -23.444   2.270  13.694  1.00  0.00     0.232 C 
BRANCH   7   8
HETATM    8  C1  UNL     1     -22.467   1.161  13.683  1.00  0.00     0.241 C 
HETATM    9  O1  UNL     1     -22.872   0.042  13.260  1.00  0.00    -0.271 OA
HETATM   10  N4  UNL     1     -21.135   1.270  14.104  1.00  0.00    -0.311 N 
ATOM     11  H4  UNL     1     -20.406   1.400  13.403  1.00  0.00     0.170 HD
BRANCH  10  12
HETATM   12  C17 UNL     1     -20.801   1.212  15.342  1.00  0.00     0.123 A 
HETATM   13  C18 UNL     1     -20.978   2.293  16.198  1.00  0.00     0.136 A 
HETATM   14  N5  UNL     1     -20.624   2.215  17.485  1.00  0.00    -0.371 N 
HETATM   15  C19 UNL     1     -20.084   1.090  18.006  1.00  0.00     0.104 A 
ATOM     16  H5  UNL     1     -20.764   3.025  18.089  1.00  0.00     0.164 HD
HETATM   17  C20 UNL     1     -19.896  -0.005  17.173  1.00  0.00     0.106 A 
HETATM   18  N6  UNL     1     -20.260   0.105  15.895  1.00  0.00    -0.350 N 
ATOM     19  H6  UNL     1     -20.119  -0.706  15.292  1.00  0.00     0.166 HD
ENDBRANCH  10  12
ENDBRANCH   7   8
ENDBRANCH   1   7
BRANCH   6  20
HETATM   20  C16 UNL     1     -24.280   2.037  16.732  1.00  0.00     0.240 C 
BRANCH  20  21
HETATM   21  O2  UNL     1     -24.982   2.987  17.493  1.00  0.00    -0.393 OA
ATOM     22  H2  UNL     1     -24.558   3.013  18.342  1.00  0.00     0.209 HD
ENDBRANCH  20  21
ENDBRANCH   6  20
BRANCH   3  23
HETATM   23  C5  UNL     1     -28.196   0.767  13.917  1.00  0.00    -0.047 C 
HETATM   24  C6  UNL     1     -29.305   0.427  13.591  1.00  0.00    -0.100 C 
BRANCH  24  25
HETATM   25  C7  UNL     1     -30.675   0.031  13.205  1.00  0.00     0.096 C 
BRANCH  25  26
HETATM   26  C8  UNL     1     -31.462  -0.187  14.447  1.00  0.00     0.032 C 
BRANCH  26  27
HETATM   27  C9  UNL     1     -30.996   0.632  15.612  1.00  0.00     0.128 C 
BRANCH  27  28
HETATM   28  N2  UNL     1     -30.630  -0.220  16.727  1.00  0.00    -0.366 N 
HETATM   29  C10 UNL     1     -31.448  -1.125  17.277  1.00  0.00     0.090 A 
HETATM   30  C11 UNL     1     -30.979  -1.906  18.339  1.00  0.00     0.017 A 
HETATM   31  C12 UNL     1     -29.704  -1.766  18.828  1.00  0.00     0.003 A 
HETATM   32  C13 UNL     1     -28.870  -0.838  18.262  1.00  0.00     0.017 A 
HETATM   33  C14 UNL     1     -29.368  -0.094  17.223  1.00  0.00     0.090 A 
ENDBRANCH  27  28
ENDBRANCH  26  27
ENDBRANCH  25  26
ENDBRANCH  24  25
ENDBRANCH   3  23
TORSDOF 10
ENDMDL
MODEL 2
REMARK VINA RESULT: -7.544213100      2.249      3.581
REMARK  10 active torsions:
REMARK  status: ('A' for Active; 'I' for Inactive)
REMARK    1  A    between atoms: C1_2  and  C2_3 
REMARK       I    between atoms: C1_2  and  N4_24 
REMARK    2  A    between atoms: C2_3  and  N1_4 
REMARK    3  A    between atoms: C4_6  and  C5_7 
REMARK    4  A    between atoms: C6_8  and  C7_9 
REMARK    5  A    between atoms: C7_9  and  C8_10 
REMARK    6  A    between atoms: C8_10  and  C9_11 
REMARK    7  A    between atoms: C9_11  and  N2_12 
REMARK    8  A    between atoms: C15_20  and  C16_21 
REMARK    9  A    between atoms: C16_21  and  O2_22 
REMARK   10  A    between atoms: N4_24  and  C17_26 
ROOT
HETATM    1  N1  UNL     1     -25.450   1.651  14.888  1.00  0.00    -0.333 N 
HETATM    2  C3  UNL     1     -25.592   1.775  16.243  1.00  0.00     0.132 A 
HETATM    3  C4  UNL     1     -26.771   2.421  16.546  1.00  0.00     0.103 A 
HETATM    4  N3  UNL     1     -27.351   2.692  15.365  1.00  0.00    -0.336 N 
ATOM      5  H3  UNL     1     -28.244   3.168  15.237  1.00  0.00     0.168 HD
HETATM    6  C15 UNL     1     -26.547   2.223  14.367  1.00  0.00     0.108 A 
ENDROOT
BRANCH   1   7
HETATM    7  C2  UNL     1     -24.313   1.015  14.249  1.00  0.00     0.232 C 
BRANCH   7   8
HETATM    8  C1  UNL     1     -23.147   1.920  14.155  1.00  0.00     0.241 C 
HETATM    9  O1  UNL     1     -22.730   2.202  12.997  1.00  0.00    -0.271 OA
HETATM   10  N4  UNL     1     -22.485   2.480  15.256  1.00  0.00    -0.311 N 
ATOM     11  H4  UNL     1     -22.709   3.436  15.532  1.00  0.00     0.170 HD
BRANCH  10  12
HETATM   12  C17 UNL     1     -21.604   1.832  15.928  1.00  0.00     0.123 A 
HETATM   13  C18 UNL     1     -21.021   0.670  15.438  1.00  0.00     0.136 A 
HETATM   14  N5  UNL     1     -20.105   0.006  16.152  1.00  0.00    -0.371 N 
HETATM   15  C19 UNL     1     -19.710   0.435  17.372  1.00  0.00     0.104 A 
ATOM     16  H5  UNL     1     -19.695  -0.845  15.767  1.00  0.00     0.164 HD
HETATM   17  C20 UNL     1     -20.276   1.593  17.886  1.00  0.00     0.106 A 
HETATM   18  N6  UNL     1     -21.186   2.231  17.149  1.00  0.00    -0.350 N 
ATOM     19  H6  UNL     1     -21.596   3.082  17.535  1.00  0.00     0.166 HD
ENDBRANCH  10  12
ENDBRANCH   7   8
ENDBRANCH   1   7
BRANCH   6  20
HETATM   20  C16 UNL     1     -26.854   2.337  12.917  1.00  0.00     0.240 C 
BRANCH  20  21
HETATM   21  O2  UNL     1     -25.763   3.006  12.335  1.00  0.00    -0.393 OA
ATOM     22  H2  UNL     1     -25.731   2.724  11.429  1.00  0.00     0.209 HD
ENDBRANCH  20  21
ENDBRANCH   6  20
BRANCH   3  23
HETATM   23  C5  UNL     1     -27.279   2.741  17.870  1.00  0.00    -0.047 C 
HETATM   24  C6  UNL     1     -27.703   2.985  18.971  1.00  0.00    -0.100 C 
BRANCH  24  25
HETATM   25  C7  UNL     1     -28.214   3.259  20.330  1.00  0.00     0.096 C 
BRANCH  25  26
HETATM   26  C8  UNL     1     -28.456   1.957  21.006  1.00  0.00     0.032 C 
BRANCH  26  27
HETATM   27  C9  UNL     1     -29.807   1.371  20.727  1.00  0.00     0.128 C 
BRANCH  27  28
HETATM   28  N2  UNL     1     -29.683   0.085  20.068  1.00  0.00    -0.366 N 
HETATM   29  C10 UNL     1     -29.647  -0.075  18.740  1.00  0.00     0.090 A 
HETATM   30  C11 UNL     1     -29.506  -1.364  18.216  1.00  0.00     0.017 A 
HETATM   31  C12 UNL     1     -29.405  -2.465  19.029  1.00  0.00     0.003 A 
HETATM   32  C13 UNL     1     -29.443  -2.297  20.388  1.00  0.00     0.017 A 
HETATM   33  C14 UNL     1     -29.582  -1.018  20.861  1.00  0.00     0.090 A 
ENDBRANCH  27  28
ENDBRANCH  26  27
ENDBRANCH  25  26
ENDBRANCH  24  25
ENDBRANCH   3  23
TORSDOF 10
ENDMDL
MODEL 3
REMARK VINA RESULT: -7.425670545      2.357      3.441
REMARK  10 active torsions:
REMARK  status: ('A' for Active; 'I' for Inactive)
REMARK    1  A    between atoms: C1_2  and  C2_3 
REMARK       I    between atoms: C1_2  and  N4_24 
REMARK    2  A    between atoms: C2_3  and  N1_4 
REMARK    3  A    between atoms: C4_6  and  C5_7 
REMARK    4  A    between atoms: C6_8  and  C7_9 
REMARK    5  A    between atoms: C7_9  and  C8_10 
REMARK    6  A    between atoms: C8_10  and  C9_11 
REMARK    7  A    between atoms: C9_11  and  N2_12 
REMARK    8  A    between atoms: C15_20  and  C16_21 
REMARK    9  A    between atoms: C16_21  and  O2_22 
REMARK   10  A    between atoms: N4_24  and  C17_26 
ROOT
HETATM    1  N1  UNL     1     -25.071   2.115  14.315  1.00  0.00    -0.333 N 
HETATM    2  C3  UNL     1     -25.245   1.738  15.618  1.00  0.00     0.132 A 
HETATM    3  C4  UNL     1     -26.573   1.464  15.867  1.00  0.00     0.103 A 
HETATM    4  N3  UNL     1     -27.212   1.677  14.704  1.00  0.00    -0.336 N 
ATOM      5  H3  UNL     1     -28.213   1.564  14.546  1.00  0.00     0.168 HD
HETATM    6  C15 UNL     1     -26.297   2.071  13.771  1.00  0.00     0.108 A 
ENDROOT
BRANCH   1   7
HETATM    7  C2  UNL     1     -23.787   2.470  13.741  1.00  0.00     0.232 C 
BRANCH   7   8
HETATM    8  C1  UNL     1     -22.850   1.326  13.720  1.00  0.00     0.241 C 
HETATM    9  O1  UNL     1     -23.309   0.213  13.340  1.00  0.00    -0.271 OA
HETATM   10  N4  UNL     1     -21.500   1.397  14.089  1.00  0.00    -0.311 N 
ATOM     11  H4  UNL     1     -20.793   1.485  13.358  1.00  0.00     0.170 HD
BRANCH  10  12
HETATM   12  C17 UNL     1     -21.121   1.356  15.314  1.00  0.00     0.123 A 
HETATM   13  C18 UNL     1     -21.589   2.266  16.255  1.00  0.00     0.136 A 
HETATM   14  N5  UNL     1     -21.183   2.209  17.528  1.00  0.00    -0.371 N 
HETATM   15  C19 UNL     1     -20.308   1.270  17.952  1.00  0.00     0.104 A 
ATOM     16  H5  UNL     1     -21.543   2.891  18.195  1.00  0.00     0.164 HD
HETATM   17  C20 UNL     1     -19.824   0.348  17.034  1.00  0.00     0.106 A 
HETATM   18  N6  UNL     1     -20.248   0.432  15.772  1.00  0.00    -0.350 N 
ATOM     19  H6  UNL     1     -19.888  -0.251  15.105  1.00  0.00     0.166 HD
ENDBRANCH  10  12
ENDBRANCH   7   8
ENDBRANCH   1   7
BRANCH   6  20
HETATM   20  C16 UNL     1     -26.626   2.400  12.359  1.00  0.00     0.240 C 
BRANCH  20  21
HETATM   21  O2  UNL     1     -27.266   3.651  12.385  1.00  0.00    -0.393 OA
ATOM     22  H2  UNL     1     -26.575   4.303  12.382  1.00  0.00     0.209 HD
ENDBRANCH  20  21
ENDBRANCH   6  20
BRANCH   3  23
HETATM   23  C5  UNL     1     -27.158   1.032  17.125  1.00  0.00    -0.047 C 
HETATM   24  C6  UNL     1     -27.662   0.669  18.158  1.00  0.00    -0.100 C 
BRANCH  24  25
HETATM   25  C7  UNL     1     -28.297   0.210  19.410  1.00  0.00     0.096 C 
BRANCH  25  26
HETATM   26  C8  UNL     1     -29.076  -1.021  19.111  1.00  0.00     0.032 C 
BRANCH  26  27
HETATM   27  C9  UNL     1     -30.394  -1.091  19.821  1.00  0.00     0.128 C 
BRANCH  27  28
HETATM   28  N2  UNL     1     -30.555  -2.371  20.482  1.00  0.00    -0.366 N 
HETATM   29  C10 UNL     1     -29.640  -3.347  20.454  1.00  0.00     0.090 A 
HETATM   30  C11 UNL     1     -29.895  -4.536  21.146  1.00  0.00     0.017 A 
HETATM   31  C12 UNL     1     -31.059  -4.724  21.849  1.00  0.00     0.003 A 
HETATM   32  C13 UNL     1     -31.993  -3.722  21.875  1.00  0.00     0.017 A 
HETATM   33  C14 UNL     1     -31.704  -2.573  21.184  1.00  0.00     0.090 A 
ENDBRANCH  27  28
ENDBRANCH  26  27
ENDBRANCH  25  26
ENDBRANCH  24  25
ENDBRANCH   3  23
TORSDOF 10
ENDMDL
MODEL 4
REMARK VINA RESULT: -7.309096000      0.847      1.406
REMARK  10 active torsions:
REMARK  status: ('A' for Active; 'I' for Inactive)
REMARK    1  A    between atoms: C1_2  and  C2_3 
REMARK       I    between atoms: C1_2  and  N4_24 
REMARK    2  A    between atoms: C2_3  and  N1_4 
REMARK    3  A    between atoms: C4_6  and  C5_7 
REMARK    4  A    between atoms: C6_8  and  C7_9 
REMARK    5  A    between atoms: C7_9  and  C8_10 
REMARK    6  A    between atoms: C8_10  and  C9_11 
REMARK    7  A    between atoms: C9_11  and  N2_12 
REMARK    8  A    between atoms: C15_20  and  C16_21 
REMARK    9  A    between atoms: C16_21  and  O2_22 
REMARK   10  A    between atoms: N4_24  and  C17_26 
ROOT
HETATM    1  N1  UNL     1     -24.706   1.873  14.336  1.00  0.00    -0.333 N 
HETATM    2  C3  UNL     1     -25.827   1.492  13.652  1.00  0.00     0.132 A 
HETATM    3  C4  UNL     1     -26.832   1.144  14.529  1.00  0.00     0.103 A 
HETATM    4  N3  UNL     1     -26.316   1.315  15.758  1.00  0.00    -0.336 N 
ATOM      5  H3  UNL     1     -26.805   1.144  16.637  1.00  0.00     0.168 HD
HETATM    6  C15 UNL     1     -25.030   1.756  15.634  1.00  0.00     0.108 A 
ENDROOT
BRANCH   1   7
HETATM    7  C2  UNL     1     -23.475   2.298  13.698  1.00  0.00     0.232 C 
BRANCH   7   8
HETATM    8  C1  UNL     1     -22.498   1.195  13.579  1.00  0.00     0.241 C 
HETATM    9  O1  UNL     1     -22.911   0.112  13.079  1.00  0.00    -0.271 OA
HETATM   10  N4  UNL     1     -21.157   1.273  13.980  1.00  0.00    -0.311 N 
ATOM     11  H4  UNL     1     -20.443   1.458  13.276  1.00  0.00     0.170 HD
BRANCH  10  12
HETATM   12  C17 UNL     1     -20.797   1.120  15.202  1.00  0.00     0.123 A 
HETATM   13  C18 UNL     1     -20.390  -0.114  15.694  1.00  0.00     0.136 A 
HETATM   14  N5  UNL     1     -20.018  -0.257  16.971  1.00  0.00    -0.371 N 
HETATM   15  C19 UNL     1     -20.021   0.787  17.831  1.00  0.00     0.104 A 
ATOM     16  H5  UNL     1     -19.725  -1.175  17.304  1.00  0.00     0.164 HD
HETATM   17  C20 UNL     1     -20.424   2.031  17.366  1.00  0.00     0.106 A 
HETATM   18  N6  UNL     1     -20.788   2.139  16.088  1.00  0.00    -0.350 N 
ATOM     19  H6  UNL     1     -21.081   3.058  15.755  1.00  0.00     0.166 HD
ENDBRANCH  10  12
ENDBRANCH   7   8
ENDBRANCH   1   7
BRANCH   6  20
HETATM   20  C16 UNL     1     -24.132   2.059  16.778  1.00  0.00     0.240 C 
BRANCH  20  21
HETATM   21  O2  UNL     1     -24.759   3.082  17.510  1.00  0.00    -0.393 OA
ATOM     22  H2  UNL     1     -24.474   2.978  18.410  1.00  0.00     0.209 HD
ENDBRANCH  20  21
ENDBRANCH   6  20
BRANCH   3  23
HETATM   23  C5  UNL     1     -28.170   0.689  14.193  1.00  0.00    -0.047 C 
HETATM   24  C6  UNL     1     -29.287   0.332  13.914  1.00  0.00    -0.100 C 
BRANCH  24  25
HETATM   25  C7  UNL     1     -30.661  -0.081  13.563  1.00  0.00     0.096 C 
BRANCH  25  26
HETATM   26  C8  UNL     1     -31.596   0.540  14.538  1.00  0.00     0.032 C 
BRANCH  26  27
HETATM   27  C9  UNL     1     -31.758  -0.243  15.805  1.00  0.00     0.128 C 
BRANCH  27  28
HETATM   28  N2  UNL     1     -30.752   0.139  16.778  1.00  0.00    -0.366 N 
HETATM   29  C10 UNL     1     -30.440   1.406  17.071  1.00  0.00     0.090 A 
HETATM   30  C11 UNL     1     -29.464   1.656  18.043  1.00  0.00     0.017 A 
HETATM   31  C12 UNL     1     -28.822   0.635  18.698  1.00  0.00     0.003 A 
HETATM   32  C13 UNL     1     -29.145  -0.661  18.394  1.00  0.00     0.017 A 
HETATM   33  C14 UNL     1     -30.106  -0.863  17.437  1.00  0.00     0.090 A 
ENDBRANCH  27  28
ENDBRANCH  26  27
ENDBRANCH  25  26
ENDBRANCH  24  25
ENDBRANCH   3  23
TORSDOF 10
ENDMDL
MODEL 5
REMARK VINA RESULT: -7.274945477      1.498      2.983
REMARK  10 active torsions:
REMARK  status: ('A' for Active; 'I' for Inactive)
REMARK    1  A    between atoms: C1_2  and  C2_3 
REMARK       I    between atoms: C1_2  and  N4_24 
REMARK    2  A    between atoms: C2_3  and  N1_4 
REMARK    3  A    between atoms: C4_6  and  C5_7 
REMARK    4  A    between atoms: C6_8  and  C7_9 
REMARK    5  A    between atoms: C7_9  and  C8_10 
REMARK    6  A    between atoms: C8_10  and  C9_11 
REMARK    7  A    between atoms: C9_11  and  N2_12 
REMARK    8  A    between atoms: C15_20  and  C16_21 
REMARK    9  A    between atoms: C16_21  and  O2_22 
REMARK   10  A    between atoms: N4_24  and  C17_26 
ROOT
HETATM    1  N1  UNL     1     -24.808   2.103  14.379  1.00  0.00    -0.333 N 
HETATM    2  C3  UNL     1     -24.904   1.827  15.715  1.00  0.00     0.132 A 
HETATM    3  C4  UNL     1     -26.216   1.592  16.066  1.00  0.00     0.103 A 
HETATM    4  N3  UNL     1     -26.925   1.727  14.933  1.00  0.00    -0.336 N 
ATOM      5  H3  UNL     1     -27.935   1.617  14.846  1.00  0.00     0.168 HD
HETATM    6  C15 UNL     1     -26.067   2.037  13.916  1.00  0.00     0.108 A 
ENDROOT
BRANCH   1   7
HETATM    7  C2  UNL     1     -23.560   2.395  13.700  1.00  0.00     0.232 C 
BRANCH   7   8
HETATM    8  C1  UNL     1     -22.624   1.250  13.736  1.00  0.00     0.241 C 
HETATM    9  O1  UNL     1     -23.067   0.134  13.346  1.00  0.00    -0.271 OA
HETATM   10  N4  UNL     1     -21.293   1.324  14.168  1.00  0.00    -0.311 N 
ATOM     11  H4  UNL     1     -20.553   1.403  13.470  1.00  0.00     0.170 HD
BRANCH  10  12
HETATM   12  C17 UNL     1     -20.973   1.295  15.410  1.00  0.00     0.123 A 
HETATM   13  C18 UNL     1     -21.462   2.233  16.312  1.00  0.00     0.136 A 
HETATM   14  N5  UNL     1     -21.117   2.189  17.604  1.00  0.00    -0.371 N 
HETATM   15  C19 UNL     1     -20.287   1.236  18.084  1.00  0.00     0.104 A 
ATOM     16  H5  UNL     1     -21.490   2.891  18.242  1.00  0.00     0.164 HD
HETATM   17  C20 UNL     1     -19.784   0.287  17.205  1.00  0.00     0.106 A 
HETATM   18  N6  UNL     1     -20.146   0.359  15.924  1.00  0.00    -0.350 N 
ATOM     19  H6  UNL     1     -19.773  -0.345  15.286  1.00  0.00     0.166 HD
ENDBRANCH  10  12
ENDBRANCH   7   8
ENDBRANCH   1   7
BRANCH   6  20
HETATM   20  C16 UNL     1     -26.481   2.263  12.507  1.00  0.00     0.240 C 
BRANCH  20  21
HETATM   21  O2  UNL     1     -27.164   3.491  12.491  1.00  0.00    -0.393 OA
ATOM     22  H2  UNL     1     -27.372   3.668  11.581  1.00  0.00     0.209 HD
ENDBRANCH  20  21
ENDBRANCH   6  20
BRANCH   3  23
HETATM   23  C5  UNL     1     -26.724   1.265  17.387  1.00  0.00    -0.047 C 
HETATM   24  C6  UNL     1     -27.166   0.997  18.476  1.00  0.00    -0.100 C 
BRANCH  24  25
HETATM   25  C7  UNL     1     -27.732   0.663  19.799  1.00  0.00     0.096 C 
BRANCH  25  26
HETATM   26  C8  UNL     1     -29.060   0.027  19.589  1.00  0.00     0.032 C 
BRANCH  26  27
HETATM   27  C9  UNL     1     -29.078  -0.988  18.487  1.00  0.00     0.128 C 
BRANCH  27  28
HETATM   28  N2  UNL     1     -30.180  -0.740  17.577  1.00  0.00    -0.366 N 
HETATM   29  C10 UNL     1     -31.443  -1.116  17.813  1.00  0.00     0.090 A 
HETATM   30  C11 UNL     1     -32.429  -0.805  16.870  1.00  0.00     0.017 A 
HETATM   31  C12 UNL     1     -32.132  -0.129  15.714  1.00  0.00     0.003 A 
HETATM   32  C13 UNL     1     -30.838   0.253  15.476  1.00  0.00     0.017 A 
HETATM   33  C14 UNL     1     -29.902  -0.070  16.425  1.00  0.00     0.090 A 
ENDBRANCH  27  28
ENDBRANCH  26  27
ENDBRANCH  25  26
ENDBRANCH  24  25
ENDBRANCH   3  23
TORSDOF 10
ENDMDL
