MODEL 1
REMARK VINA RESULT: -7.350157336      0.000      0.000
REMARK  7 active torsions:
REMARK  status: ('A' for Active; 'I' for Inactive)
REMARK    1  A    between atoms: N2_7  and  C5_9 
REMARK    2  A    between atoms: C5_9  and  C6_10 
REMARK    3  A    between atoms: C6_10  and  N3_11 
REMARK    4  A    between atoms: C8_16  and  C10_18 
REMARK    5  A    between atoms: C10_18  and  C11_19 
REMARK    6  A    between atoms: C11_19  and  C12_20 
REMARK    7  A    between atoms: C12_20  and  C13_21 
ROOT
HETATM    1  N3  UNL     1     -26.910   1.922  14.508  1.00  0.00    -0.266 N 
HETATM    2  C7  UNL     1     -27.143   2.564  15.761  1.00  0.00     0.326 C 
HETATM    3  O1  UNL     1     -26.518   3.569  16.203  1.00  0.00    -0.247 OA
HETATM    4  N4  UNL     1     -28.201   1.856  16.404  1.00  0.00    -0.325 N 
ATOM      5  H4  UNL     1     -28.388   1.814  17.406  1.00  0.00     0.165 HD
HETATM    6  C8  UNL     1     -28.967   1.202  15.337  1.00  0.00     0.112 C 
HETATM    7  C9  UNL     1     -29.786   2.250  14.671  1.00  0.00     0.049 C 
HETATM    8  C18 UNL     1     -27.849   0.826  14.424  1.00  0.00     0.256 C 
HETATM    9  O2  UNL     1     -27.664  -0.175  13.708  1.00  0.00    -0.270 OA
ENDROOT
BRANCH   1  10
HETATM   10  C6  UNL     1     -25.915   2.298  13.499  1.00  0.00     0.157 C 
BRANCH  10  11
HETATM   11  C5  UNL     1     -24.648   1.551  13.856  1.00  0.00     0.158 C 
BRANCH  11  12
HETATM   12  N2  UNL     1     -24.156   1.910  15.168  1.00  0.00    -0.224 N 
HETATM   13  C4  UNL     1     -22.950   1.576  15.485  1.00  0.00     0.678 A 
HETATM   14  N1  UNL     1     -22.035   0.909  14.738  1.00  0.00    -0.200 N 
HETATM   15  N7  UNL     1     -22.338   1.829  16.656  1.00  0.00    -0.195 N 
HETATM   16  C3  UNL     1     -20.901   0.760  15.433  1.00  0.00     0.131 A 
ATOM     17  H1  UNL     1     -22.188   0.572  13.788  1.00  0.00     0.183 HD
HETATM   18  C2  UNL     1     -21.091   1.348  16.660  1.00  0.00     0.038 A 
HETATM   19  C1  UNL     1     -20.072   1.416  17.767  1.00  0.00     0.070 C 
ATOM     20  H7  UNL     1     -22.768   2.323  17.438  1.00  0.00     0.184 HD
ATOM     21  H2  UNL     1     -24.749   2.414  15.828  1.00  0.00     0.177 HD
ENDBRANCH  11  12
ENDBRANCH  10  11
ENDBRANCH   1  10
BRANCH   6  22
HETATM   22  C10 UNL     1     -29.746   0.042  15.854  1.00  0.00     0.041 C 
BRANCH  22  23
HETATM   23  C11 UNL     1     -29.971   0.057  17.325  1.00  0.00     0.008 C 
BRANCH  23  24
HETATM   24  C12 UNL     1     -29.245  -1.116  17.976  1.00  0.00     0.041 C 
BRANCH  24  25
HETATM   25  C13 UNL     1     -30.019  -1.724  19.059  1.00  0.00    -0.027 A 
HETATM   26  C14 UNL     1     -29.604  -2.855  19.602  1.00  0.00     0.099 A 
HETATM   27  N5  UNL     1     -30.307  -3.498  20.657  1.00  0.00    -0.357 N 
HETATM   28  C15 UNL     1     -29.866  -4.740  21.266  1.00  0.00     0.156 C 
HETATM   29  C16 UNL     1     -31.396  -2.972  21.114  1.00  0.00     0.182 A 
HETATM   30  N6  UNL     1     -31.865  -1.760  20.549  1.00  0.00    -0.361 N 
HETATM   31  C17 UNL     1     -31.251  -1.152  19.594  1.00  0.00     0.097 A 
ATOM     32  H6  UNL     1     -32.726  -1.352  20.914  1.00  0.00     0.166 HD
ENDBRANCH  24  25
ENDBRANCH  23  24
ENDBRANCH  22  23
ENDBRANCH   6  22
TORSDOF 7
ENDMDL
MODEL 2
REMARK VINA RESULT: -7.306715283      1.667      2.111
REMARK  7 active torsions:
REMARK  status: ('A' for Active; 'I' for Inactive)
REMARK    1  A    between atoms: N2_7  and  C5_9 
REMARK    2  A    between atoms: C5_9  and  C6_10 
REMARK    3  A    between atoms: C6_10  and  N3_11 
REMARK    4  A    between atoms: C8_16  and  C10_18 
REMARK    5  A    between atoms: C10_18  and  C11_19 
REMARK    6  A    between atoms: C11_19  and  C12_20 
REMARK    7  A    between atoms: C12_20  and  C13_21 
ROOT
HETATM    1  N3  UNL     1     -26.962   1.953  14.432  1.00  0.00    -0.266 N 
HETATM    2  C7  UNL     1     -27.280   2.653  15.634  1.00  0.00     0.326 C 
HETATM    3  O1  UNL     1     -26.675   3.669  16.078  1.00  0.00    -0.247 OA
HETATM    4  N4  UNL     1     -28.396   1.989  16.223  1.00  0.00    -0.325 N 
ATOM      5  H4  UNL     1     -28.661   1.994  17.208  1.00  0.00     0.165 HD
HETATM    6  C8  UNL     1     -29.088   1.298  15.129  1.00  0.00     0.112 C 
HETATM    7  C9  UNL     1     -29.836   2.326  14.355  1.00  0.00     0.049 C 
HETATM    8  C18 UNL     1     -27.910   0.866  14.324  1.00  0.00     0.256 C 
HETATM    9  O2  UNL     1     -27.687  -0.168  13.669  1.00  0.00    -0.270 OA
ENDROOT
BRANCH   1  10
HETATM   10  C6  UNL     1     -25.885   2.269  13.489  1.00  0.00     0.157 C 
BRANCH  10  11
HETATM   11  C5  UNL     1     -24.686   1.458  13.928  1.00  0.00     0.158 C 
BRANCH  11  12
HETATM   12  N2  UNL     1     -24.168   1.899  15.204  1.00  0.00    -0.224 N 
HETATM   13  C4  UNL     1     -22.966   1.561  15.530  1.00  0.00     0.678 A 
HETATM   14  N1  UNL     1     -22.075   0.821  14.822  1.00  0.00    -0.200 N 
HETATM   15  N7  UNL     1     -22.331   1.884  16.672  1.00  0.00    -0.195 N 
HETATM   16  C3  UNL     1     -20.936   0.696  15.512  1.00  0.00     0.131 A 
ATOM     17  H1  UNL     1     -22.249   0.419  13.900  1.00  0.00     0.183 HD
HETATM   18  C2  UNL     1     -21.095   1.375  16.695  1.00  0.00     0.038 A 
HETATM   19  C1  UNL     1     -20.060   1.500  17.781  1.00  0.00     0.070 C 
ATOM     20  H7  UNL     1     -22.740   2.443  17.421  1.00  0.00     0.184 HD
ATOM     21  H2  UNL     1     -24.740   2.463  15.833  1.00  0.00     0.177 HD
ENDBRANCH  11  12
ENDBRANCH  10  11
ENDBRANCH   1  10
BRANCH   6  22
HETATM   22  C10 UNL     1     -29.924   0.172  15.634  1.00  0.00     0.041 C 
BRANCH  22  23
HETATM   23  C11 UNL     1     -30.162   0.191  17.103  1.00  0.00     0.008 C 
BRANCH  23  24
HETATM   24  C12 UNL     1     -29.309  -0.875  17.784  1.00  0.00     0.041 C 
BRANCH  24  25
HETATM   25  C13 UNL     1     -29.083  -0.592  19.201  1.00  0.00    -0.027 A 
HETATM   26  C14 UNL     1     -28.481   0.529  19.555  1.00  0.00     0.099 A 
HETATM   27  N5  UNL     1     -28.231   0.866  20.913  1.00  0.00    -0.357 N 
HETATM   28  C15 UNL     1     -27.571   2.093  21.320  1.00  0.00     0.156 C 
HETATM   29  C16 UNL     1     -28.600   0.057  21.851  1.00  0.00     0.182 A 
HETATM   30  N6  UNL     1     -29.247  -1.154  21.501  1.00  0.00    -0.361 N 
HETATM   31  C17 UNL     1     -29.489  -1.488  20.281  1.00  0.00     0.097 A 
ATOM     32  H6  UNL     1     -29.534  -1.788  22.247  1.00  0.00     0.166 HD
ENDBRANCH  24  25
ENDBRANCH  23  24
ENDBRANCH  22  23
ENDBRANCH   6  22
TORSDOF 7
ENDMDL
MODEL 3
REMARK VINA RESULT: -7.289217157      0.472      1.247
REMARK  7 active torsions:
REMARK  status: ('A' for Active; 'I' for Inactive)
REMARK    1  A    between atoms: N2_7  and  C5_9 
REMARK    2  A    between atoms: C5_9  and  C6_10 
REMARK    3  A    between atoms: C6_10  and  N3_11 
REMARK    4  A    between atoms: C8_16  and  C10_18 
REMARK    5  A    between atoms: C10_18  and  C11_19 
REMARK    6  A    between atoms: C11_19  and  C12_20 
REMARK    7  A    between atoms: C12_20  and  C13_21 
ROOT
HETATM    1  N3  UNL     1     -26.969   1.962  14.642  1.00  0.00    -0.266 N 
HETATM    2  C7  UNL     1     -27.134   2.592  15.911  1.00  0.00     0.326 C 
HETATM    3  O1  UNL     1     -26.457   3.567  16.344  1.00  0.00    -0.247 OA
HETATM    4  N4  UNL     1     -28.195   1.915  16.581  1.00  0.00    -0.325 N 
ATOM      5  H4  UNL     1     -28.349   1.864  17.588  1.00  0.00     0.165 HD
HETATM    6  C8  UNL     1     -29.022   1.306  15.532  1.00  0.00     0.112 C 
HETATM    7  C9  UNL     1     -29.824   2.393  14.910  1.00  0.00     0.049 C 
HETATM    8  C18 UNL     1     -27.951   0.902  14.576  1.00  0.00     0.256 C 
HETATM    9  O2  UNL     1     -27.829  -0.094  13.841  1.00  0.00    -0.270 OA
ENDROOT
BRANCH   1  10
HETATM   10  C6  UNL     1     -25.996   2.315  13.604  1.00  0.00     0.157 C 
BRANCH  10  11
HETATM   11  C5  UNL     1     -24.732   1.551  13.933  1.00  0.00     0.158 C 
BRANCH  11  12
HETATM   12  N2  UNL     1     -24.170   1.949  15.204  1.00  0.00    -0.224 N 
HETATM   13  C4  UNL     1     -22.976   1.556  15.499  1.00  0.00     0.678 A 
HETATM   14  N1  UNL     1     -22.133   0.790  14.761  1.00  0.00    -0.200 N 
HETATM   15  N7  UNL     1     -22.306   1.834  16.633  1.00  0.00    -0.195 N 
HETATM   16  C3  UNL     1     -20.986   0.607  15.426  1.00  0.00     0.131 A 
ATOM     17  H1  UNL     1     -22.342   0.412  13.838  1.00  0.00     0.183 HD
HETATM   18  C2  UNL     1     -21.092   1.273  16.622  1.00  0.00     0.038 A 
HETATM   19  C1  UNL     1     -20.031   1.337  17.688  1.00  0.00     0.070 C 
ATOM     20  H7  UNL     1     -22.675   2.397  17.399  1.00  0.00     0.184 HD
ATOM     21  H2  UNL     1     -24.704   2.528  15.854  1.00  0.00     0.177 HD
ENDBRANCH  11  12
ENDBRANCH  10  11
ENDBRANCH   1  10
BRANCH   6  22
HETATM   22  C10 UNL     1     -29.825   0.167  16.061  1.00  0.00     0.041 C 
BRANCH  22  23
HETATM   23  C11 UNL     1     -29.895   0.099  17.546  1.00  0.00     0.008 C 
BRANCH  23  24
HETATM   24  C12 UNL     1     -29.071  -1.081  18.053  1.00  0.00     0.041 C 
BRANCH  24  25
HETATM   25  C13 UNL     1     -29.758  -1.836  19.101  1.00  0.00    -0.027 A 
HETATM   26  C14 UNL     1     -30.720  -1.257  19.799  1.00  0.00     0.099 A 
HETATM   27  N5  UNL     1     -31.428  -1.932  20.830  1.00  0.00    -0.357 N 
HETATM   28  C15 UNL     1     -32.486  -1.312  21.606  1.00  0.00     0.156 C 
HETATM   29  C16 UNL     1     -31.134  -3.159  21.109  1.00  0.00     0.182 A 
HETATM   30  N6  UNL     1     -30.107  -3.806  20.377  1.00  0.00    -0.361 N 
HETATM   31  C17 UNL     1     -29.448  -3.222  19.438  1.00  0.00     0.097 A 
ATOM     32  H6  UNL     1     -29.880  -4.774  20.605  1.00  0.00     0.166 HD
ENDBRANCH  24  25
ENDBRANCH  23  24
ENDBRANCH  22  23
ENDBRANCH   6  22
TORSDOF 7
ENDMDL
MODEL 4
REMARK VINA RESULT: -7.170105799      1.398      2.194
REMARK  7 active torsions:
REMARK  status: ('A' for Active; 'I' for Inactive)
REMARK    1  A    between atoms: N2_7  and  C5_9 
REMARK    2  A    between atoms: C5_9  and  C6_10 
REMARK    3  A    between atoms: C6_10  and  N3_11 
REMARK    4  A    between atoms: C8_16  and  C10_18 
REMARK    5  A    between atoms: C10_18  and  C11_19 
REMARK    6  A    between atoms: C11_19  and  C12_20 
REMARK    7  A    between atoms: C12_20  and  C13_21 
ROOT
HETATM    1  N3  UNL     1     -28.009   1.770  15.919  1.00  0.00    -0.266 N 
HETATM    2  C7  UNL     1     -27.610   1.824  17.288  1.00  0.00     0.326 C 
HETATM    3  O1  UNL     1     -26.775   2.632  17.782  1.00  0.00    -0.247 OA
HETATM    4  N4  UNL     1     -28.329   0.801  17.975  1.00  0.00    -0.325 N 
ATOM      5  H4  UNL     1     -28.056   0.339  18.842  1.00  0.00     0.165 HD
HETATM    6  C8  UNL     1     -29.539   0.547  17.184  1.00  0.00     0.112 C 
HETATM    7  C9  UNL     1     -30.479   1.672  17.435  1.00  0.00     0.049 C 
HETATM    8  C18 UNL     1     -28.975   0.699  15.812  1.00  0.00     0.256 C 
HETATM    9  O2  UNL     1     -29.209   0.098  14.748  1.00  0.00    -0.270 OA
ENDROOT
BRANCH   1  10
HETATM   10  C6  UNL     1     -27.536   2.631  14.831  1.00  0.00     0.157 C 
BRANCH  10  11
HETATM   11  C5  UNL     1     -26.265   1.995  14.312  1.00  0.00     0.158 C 
BRANCH  11  12
HETATM   12  N2  UNL     1     -25.209   2.002  15.301  1.00  0.00    -0.224 N 
HETATM   13  C4  UNL     1     -24.040   1.580  14.954  1.00  0.00     0.678 A 
HETATM   14  N1  UNL     1     -23.635   1.109  13.747  1.00  0.00    -0.200 N 
HETATM   15  N7  UNL     1     -22.952   1.519  15.743  1.00  0.00    -0.195 N 
HETATM   16  C3  UNL     1     -22.341   0.772  13.801  1.00  0.00     0.131 A 
ATOM     17  H1  UNL     1     -24.228   1.026  12.922  1.00  0.00     0.183 HD
HETATM   18  C2  UNL     1     -21.901   1.032  15.076  1.00  0.00     0.038 A 
HETATM   19  C1  UNL     1     -20.502   0.803  15.585  1.00  0.00     0.070 C 
ATOM     20  H7  UNL     1     -22.931   1.805  16.722  1.00  0.00     0.184 HD
ATOM     21  H2  UNL     1     -25.385   2.332  16.250  1.00  0.00     0.177 HD
ENDBRANCH  11  12
ENDBRANCH  10  11
ENDBRANCH   1  10
BRANCH   6  22
HETATM   22  C10 UNL     1     -30.101  -0.805  17.463  1.00  0.00     0.041 C 
BRANCH  22  23
HETATM   23  C11 UNL     1     -29.442  -1.528  18.585  1.00  0.00     0.008 C 
BRANCH  23  24
HETATM   24  C12 UNL     1     -30.230  -1.319  19.875  1.00  0.00     0.041 C 
BRANCH  24  25
HETATM   25  C13 UNL     1     -30.518  -2.576  20.566  1.00  0.00    -0.027 A 
HETATM   26  C14 UNL     1     -31.672  -2.726  21.192  1.00  0.00     0.099 A 
HETATM   27  N5  UNL     1     -32.016  -3.920  21.882  1.00  0.00    -0.357 N 
HETATM   28  C15 UNL     1     -33.278  -4.102  22.576  1.00  0.00     0.156 C 
HETATM   29  C16 UNL     1     -31.181  -4.907  21.908  1.00  0.00     0.182 A 
HETATM   30  N6  UNL     1     -29.936  -4.774  21.245  1.00  0.00    -0.361 N 
HETATM   31  C17 UNL     1     -29.595  -3.706  20.611  1.00  0.00     0.097 A 
ATOM     32  H6  UNL     1     -29.282  -5.556  21.271  1.00  0.00     0.166 HD
ENDBRANCH  24  25
ENDBRANCH  23  24
ENDBRANCH  22  23
ENDBRANCH   6  22
TORSDOF 7
ENDMDL
MODEL 5
REMARK VINA RESULT: -7.148795363      1.816      7.923
REMARK  7 active torsions:
REMARK  status: ('A' for Active; 'I' for Inactive)
REMARK    1  A    between atoms: N2_7  and  C5_9 
REMARK    2  A    between atoms: C5_9  and  C6_10 
REMARK    3  A    between atoms: C6_10  and  N3_11 
REMARK    4  A    between atoms: C8_16  and  C10_18 
REMARK    5  A    between atoms: C10_18  and  C11_19 
REMARK    6  A    between atoms: C11_19  and  C12_20 
REMARK    7  A    between atoms: C12_20  and  C13_21 
ROOT
HETATM    1  N3  UNL     1     -28.476   1.944  14.749  1.00  0.00    -0.266 N 
HETATM    2  C7  UNL     1     -28.304   0.655  14.162  1.00  0.00     0.326 C 
HETATM    3  O1  UNL     1     -29.218  -0.050  13.648  1.00  0.00    -0.247 OA
HETATM    4  N4  UNL     1     -26.921   0.326  14.271  1.00  0.00    -0.325 N 
ATOM      5  H4  UNL     1     -26.513  -0.609  14.278  1.00  0.00     0.165 HD
HETATM    6  C8  UNL     1     -26.201   1.601  14.371  1.00  0.00     0.112 C 
HETATM    7  C9  UNL     1     -26.170   2.202  13.010  1.00  0.00     0.049 C 
HETATM    8  C18 UNL     1     -27.171   2.368  15.204  1.00  0.00     0.256 C 
HETATM    9  O2  UNL     1     -27.005   3.206  16.109  1.00  0.00    -0.270 OA
ENDROOT
BRANCH   1  10
HETATM   10  C6  UNL     1     -29.729   2.696  14.868  1.00  0.00     0.157 C 
BRANCH  10  11
HETATM   11  C5  UNL     1     -30.259   2.416  16.258  1.00  0.00     0.158 C 
BRANCH  11  12
HETATM   12  N2  UNL     1     -30.691   1.044  16.410  1.00  0.00    -0.224 N 
HETATM   13  C4  UNL     1     -30.085   0.301  17.275  1.00  0.00     0.678 A 
HETATM   14  N1  UNL     1     -29.057   0.629  18.098  1.00  0.00    -0.200 N 
HETATM   15  N7  UNL     1     -30.358  -0.989  17.542  1.00  0.00    -0.195 N 
HETATM   16  C3  UNL     1     -28.715  -0.428  18.842  1.00  0.00     0.131 A 
ATOM     17  H1  UNL     1     -28.612   1.546  18.143  1.00  0.00     0.183 HD
HETATM   18  C2  UNL     1     -29.545  -1.465  18.491  1.00  0.00     0.038 A 
HETATM   19  C1  UNL     1     -29.515  -2.851  19.079  1.00  0.00     0.070 C 
ATOM     20  H7  UNL     1     -31.089  -1.532  17.083  1.00  0.00     0.184 HD
ATOM     21  H2  UNL     1     -31.457   0.673  15.848  1.00  0.00     0.177 HD
ENDBRANCH  11  12
ENDBRANCH  10  11
ENDBRANCH   1  10
BRANCH   6  22
HETATM   22  C10 UNL     1     -24.863   1.427  15.002  1.00  0.00     0.041 C 
BRANCH  22  23
HETATM   23  C11 UNL     1     -23.714   1.730  14.106  1.00  0.00     0.008 C 
BRANCH  23  24
HETATM   24  C12 UNL     1     -22.657   2.528  14.864  1.00  0.00     0.041 C 
BRANCH  24  25
HETATM   25  C13 UNL     1     -21.724   1.672  15.596  1.00  0.00    -0.027 A 
HETATM   26  C14 UNL     1     -21.325   2.025  16.805  1.00  0.00     0.099 A 
HETATM   27  N5  UNL     1     -20.421   1.239  17.570  1.00  0.00    -0.357 N 
HETATM   28  C15 UNL     1     -19.972   1.612  18.899  1.00  0.00     0.156 C 
HETATM   29  C16 UNL     1     -19.962   0.134  17.081  1.00  0.00     0.182 A 
HETATM   30  N6  UNL     1     -20.373  -0.270  15.787  1.00  0.00    -0.361 N 
HETATM   31  C17 UNL     1     -21.191   0.419  15.069  1.00  0.00     0.097 A 
ATOM     32  H6  UNL     1     -20.006  -1.143  15.408  1.00  0.00     0.166 HD
ENDBRANCH  24  25
ENDBRANCH  23  24
ENDBRANCH  22  23
ENDBRANCH   6  22
TORSDOF 7
ENDMDL
