MODEL 1
REMARK VINA RESULT: -5.904088775      0.000      0.000
REMARK  8 active torsions:
REMARK  status: ('A' for Active; 'I' for Inactive)
REMARK    1  A    between atoms: C2_2  and  C3_3 
REMARK    2  A    between atoms: C3_3  and  C4_4 
REMARK    3  A    between atoms: C4_4  and  C5_5 
REMARK    4  A    between atoms: C7_11  and  O1_12 
REMARK    5  A    between atoms: C8_14  and  C9_15 
REMARK    6  A    between atoms: C9_15  and  C10_16 
REMARK    7  A    between atoms: C10_16  and  C11_17 
REMARK    8  A    between atoms: C11_17  and  N3_18 
ROOT
HETATM    1  C5  UNL     1     -30.209   0.481  16.651  1.00  0.00     0.174 C 
HETATM    2  N1  UNL     1     -31.065   0.396  15.536  1.00  0.00    -0.373 N 
ATOM      3  H1  UNL     1     -32.066   0.293  15.701  1.00  0.00     0.161 HD
HETATM    4  C6  UNL     1     -30.610   0.445  14.215  1.00  0.00     0.178 C 
HETATM    5  N2  UNL     1     -29.291   0.148  13.845  1.00  0.00    -0.332 N 
ATOM      6  H2  UNL     1     -29.193  -0.821  13.541  1.00  0.00     0.168 HD
HETATM    7  C7  UNL     1     -28.074   0.835  13.785  1.00  0.00     0.164 C 
HETATM    8  C8  UNL     1     -27.588   2.129  13.391  1.00  0.00     0.063 C 
HETATM    9  N4  UNL     1     -27.317   3.189  14.264  1.00  0.00    -0.325 N 
ATOM     10  H4  UNL     1     -26.632   3.820  13.848  1.00  0.00     0.169 HD
HETATM   11  C15 UNL     1     -27.699   3.659  15.550  1.00  0.00     0.249 C 
HETATM   12  O2  UNL     1     -27.258   4.708  16.083  1.00  0.00    -0.270 OA
HETATM   13  C16 UNL     1     -28.663   2.836  16.248  1.00  0.00     0.106 C 
HETATM   14  C17 UNL     1     -29.665   3.694  15.741  1.00  0.00     0.048 C 
HETATM   15  C18 UNL     1     -27.603   2.254  16.963  1.00  0.00     0.048 C 
HETATM   16  N5  UNL     1     -29.402   2.839  17.467  1.00  0.00    -0.342 N 
ATOM     17  H5  UNL     1     -29.380   3.576  18.171  1.00  0.00     0.163 HD
HETATM   18  C19 UNL     1     -30.198   1.612  17.546  1.00  0.00     0.241 C 
HETATM   19  O3  UNL     1     -30.964   1.620  18.578  1.00  0.00    -0.271 OA
ENDROOT
BRANCH   8  20
HETATM   20  C9  UNL     1     -28.367   2.540  12.123  1.00  0.00     0.063 C 
BRANCH  20  21
HETATM   21  C10 UNL     1     -27.833   3.714  11.404  1.00  0.00     0.034 C 
BRANCH  21  22
HETATM   22  C11 UNL     1     -26.575   3.368  10.688  1.00  0.00     0.236 C 
BRANCH  22  23
HETATM   23  N3  UNL     1     -26.613   3.702   9.276  1.00  0.00    -0.079 N 
HETATM   24  C12 UNL     1     -27.206   2.676   8.470  1.00  0.00     0.271 C 
HETATM   25  C13 UNL     1     -25.247   3.898   8.823  1.00  0.00     0.271 C 
HETATM   26  C14 UNL     1     -27.330   4.942   9.038  1.00  0.00     0.271 C 
ENDBRANCH  22  23
ENDBRANCH  21  22
ENDBRANCH  20  21
ENDBRANCH   8  20
BRANCH   7  27
HETATM   27  O1  UNL     1     -27.116   0.031  14.220  1.00  0.00    -0.345 OA
ATOM     28  H1  UNL     1     -26.336   0.550  14.380  1.00  0.00     0.219 HD
ENDBRANCH   7  27
BRANCH   1  29
HETATM   29  C4  UNL     1     -30.358  -0.851  17.373  1.00  0.00     0.038 C 
BRANCH  29  30
HETATM   30  C3  UNL     1     -29.116  -1.155  18.157  1.00  0.00     0.029 C 
BRANCH  30  31
HETATM   31  C2  UNL     1     -29.429  -1.731  19.494  1.00  0.00    -0.037 C 
HETATM   32  C1  UNL     1     -29.485  -3.037  19.626  1.00  0.00     0.007 C 
ENDBRANCH  30  31
ENDBRANCH  29  30
ENDBRANCH   1  29
TORSDOF 8
ENDMDL
MODEL 2
REMARK VINA RESULT: -5.741866164      0.978      1.227
REMARK  8 active torsions:
REMARK  status: ('A' for Active; 'I' for Inactive)
REMARK    1  A    between atoms: C2_2  and  C3_3 
REMARK    2  A    between atoms: C3_3  and  C4_4 
REMARK    3  A    between atoms: C4_4  and  C5_5 
REMARK    4  A    between atoms: C7_11  and  O1_12 
REMARK    5  A    between atoms: C8_14  and  C9_15 
REMARK    6  A    between atoms: C9_15  and  C10_16 
REMARK    7  A    between atoms: C10_16  and  C11_17 
REMARK    8  A    between atoms: C11_17  and  N3_18 
ROOT
HETATM    1  C5  UNL     1     -29.050   0.504  17.587  1.00  0.00     0.174 C 
HETATM    2  N1  UNL     1     -30.093   0.169  16.703  1.00  0.00    -0.373 N 
ATOM      3  H1  UNL     1     -30.980  -0.143  17.097  1.00  0.00     0.161 HD
HETATM    4  C6  UNL     1     -29.973   0.242  15.312  1.00  0.00     0.178 C 
HETATM    5  N2  UNL     1     -28.739   0.223  14.646  1.00  0.00    -0.332 N 
ATOM      6  H2  UNL     1     -28.494  -0.716  14.331  1.00  0.00     0.168 HD
HETATM    7  C7  UNL     1     -27.757   1.158  14.300  1.00  0.00     0.164 C 
HETATM    8  C8  UNL     1     -27.682   2.502  13.799  1.00  0.00     0.063 C 
HETATM    9  N4  UNL     1     -27.469   3.644  14.579  1.00  0.00    -0.325 N 
ATOM     10  H4  UNL     1     -27.059   4.386  14.012  1.00  0.00     0.169 HD
HETATM   11  C15 UNL     1     -27.648   4.090  15.917  1.00  0.00     0.249 C 
HETATM   12  O2  UNL     1     -27.348   5.240  16.328  1.00  0.00    -0.270 OA
HETATM   13  C16 UNL     1     -28.214   3.117  16.824  1.00  0.00     0.106 C 
HETATM   14  C17 UNL     1     -29.474   3.701  16.561  1.00  0.00     0.048 C 
HETATM   15  C18 UNL     1     -26.916   2.825  17.274  1.00  0.00     0.048 C 
HETATM   16  N5  UNL     1     -28.639   3.026  18.182  1.00  0.00    -0.342 N 
ATOM     17  H5  UNL     1     -28.627   3.789  18.858  1.00  0.00     0.163 HD
HETATM   18  C19 UNL     1     -29.095   1.660  18.450  1.00  0.00     0.241 C 
HETATM   19  O3  UNL     1     -29.589   1.557  19.632  1.00  0.00    -0.271 OA
ENDROOT
BRANCH   8  20
HETATM   20  C9  UNL     1     -28.800   2.657  12.746  1.00  0.00     0.063 C 
BRANCH  20  21
HETATM   21  C10 UNL     1     -28.437   3.441  11.547  1.00  0.00     0.034 C 
BRANCH  21  22
HETATM   22  C11 UNL     1     -27.089   3.055  11.051  1.00  0.00     0.236 C 
BRANCH  22  23
HETATM   23  N3  UNL     1     -26.706   3.753   9.838  1.00  0.00    -0.079 N 
HETATM   24  C12 UNL     1     -27.627   4.785   9.467  1.00  0.00     0.271 C 
HETATM   25  C13 UNL     1     -26.656   2.783   8.758  1.00  0.00     0.271 C 
HETATM   26  C14 UNL     1     -25.383   4.341   9.954  1.00  0.00     0.271 C 
ENDBRANCH  22  23
ENDBRANCH  21  22
ENDBRANCH  20  21
ENDBRANCH   8  20
BRANCH   7  27
HETATM   27  O1  UNL     1     -26.567   0.611  14.504  1.00  0.00    -0.345 OA
ATOM     28  H1  UNL     1     -25.915   1.302  14.507  1.00  0.00     0.219 HD
ENDBRANCH   7  27
BRANCH   1  29
HETATM   29  C4  UNL     1     -28.723  -0.784  18.329  1.00  0.00     0.038 C 
BRANCH  29  30
HETATM   30  C3  UNL     1     -29.945  -1.651  18.420  1.00  0.00     0.029 C 
BRANCH  30  31
HETATM   31  C2  UNL     1     -29.650  -2.960  19.064  1.00  0.00    -0.037 C 
HETATM   32  C1  UNL     1     -29.529  -3.012  20.372  1.00  0.00     0.007 C 
ENDBRANCH  30  31
ENDBRANCH  29  30
ENDBRANCH   1  29
TORSDOF 8
ENDMDL
MODEL 3
REMARK VINA RESULT: -5.378511985      2.917      4.556
REMARK  8 active torsions:
REMARK  status: ('A' for Active; 'I' for Inactive)
REMARK    1  A    between atoms: C2_2  and  C3_3 
REMARK    2  A    between atoms: C3_3  and  C4_4 
REMARK    3  A    between atoms: C4_4  and  C5_5 
REMARK    4  A    between atoms: C7_11  and  O1_12 
REMARK    5  A    between atoms: C8_14  and  C9_15 
REMARK    6  A    between atoms: C9_15  and  C10_16 
REMARK    7  A    between atoms: C10_16  and  C11_17 
REMARK    8  A    between atoms: C11_17  and  N3_18 
ROOT
HETATM    1  C5  UNL     1     -30.558  -1.098  19.231  1.00  0.00     0.174 C 
HETATM    2  N1  UNL     1     -30.784  -0.837  17.866  1.00  0.00    -0.373 N 
ATOM      3  H1  UNL     1     -31.614  -1.236  17.428  1.00  0.00     0.161 HD
HETATM    4  C6  UNL     1     -29.929  -0.057  17.082  1.00  0.00     0.178 C 
HETATM    5  N2  UNL     1     -28.586   0.176  17.411  1.00  0.00    -0.332 N 
ATOM      6  H2  UNL     1     -27.962  -0.475  16.935  1.00  0.00     0.168 HD
HETATM    7  C7  UNL     1     -27.879   1.071  18.222  1.00  0.00     0.164 C 
HETATM    8  C8  UNL     1     -27.905   2.469  18.557  1.00  0.00     0.063 C 
HETATM    9  N4  UNL     1     -28.489   3.012  19.707  1.00  0.00    -0.325 N 
ATOM     10  H4  UNL     1     -28.052   3.905  19.935  1.00  0.00     0.169 HD
HETATM   11  C15 UNL     1     -29.502   2.705  20.656  1.00  0.00     0.249 C 
HETATM   12  O2  UNL     1     -29.812   3.442  21.626  1.00  0.00    -0.270 OA
HETATM   13  C16 UNL     1     -30.189   1.451  20.445  1.00  0.00     0.106 C 
HETATM   14  C17 UNL     1     -31.184   2.185  19.761  1.00  0.00     0.048 C 
HETATM   15  C18 UNL     1     -29.349   0.863  21.405  1.00  0.00     0.048 C 
HETATM   16  N5  UNL     1     -31.259   0.697  21.011  1.00  0.00    -0.342 N 
ATOM     17  H5  UNL     1     -31.838   0.990  21.797  1.00  0.00     0.163 HD
HETATM   18  C19 UNL     1     -31.393  -0.566  20.280  1.00  0.00     0.241 C 
HETATM   19  O3  UNL     1     -32.415  -1.231  20.685  1.00  0.00    -0.271 OA
ENDROOT
BRANCH   8  20
HETATM   20  C9  UNL     1     -28.229   3.241  17.260  1.00  0.00     0.063 C 
BRANCH  20  21
HETATM   21  C10 UNL     1     -27.174   3.213  16.227  1.00  0.00     0.034 C 
BRANCH  21  22
HETATM   22  C11 UNL     1     -27.721   2.749  14.924  1.00  0.00     0.236 C 
BRANCH  22  23
HETATM   23  N3  UNL     1     -26.891   1.748  14.280  1.00  0.00    -0.079 N 
HETATM   24  C12 UNL     1     -27.581   0.517  14.033  1.00  0.00     0.271 C 
HETATM   25  C13 UNL     1     -25.766   1.466  15.155  1.00  0.00     0.271 C 
HETATM   26  C14 UNL     1     -26.351   2.229  13.021  1.00  0.00     0.271 C 
ENDBRANCH  22  23
ENDBRANCH  21  22
ENDBRANCH  20  21
ENDBRANCH   8  20
BRANCH   7  27
HETATM   27  O1  UNL     1     -26.916   0.406  18.841  1.00  0.00    -0.345 OA
ATOM     28  H1  UNL     1     -27.089   0.425  19.775  1.00  0.00     0.219 HD
ENDBRANCH   7  27
BRANCH   1  29
HETATM   29  C4  UNL     1     -30.370  -2.606  19.324  1.00  0.00     0.038 C 
BRANCH  29  30
HETATM   30  C3  UNL     1     -29.410  -2.938  20.429  1.00  0.00     0.029 C 
BRANCH  30  31
HETATM   31  C2  UNL     1     -29.780  -4.202  21.124  1.00  0.00    -0.037 C 
HETATM   32  C1  UNL     1     -31.025  -4.374  21.511  1.00  0.00     0.007 C 
ENDBRANCH  30  31
ENDBRANCH  29  30
ENDBRANCH   1  29
TORSDOF 8
ENDMDL
MODEL 4
REMARK VINA RESULT: -5.372426133      1.697      2.274
REMARK  8 active torsions:
REMARK  status: ('A' for Active; 'I' for Inactive)
REMARK    1  A    between atoms: C2_2  and  C3_3 
REMARK    2  A    between atoms: C3_3  and  C4_4 
REMARK    3  A    between atoms: C4_4  and  C5_5 
REMARK    4  A    between atoms: C7_11  and  O1_12 
REMARK    5  A    between atoms: C8_14  and  C9_15 
REMARK    6  A    between atoms: C9_15  and  C10_16 
REMARK    7  A    between atoms: C10_16  and  C11_17 
REMARK    8  A    between atoms: C11_17  and  N3_18 
ROOT
HETATM    1  C5  UNL     1     -30.154   0.500  16.529  1.00  0.00     0.174 C 
HETATM    2  N1  UNL     1     -30.908   0.331  15.353  1.00  0.00    -0.373 N 
ATOM      3  H1  UNL     1     -31.915   0.193  15.439  1.00  0.00     0.161 HD
HETATM    4  C6  UNL     1     -30.346   0.342  14.072  1.00  0.00     0.178 C 
HETATM    5  N2  UNL     1     -28.990   0.085  13.827  1.00  0.00    -0.332 N 
ATOM      6  H2  UNL     1     -28.829  -0.891  13.578  1.00  0.00     0.168 HD
HETATM    7  C7  UNL     1     -27.799   0.820  13.836  1.00  0.00     0.164 C 
HETATM    8  C8  UNL     1     -27.332   2.115  13.424  1.00  0.00     0.063 C 
HETATM    9  N4  UNL     1     -27.176   3.222  14.266  1.00  0.00    -0.325 N 
ATOM     10  H4  UNL     1     -26.483   3.863  13.879  1.00  0.00     0.169 HD
HETATM   11  C15 UNL     1     -27.684   3.730  15.493  1.00  0.00     0.249 C 
HETATM   12  O2  UNL     1     -27.330   4.820  16.011  1.00  0.00    -0.270 OA
HETATM   13  C16 UNL     1     -28.671   2.899  16.146  1.00  0.00     0.106 C 
HETATM   14  C17 UNL     1     -29.659   3.691  15.518  1.00  0.00     0.048 C 
HETATM   15  C18 UNL     1     -27.654   2.394  16.972  1.00  0.00     0.048 C 
HETATM   16  N5  UNL     1     -29.510   2.923  17.298  1.00  0.00    -0.342 N 
ATOM     17  H5  UNL     1     -29.576   3.691  17.967  1.00  0.00     0.163 HD
HETATM   18  C19 UNL     1     -30.262   1.668  17.368  1.00  0.00     0.241 C 
HETATM   19  O3  UNL     1     -31.113   1.689  18.331  1.00  0.00    -0.271 OA
ENDROOT
BRANCH   8  20
HETATM   20  C9  UNL     1     -28.016   2.437  12.078  1.00  0.00     0.063 C 
BRANCH  20  21
HETATM   21  C10 UNL     1     -29.202   3.314  12.165  1.00  0.00     0.034 C 
BRANCH  21  22
HETATM   22  C11 UNL     1     -29.869   3.434  10.840  1.00  0.00     0.236 C 
BRANCH  22  23
HETATM   23  N3  UNL     1     -31.187   2.830  10.808  1.00  0.00    -0.079 N 
HETATM   24  C12 UNL     1     -31.157   1.421  10.550  1.00  0.00     0.271 C 
HETATM   25  C13 UNL     1     -31.949   3.467   9.748  1.00  0.00     0.271 C 
HETATM   26  C14 UNL     1     -31.907   3.051  12.050  1.00  0.00     0.271 C 
ENDBRANCH  22  23
ENDBRANCH  21  22
ENDBRANCH  20  21
ENDBRANCH   8  20
BRANCH   7  27
HETATM   27  O1  UNL     1     -26.851   0.076  14.387  1.00  0.00    -0.345 OA
ATOM     28  H1  UNL     1     -26.013   0.500  14.241  1.00  0.00     0.219 HD
ENDBRANCH   7  27
BRANCH   1  29
HETATM   29  C4  UNL     1     -30.313  -0.805  17.298  1.00  0.00     0.038 C 
BRANCH  29  30
HETATM   30  C3  UNL     1     -29.074  -1.087  18.095  1.00  0.00     0.029 C 
BRANCH  30  31
HETATM   31  C2  UNL     1     -29.386  -1.764  19.385  1.00  0.00    -0.037 C 
HETATM   32  C1  UNL     1     -29.498  -3.073  19.404  1.00  0.00     0.007 C 
ENDBRANCH  30  31
ENDBRANCH  29  30
ENDBRANCH   1  29
TORSDOF 8
ENDMDL
MODEL 5
REMARK VINA RESULT: -5.282716883      3.679      8.451
REMARK  8 active torsions:
REMARK  status: ('A' for Active; 'I' for Inactive)
REMARK    1  A    between atoms: C2_2  and  C3_3 
REMARK    2  A    between atoms: C3_3  and  C4_4 
REMARK    3  A    between atoms: C4_4  and  C5_5 
REMARK    4  A    between atoms: C7_11  and  O1_12 
REMARK    5  A    between atoms: C8_14  and  C9_15 
REMARK    6  A    between atoms: C9_15  and  C10_16 
REMARK    7  A    between atoms: C10_16  and  C11_17 
REMARK    8  A    between atoms: C11_17  and  N3_18 
ROOT
HETATM    1  C5  UNL     1     -29.713   0.797  16.217  1.00  0.00     0.174 C 
HETATM    2  N1  UNL     1     -29.869   2.178  16.439  1.00  0.00    -0.373 N 
ATOM      3  H1  UNL     1     -30.531   2.690  15.856  1.00  0.00     0.161 HD
HETATM    4  C6  UNL     1     -29.163   2.882  17.419  1.00  0.00     0.178 C 
HETATM    5  N2  UNL     1     -27.955   2.431  17.968  1.00  0.00    -0.332 N 
ATOM      6  H2  UNL     1     -27.149   2.842  17.498  1.00  0.00     0.168 HD
HETATM    7  C7  UNL     1     -27.568   1.561  18.994  1.00  0.00     0.164 C 
HETATM    8  C8  UNL     1     -27.967   1.238  20.336  1.00  0.00     0.063 C 
HETATM    9  N4  UNL     1     -28.769   0.151  20.699  1.00  0.00    -0.325 N 
ATOM     10  H4  UNL     1     -28.588  -0.112  21.668  1.00  0.00     0.169 HD
HETATM   11  C15 UNL     1     -29.759  -0.701  20.137  1.00  0.00     0.249 C 
HETATM   12  O2  UNL     1     -30.329  -1.633  20.758  1.00  0.00    -0.270 OA
HETATM   13  C16 UNL     1     -30.094  -0.432  18.756  1.00  0.00     0.106 C 
HETATM   14  C17 UNL     1     -31.172   0.346  19.236  1.00  0.00     0.048 C 
HETATM   15  C18 UNL     1     -29.228  -1.471  18.376  1.00  0.00     0.048 C 
HETATM   16  N5  UNL     1     -30.994  -0.900  17.754  1.00  0.00    -0.342 N 
ATOM     17  H5  UNL     1     -31.697  -1.627  17.882  1.00  0.00     0.163 HD
HETATM   18  C19 UNL     1     -30.746  -0.166  16.510  1.00  0.00     0.241 C 
HETATM   19  O3  UNL     1     -31.606  -0.477  15.607  1.00  0.00    -0.271 OA
ENDROOT
BRANCH   8  20
HETATM   20  C9  UNL     1     -28.349   2.563  21.029  1.00  0.00     0.063 C 
BRANCH  20  21
HETATM   21  C10 UNL     1     -28.889   2.430  22.397  1.00  0.00     0.034 C 
BRANCH  21  22
HETATM   22  C11 UNL     1     -27.805   2.557  23.408  1.00  0.00     0.236 C 
BRANCH  22  23
HETATM   23  N3  UNL     1     -27.722   1.416  24.301  1.00  0.00    -0.079 N 
HETATM   24  C12 UNL     1     -26.889   0.365  23.796  1.00  0.00     0.271 C 
HETATM   25  C13 UNL     1     -29.061   0.883  24.478  1.00  0.00     0.271 C 
HETATM   26  C14 UNL     1     -27.230   1.797  25.613  1.00  0.00     0.271 C 
ENDBRANCH  22  23
ENDBRANCH  21  22
ENDBRANCH  20  21
ENDBRANCH   8  20
BRANCH   7  27
HETATM   27  O1  UNL     1     -26.531   0.851  18.574  1.00  0.00    -0.345 OA
ATOM     28  H1  UNL     1     -26.558   0.001  18.998  1.00  0.00     0.219 HD
ENDBRANCH   7  27
BRANCH   1  29
HETATM   29  C4  UNL     1     -29.169   0.678  14.800  1.00  0.00     0.038 C 
BRANCH  29  30
HETATM   30  C3  UNL     1     -27.704   0.358  14.835  1.00  0.00     0.029 C 
BRANCH  30  31
HETATM   31  C2  UNL     1     -26.866   1.560  14.572  1.00  0.00    -0.037 C 
HETATM   32  C1  UNL     1     -25.704   1.670  15.178  1.00  0.00     0.007 C 
ENDBRANCH  30  31
ENDBRANCH  29  30
ENDBRANCH   1  29
TORSDOF 8
ENDMDL
