MODEL 1
REMARK VINA RESULT: -5.454361538      0.000      0.000
REMARK  10 active torsions:
REMARK  status: ('A' for Active; 'I' for Inactive)
REMARK    1  A    between atoms: C2_2  and  C3_3 
REMARK    2  A    between atoms: N3_12  and  C11_14 
REMARK    3  A    between atoms: C11_14  and  C12_15 
REMARK    4  A    between atoms: C12_15  and  N4_16 
REMARK    5  A    between atoms: C13_18  and  O1_19 
REMARK    6  A    between atoms: C13_18  and  C14_21 
REMARK    7  A    between atoms: C14_21  and  N5_22 
REMARK    8  A    between atoms: C14_21  and  C15_26 
REMARK    9  A    between atoms: C15_26  and  C16_27 
REMARK   10  A    between atoms: C16_27  and  N6_28 
ROOT
HETATM    1  C11 UNL     1     -26.734   2.548  18.596  1.00  0.00     0.294 C 
ENDROOT
BRANCH   1   2
HETATM    2  N3  UNL     1     -28.005   2.343  19.148  1.00  0.00     0.122 N 
HETATM    3  N2  UNL     1     -28.192   2.595  20.507  1.00  0.00     0.128 N 
HETATM    4  C6  UNL     1     -28.836   1.405  20.796  1.00  0.00     0.409 A 
HETATM    5  C8  UNL     1     -29.358   3.312  20.917  1.00  0.00     0.280 A 
HETATM    6  C9  UNL     1     -27.062   3.048  21.253  1.00  0.00     0.313 C 
HETATM    7  N1  UNL     1     -28.359   0.328  21.530  1.00  0.00     0.130 N 
HETATM    8  C7  UNL     1     -30.130   2.038  21.200  1.00  0.00     0.110 A 
HETATM    9  C20 UNL     1     -28.678   1.142  19.292  1.00  0.00     0.489 A 
HETATM   10  C4  UNL     1     -29.129  -0.878  21.168  1.00  0.00     0.308 C 
HETATM   11  C5  UNL     1     -28.376   0.416  22.945  1.00  0.00     0.313 C 
HETATM   12  C3  UNL     1     -29.146  -1.068  19.668  1.00  0.00     0.216 C 
HETATM   13  N7  UNL     1     -28.150  -0.154  19.044  1.00  0.00    -0.033 N 
ATOM     14  H72 UNL     1     -27.194  -0.288  19.371  1.00  0.00     0.280 HD
ATOM     15  H71 UNL     1     -27.958  -0.349  18.062  1.00  0.00     0.280 HD
HETATM   16  C10 UNL     1     -28.889   3.313  18.432  1.00  0.00     0.312 C 
BRANCH  12  17
HETATM   17  C2  UNL     1     -28.887  -2.490  19.300  1.00  0.00     0.030 C 
HETATM   18  C1  UNL     1     -29.000  -3.411  20.503  1.00  0.00     0.007 C 
ENDBRANCH  12  17
ENDBRANCH   1   2
BRANCH   1  19
HETATM   19  C12 UNL     1     -26.469   3.358  17.412  1.00  0.00     0.151 C 
BRANCH  19  20
HETATM   20  N4  UNL     1     -25.944   2.670  16.283  1.00  0.00    -0.371 N 
HETATM   21  C13 UNL     1     -24.883   2.135  15.976  1.00  0.00     0.142 C 
ATOM     22  H4  UNL     1     -26.629   2.604  15.531  1.00  0.00     0.161 HD
BRANCH  21  23
HETATM   23  O1  UNL     1     -23.786   2.081  16.805  1.00  0.00    -0.348 OA
ATOM     24  H1  UNL     1     -23.009   1.569  16.618  1.00  0.00     0.219 HD
ENDBRANCH  21  23
BRANCH  21  25
HETATM   25  C14 UNL     1     -24.735   1.492  14.630  1.00  0.00     0.258 C 
BRANCH  25  26
HETATM   26  N5  UNL     1     -23.607   2.116  13.981  1.00  0.00    -0.068 N 
ATOM     27  H53 UNL     1     -22.869   2.383  14.633  1.00  0.00     0.275 HD
ATOM     28  H52 UNL     1     -23.058   1.463  13.421  1.00  0.00     0.275 HD
ATOM     29  H51 UNL     1     -23.966   2.903  13.441  1.00  0.00     0.275 HD
ENDBRANCH  25  26
BRANCH  25  30
HETATM   30  C15 UNL     1     -26.014   1.688  13.831  1.00  0.00     0.069 C 
BRANCH  30  31
HETATM   31  C16 UNL     1     -26.935   0.541  13.814  1.00  0.00     0.238 C 
BRANCH  31  32
HETATM   32  N6  UNL     1     -28.312   0.754  14.070  1.00  0.00    -0.079 N 
HETATM   33  C17 UNL     1     -28.618   0.608  15.505  1.00  0.00     0.271 C 
HETATM   34  C18 UNL     1     -28.601   2.174  13.801  1.00  0.00     0.271 C 
HETATM   35  C19 UNL     1     -29.242  -0.019  13.331  1.00  0.00     0.271 C 
ENDBRANCH  31  32
ENDBRANCH  30  31
ENDBRANCH  25  30
ENDBRANCH  21  25
ENDBRANCH  19  20
ENDBRANCH   1  19
TORSDOF 10
ENDMDL
MODEL 2
REMARK VINA RESULT: -5.429086305      0.840      1.138
REMARK  10 active torsions:
REMARK  status: ('A' for Active; 'I' for Inactive)
REMARK    1  A    between atoms: C2_2  and  C3_3 
REMARK    2  A    between atoms: N3_12  and  C11_14 
REMARK    3  A    between atoms: C11_14  and  C12_15 
REMARK    4  A    between atoms: C12_15  and  N4_16 
REMARK    5  A    between atoms: C13_18  and  O1_19 
REMARK    6  A    between atoms: C13_18  and  C14_21 
REMARK    7  A    between atoms: C14_21  and  N5_22 
REMARK    8  A    between atoms: C14_21  and  C15_26 
REMARK    9  A    between atoms: C15_26  and  C16_27 
REMARK   10  A    between atoms: C16_27  and  N6_28 
ROOT
HETATM    1  C11 UNL     1     -26.869   3.583  18.768  1.00  0.00     0.294 C 
ENDROOT
BRANCH   1   2
HETATM    2  N3  UNL     1     -27.970   3.152  19.520  1.00  0.00     0.122 N 
HETATM    3  N2  UNL     1     -27.850   3.097  20.909  1.00  0.00     0.128 N 
HETATM    4  C6  UNL     1     -28.360   1.819  21.056  1.00  0.00     0.409 A 
HETATM    5  C8  UNL     1     -28.920   3.603  21.709  1.00  0.00     0.280 A 
HETATM    6  C9  UNL     1     -26.600   3.486  21.478  1.00  0.00     0.313 C 
HETATM    7  N1  UNL     1     -27.682   0.661  21.411  1.00  0.00     0.130 N 
HETATM    8  C7  UNL     1     -29.553   2.233  21.859  1.00  0.00     0.110 A 
HETATM    9  C20 UNL     1     -28.540   1.891  19.533  1.00  0.00     0.489 A 
HETATM   10  C4  UNL     1     -28.463  -0.509  20.961  1.00  0.00     0.308 C 
HETATM   11  C5  UNL     1     -27.378   0.450  22.779  1.00  0.00     0.313 C 
HETATM   12  C3  UNL     1     -28.816  -0.382  19.497  1.00  0.00     0.216 C 
HETATM   13  N7  UNL     1     -28.029   0.729  18.895  1.00  0.00    -0.033 N 
ATOM     14  H72 UNL     1     -27.018   0.617  18.970  1.00  0.00     0.280 HD
ATOM     15  H71 UNL     1     -28.060   0.761  17.876  1.00  0.00     0.280 HD
HETATM   16  C10 UNL     1     -29.034   4.165  19.246  1.00  0.00     0.312 C 
BRANCH  12  17
HETATM   17  C2  UNL     1     -28.588  -1.667  18.774  1.00  0.00     0.030 C 
HETATM   18  C1  UNL     1     -28.974  -2.866  19.623  1.00  0.00     0.007 C 
ENDBRANCH  12  17
ENDBRANCH   1   2
BRANCH   1  19
HETATM   19  C12 UNL     1     -26.927   3.957  17.359  1.00  0.00     0.151 C 
BRANCH  19  20
HETATM   20  N4  UNL     1     -26.243   3.100  16.453  1.00  0.00    -0.371 N 
HETATM   21  C13 UNL     1     -25.624   2.043  16.516  1.00  0.00     0.142 C 
ATOM     22  H4  UNL     1     -26.275   3.460  15.499  1.00  0.00     0.161 HD
BRANCH  21  23
HETATM   23  O1  UNL     1     -25.426   1.342  17.683  1.00  0.00    -0.348 OA
ATOM     24  H1  UNL     1     -26.100   0.827  18.110  1.00  0.00     0.219 HD
ENDBRANCH  21  23
BRANCH  21  25
HETATM   25  C14 UNL     1     -25.036   1.448  15.273  1.00  0.00     0.258 C 
BRANCH  25  26
HETATM   26  N5  UNL     1     -23.782   2.120  15.030  1.00  0.00    -0.068 N 
ATOM     27  H53 UNL     1     -22.972   1.569  15.317  1.00  0.00     0.275 HD
ATOM     28  H52 UNL     1     -23.551   2.188  14.039  1.00  0.00     0.275 HD
ATOM     29  H51 UNL     1     -23.831   3.027  15.493  1.00  0.00     0.275 HD
ENDBRANCH  25  26
BRANCH  25  30
HETATM   30  C15 UNL     1     -26.002   1.639  14.113  1.00  0.00     0.069 C 
BRANCH  30  31
HETATM   31  C16 UNL     1     -27.015   0.584  13.949  1.00  0.00     0.238 C 
BRANCH  31  32
HETATM   32  N6  UNL     1     -28.378   0.893  14.178  1.00  0.00    -0.079 N 
HETATM   33  C17 UNL     1     -28.681   2.287  13.805  1.00  0.00     0.271 C 
HETATM   34  C18 UNL     1     -29.179   0.102  13.226  1.00  0.00     0.271 C 
HETATM   35  C19 UNL     1     -28.894   0.652  15.476  1.00  0.00     0.271 C 
ENDBRANCH  31  32
ENDBRANCH  30  31
ENDBRANCH  25  30
ENDBRANCH  21  25
ENDBRANCH  19  20
ENDBRANCH   1  19
TORSDOF 10
ENDMDL
MODEL 3
REMARK VINA RESULT: -5.210965905      2.597      4.713
REMARK  10 active torsions:
REMARK  status: ('A' for Active; 'I' for Inactive)
REMARK    1  A    between atoms: C2_2  and  C3_3 
REMARK    2  A    between atoms: N3_12  and  C11_14 
REMARK    3  A    between atoms: C11_14  and  C12_15 
REMARK    4  A    between atoms: C12_15  and  N4_16 
REMARK    5  A    between atoms: C13_18  and  O1_19 
REMARK    6  A    between atoms: C13_18  and  C14_21 
REMARK    7  A    between atoms: C14_21  and  N5_22 
REMARK    8  A    between atoms: C14_21  and  C15_26 
REMARK    9  A    between atoms: C15_26  and  C16_27 
REMARK   10  A    between atoms: C16_27  and  N6_28 
ROOT
HETATM    1  C11 UNL     1     -29.510   1.371  13.940  1.00  0.00     0.294 C 
ENDROOT
BRANCH   1   2
HETATM    2  N3  UNL     1     -30.540   0.645  14.552  1.00  0.00     0.122 N 
HETATM    3  N2  UNL     1     -31.626   1.342  15.083  1.00  0.00     0.128 N 
HETATM    4  C6  UNL     1     -31.632   0.703  16.311  1.00  0.00     0.409 A 
HETATM    5  C8  UNL     1     -32.943   0.850  14.834  1.00  0.00     0.280 A 
HETATM    6  C9  UNL     1     -31.614   2.765  14.967  1.00  0.00     0.313 C 
HETATM    7  N1  UNL     1     -31.280   1.223  17.549  1.00  0.00     0.130 N 
HETATM    8  C7  UNL     1     -32.985   0.087  16.143  1.00  0.00     0.110 A 
HETATM    9  C20 UNL     1     -30.468  -0.101  15.716  1.00  0.00     0.489 A 
HETATM   10  C4  UNL     1     -30.949   0.108  18.459  1.00  0.00     0.308 C 
HETATM   11  C5  UNL     1     -32.217   2.042  18.227  1.00  0.00     0.313 C 
HETATM   12  C3  UNL     1     -29.931  -0.812  17.825  1.00  0.00     0.216 C 
HETATM   13  N7  UNL     1     -29.367  -0.161  16.611  1.00  0.00    -0.033 N 
ATOM     14  H72 UNL     1     -28.917   0.737  16.787  1.00  0.00     0.280 HD
ATOM     15  H71 UNL     1     -28.541  -0.624  16.232  1.00  0.00     0.280 HD
HETATM   16  C10 UNL     1     -31.102  -0.208  13.461  1.00  0.00     0.312 C 
BRANCH  12  17
HETATM   17  C2  UNL     1     -28.860  -1.182  18.795  1.00  0.00     0.030 C 
HETATM   18  C1  UNL     1     -28.931  -2.650  19.179  1.00  0.00     0.007 C 
ENDBRANCH  12  17
ENDBRANCH   1   2
BRANCH   1  19
HETATM   19  C12 UNL     1     -28.388   0.772  13.226  1.00  0.00     0.151 C 
BRANCH  19  20
HETATM   20  N4  UNL     1     -27.090   1.095  13.710  1.00  0.00    -0.371 N 
HETATM   21  C13 UNL     1     -26.073   1.613  13.261  1.00  0.00     0.142 C 
ATOM     22  H4  UNL     1     -26.975   0.826  14.686  1.00  0.00     0.161 HD
BRANCH  21  23
HETATM   23  O1  UNL     1     -25.952   2.067  11.968  1.00  0.00    -0.348 OA
ATOM     24  H1  UNL     1     -25.165   2.470  11.621  1.00  0.00     0.219 HD
ENDBRANCH  21  23
BRANCH  21  25
HETATM   25  C14 UNL     1     -24.870   1.777  14.140  1.00  0.00     0.258 C 
BRANCH  25  26
HETATM   26  N5  UNL     1     -23.824   0.947  13.594  1.00  0.00    -0.068 N 
ATOM     27  H53 UNL     1     -22.900   1.375  13.660  1.00  0.00     0.275 HD
ATOM     28  H52 UNL     1     -23.630   0.124  14.164  1.00  0.00     0.275 HD
ATOM     29  H51 UNL     1     -24.091   0.717  12.637  1.00  0.00     0.275 HD
ENDBRANCH  25  26
BRANCH  25  30
HETATM   30  C15 UNL     1     -25.222   1.366  15.562  1.00  0.00     0.069 C 
BRANCH  30  31
HETATM   31  C16 UNL     1     -25.041   2.404  16.588  1.00  0.00     0.238 C 
BRANCH  31  32
HETATM   32  N6  UNL     1     -26.173   2.894  17.284  1.00  0.00    -0.079 N 
HETATM   33  C17 UNL     1     -25.825   4.058  18.120  1.00  0.00     0.271 C 
HETATM   34  C18 UNL     1     -27.102   3.454  16.286  1.00  0.00     0.271 C 
HETATM   35  C19 UNL     1     -26.901   1.973  18.078  1.00  0.00     0.271 C 
ENDBRANCH  31  32
ENDBRANCH  30  31
ENDBRANCH  25  30
ENDBRANCH  21  25
ENDBRANCH  19  20
ENDBRANCH   1  19
TORSDOF 10
ENDMDL
MODEL 4
REMARK VINA RESULT: -5.181332535      2.339      3.924
REMARK  10 active torsions:
REMARK  status: ('A' for Active; 'I' for Inactive)
REMARK    1  A    between atoms: C2_2  and  C3_3 
REMARK    2  A    between atoms: N3_12  and  C11_14 
REMARK    3  A    between atoms: C11_14  and  C12_15 
REMARK    4  A    between atoms: C12_15  and  N4_16 
REMARK    5  A    between atoms: C13_18  and  O1_19 
REMARK    6  A    between atoms: C13_18  and  C14_21 
REMARK    7  A    between atoms: C14_21  and  N5_22 
REMARK    8  A    between atoms: C14_21  and  C15_26 
REMARK    9  A    between atoms: C15_26  and  C16_27 
REMARK   10  A    between atoms: C16_27  and  N6_28 
ROOT
HETATM    1  C11 UNL     1     -27.141   1.347  16.580  1.00  0.00     0.294 C 
ENDROOT
BRANCH   1   2
HETATM    2  N3  UNL     1     -28.325   1.372  17.328  1.00  0.00     0.122 N 
HETATM    3  N2  UNL     1     -28.348   2.100  18.518  1.00  0.00     0.128 N 
HETATM    4  C6  UNL     1     -28.910   1.103  19.296  1.00  0.00     0.409 A 
HETATM    5  C8  UNL     1     -29.477   2.932  18.790  1.00  0.00     0.280 A 
HETATM    6  C9  UNL     1     -27.150   2.776  18.899  1.00  0.00     0.313 C 
HETATM    7  N1  UNL     1     -28.308   0.357  20.300  1.00  0.00     0.130 N 
HETATM    8  C7  UNL     1     -30.164   1.856  19.609  1.00  0.00     0.110 A 
HETATM    9  C20 UNL     1     -28.933   0.313  17.980  1.00  0.00     0.489 A 
HETATM   10  C4  UNL     1     -29.076  -0.888  20.498  1.00  0.00     0.308 C 
HETATM   11  C5  UNL     1     -28.150   0.950  21.578  1.00  0.00     0.313 C 
HETATM   12  C3  UNL     1     -29.274  -1.606  19.183  1.00  0.00     0.216 C 
HETATM   13  N7  UNL     1     -28.396  -0.992  18.149  1.00  0.00    -0.033 N 
ATOM     14  H72 UNL     1     -27.402  -1.013  18.376  1.00  0.00     0.280 HD
ATOM     15  H71 UNL     1     -28.323  -1.531  17.287  1.00  0.00     0.280 HD
HETATM   16  C10 UNL     1     -29.324   2.030  16.432  1.00  0.00     0.312 C 
BRANCH  12  17
HETATM   17  C2  UNL     1     -29.015  -3.068  19.321  1.00  0.00     0.030 C 
HETATM   18  C1  UNL     1     -29.106  -3.521  20.767  1.00  0.00     0.007 C 
ENDBRANCH  12  17
ENDBRANCH   1   2
BRANCH   1  19
HETATM   19  C12 UNL     1     -26.855   2.232  15.456  1.00  0.00     0.151 C 
BRANCH  19  20
HETATM   20  N4  UNL     1     -25.538   2.169  14.924  1.00  0.00    -0.371 N 
HETATM   21  C13 UNL     1     -24.981   1.622  13.978  1.00  0.00     0.142 C 
ATOM     22  H4  UNL     1     -24.883   2.724  15.475  1.00  0.00     0.161 HD
BRANCH  21  23
HETATM   23  O1  UNL     1     -25.628   0.812  13.075  1.00  0.00    -0.348 OA
ATOM     24  H1  UNL     1     -26.482   1.007  12.707  1.00  0.00     0.219 HD
ENDBRANCH  21  23
BRANCH  21  25
HETATM   25  C14 UNL     1     -23.512   1.825  13.759  1.00  0.00     0.258 C 
BRANCH  25  26
HETATM   26  N5  UNL     1     -23.011   0.643  13.100  1.00  0.00    -0.068 N 
ATOM     27  H53 UNL     1     -23.152   0.659  12.090  1.00  0.00     0.275 HD
ATOM     28  H52 UNL     1     -21.992   0.593  13.091  1.00  0.00     0.275 HD
ATOM     29  H51 UNL     1     -23.447  -0.162  13.552  1.00  0.00     0.275 HD
ENDBRANCH  25  26
BRANCH  25  30
HETATM   30  C15 UNL     1     -22.826   2.048  15.099  1.00  0.00     0.069 C 
BRANCH  30  31
HETATM   31  C16 UNL     1     -21.998   0.932  15.583  1.00  0.00     0.238 C 
BRANCH  31  32
HETATM   32  N6  UNL     1     -20.612   1.138  15.789  1.00  0.00    -0.079 N 
HETATM   33  C17 UNL     1     -19.857   0.996  14.531  1.00  0.00     0.271 C 
HETATM   34  C18 UNL     1     -20.420   2.555  16.147  1.00  0.00     0.271 C 
HETATM   35  C19 UNL     1     -19.976   0.355  16.785  1.00  0.00     0.271 C 
ENDBRANCH  31  32
ENDBRANCH  30  31
ENDBRANCH  25  30
ENDBRANCH  21  25
ENDBRANCH  19  20
ENDBRANCH   1  19
TORSDOF 10
ENDMDL
MODEL 5
REMARK VINA RESULT: -5.163579280      2.546      3.938
REMARK  10 active torsions:
REMARK  status: ('A' for Active; 'I' for Inactive)
REMARK    1  A    between atoms: C2_2  and  C3_3 
REMARK    2  A    between atoms: N3_12  and  C11_14 
REMARK    3  A    between atoms: C11_14  and  C12_15 
REMARK    4  A    between atoms: C12_15  and  N4_16 
REMARK    5  A    between atoms: C13_18  and  O1_19 
REMARK    6  A    between atoms: C13_18  and  C14_21 
REMARK    7  A    between atoms: C14_21  and  N5_22 
REMARK    8  A    between atoms: C14_21  and  C15_26 
REMARK    9  A    between atoms: C15_26  and  C16_27 
REMARK   10  A    between atoms: C16_27  and  N6_28 
ROOT
HETATM    1  C11 UNL     1     -26.763   1.030  17.803  1.00  0.00     0.294 C 
ENDROOT
BRANCH   1   2
HETATM    2  N3  UNL     1     -28.106   1.382  17.991  1.00  0.00     0.122 N 
HETATM    3  N2  UNL     1     -28.846   0.702  18.959  1.00  0.00     0.128 N 
HETATM    4  C6  UNL     1     -29.939   0.432  18.154  1.00  0.00     0.409 A 
HETATM    5  C8  UNL     1     -29.689   1.456  19.831  1.00  0.00     0.280 A 
HETATM    6  C9  UNL     1     -28.178  -0.319  19.700  1.00  0.00     0.313 C 
HETATM    7  N1  UNL     1     -30.345  -0.793  17.643  1.00  0.00     0.130 N 
HETATM    8  C7  UNL     1     -30.910   1.237  18.959  1.00  0.00     0.110 A 
HETATM    9  C20 UNL     1     -29.152   1.221  17.099  1.00  0.00     0.489 A 
HETATM   10  C4  UNL     1     -31.211  -0.559  16.470  1.00  0.00     0.308 C 
HETATM   11  C5  UNL     1     -31.042  -1.683  18.497  1.00  0.00     0.313 C 
HETATM   12  C3  UNL     1     -30.535   0.367  15.485  1.00  0.00     0.216 C 
HETATM   13  N7  UNL     1     -29.103   0.525  15.860  1.00  0.00    -0.033 N 
ATOM     14  H72 UNL     1     -28.577  -0.348  15.888  1.00  0.00     0.280 HD
ATOM     15  H71 UNL     1     -28.529   0.975  15.148  1.00  0.00     0.280 HD
HETATM   16  C10 UNL     1     -28.065   2.807  18.440  1.00  0.00     0.312 C 
BRANCH  12  17
HETATM   17  C2  UNL     1     -30.681  -0.131  14.087  1.00  0.00     0.030 C 
HETATM   18  C1  UNL     1     -29.354  -0.133  13.349  1.00  0.00     0.007 C 
ENDBRANCH  12  17
ENDBRANCH   1   2
BRANCH   1  19
HETATM   19  C12 UNL     1     -25.803   1.817  17.037  1.00  0.00     0.151 C 
BRANCH  19  20
HETATM   20  N4  UNL     1     -25.833   1.644  15.625  1.00  0.00    -0.371 N 
HETATM   21  C13 UNL     1     -26.238   2.277  14.656  1.00  0.00     0.142 C 
ATOM     22  H4  UNL     1     -25.405   0.762  15.346  1.00  0.00     0.161 HD
BRANCH  21  23
HETATM   23  O1  UNL     1     -26.860   3.501  14.747  1.00  0.00    -0.348 OA
ATOM     24  H1  UNL     1     -27.725   3.680  14.399  1.00  0.00     0.219 HD
ENDBRANCH  21  23
BRANCH  21  25
HETATM   25  C14 UNL     1     -26.065   1.718  13.276  1.00  0.00     0.258 C 
BRANCH  25  26
HETATM   26  N5  UNL     1     -24.673   1.870  12.925  1.00  0.00    -0.068 N 
ATOM     27  H53 UNL     1     -24.257   2.722  13.302  1.00  0.00     0.275 HD
ATOM     28  H52 UNL     1     -24.066   1.204  13.403  1.00  0.00     0.275 HD
ATOM     29  H51 UNL     1     -24.610   1.810  11.909  1.00  0.00     0.275 HD
ENDBRANCH  25  26
BRANCH  25  30
HETATM   30  C15 UNL     1     -26.968   2.469  12.308  1.00  0.00     0.069 C 
BRANCH  30  31
HETATM   31  C16 UNL     1     -26.352   2.846  11.026  1.00  0.00     0.238 C 
BRANCH  31  32
HETATM   32  N6  UNL     1     -27.184   3.188   9.933  1.00  0.00    -0.079 N 
HETATM   33  C17 UNL     1     -27.275   4.651   9.767  1.00  0.00     0.271 C 
HETATM   34  C18 UNL     1     -26.506   2.745   8.701  1.00  0.00     0.271 C 
HETATM   35  C19 UNL     1     -28.495   2.652   9.917  1.00  0.00     0.271 C 
ENDBRANCH  31  32
ENDBRANCH  30  31
ENDBRANCH  25  30
ENDBRANCH  21  25
ENDBRANCH  19  20
ENDBRANCH   1  19
TORSDOF 10
ENDMDL
