MODEL 1
REMARK VINA RESULT: -6.130955636      0.000      0.000
REMARK  8 active torsions:
REMARK  status: ('A' for Active; 'I' for Inactive)
REMARK    1  A    between atoms: C2_2  and  N1_3 
REMARK    2  A    between atoms: N2_12  and  C11_13 
REMARK    3  A    between atoms: C11_13  and  C12_14 
REMARK    4  A    between atoms: C12_14  and  O1_15 
REMARK    5  A    between atoms: C12_14  and  C13_17 
REMARK    6  A    between atoms: C13_17  and  C14_18 
REMARK    7  A    between atoms: C14_18  and  C15_19 
REMARK    8  A    between atoms: C15_19  and  C16_20 
ROOT
HETATM    1  C12 UNL     1     -31.183  -1.020  16.957  1.00  0.00     0.136 C 
ENDROOT
BRANCH   1   2
HETATM    2  C11 UNL     1     -30.361   0.230  17.013  1.00  0.00     0.160 C 
BRANCH   2   3
HETATM    3  N2  UNL     1     -29.434   0.355  15.903  1.00  0.00    -0.353 N 
HETATM    4  C6  UNL     1     -28.170   0.795  16.020  1.00  0.00     0.061 A 
HETATM    5  C5  UNL     1     -27.717   1.101  17.275  1.00  0.00     0.033 A 
HETATM    6  C7  UNL     1     -27.308   0.942  14.946  1.00  0.00     0.061 A 
HETATM    7  C4  UNL     1     -26.399   1.547  17.395  1.00  0.00     0.020 A 
HETATM    8  C3  UNL     1     -25.596   1.674  16.307  1.00  0.00     0.091 A 
HETATM    9  N1  UNL     1     -26.036   1.373  15.052  1.00  0.00    -0.355 N 
HETATM   10  C8  UNL     1     -27.762   0.622  13.700  1.00  0.00     0.033 A 
HETATM   11  C9  UNL     1     -29.053   0.166  13.542  1.00  0.00     0.020 A 
HETATM   12  C10 UNL     1     -29.861   0.042  14.645  1.00  0.00     0.091 A 
BRANCH   9  13
HETATM   13  C2  UNL     1     -25.137   1.539  13.926  1.00  0.00     0.124 C 
HETATM   14  C1  UNL     1     -23.681   1.630  14.380  1.00  0.00     0.027 C 
ENDBRANCH   9  13
ENDBRANCH   2   3
ENDBRANCH   1   2
BRANCH   1  15
HETATM   15  O1  UNL     1     -32.533  -0.827  16.735  1.00  0.00    -0.394 OA
ATOM     16  H1  UNL     1     -33.042  -0.603  17.506  1.00  0.00     0.210 HD
ENDBRANCH   1  15
BRANCH   1  17
HETATM   17  C13 UNL     1     -30.940  -1.823  18.214  1.00  0.00     0.036 C 
BRANCH  17  18
HETATM   18  C14 UNL     1     -29.516  -1.913  18.617  1.00  0.00     0.039 C 
BRANCH  18  19
HETATM   19  C15 UNL     1     -29.309  -1.774  20.110  1.00  0.00     0.065 C 
HETATM   20  C18 UNL     1     -30.621  -1.351  20.709  1.00  0.00     0.056 C 
HETATM   21  C19 UNL     1     -30.739   0.126  20.918  1.00  0.00     0.125 C 
HETATM   22  N4  UNL     1     -29.619   0.695  21.615  1.00  0.00    -0.367 N 
HETATM   23  C20 UNL     1     -28.313   0.285  21.203  1.00  0.00     0.168 C 
ATOM     24  H4  UNL     1     -29.750   1.365  22.373  1.00  0.00     0.161 HD
HETATM   25  S1  UNL     1     -26.972   1.143  21.569  1.00  0.00    -0.041 SA
HETATM   26  N5  UNL     1     -28.219  -0.918  20.450  1.00  0.00    -0.353 N 
ATOM     27  H5  UNL     1     -27.292  -1.193  20.124  1.00  0.00     0.163 HD
BRANCH  19  28
HETATM   28  C16 UNL     1     -29.001  -3.135  20.630  1.00  0.00     0.086 C 
HETATM   29  N3  UNL     1     -29.959  -3.884  21.001  1.00  0.00    -0.404 N 
HETATM   30  C17 UNL     1     -29.763  -5.204  21.513  1.00  0.00     0.145 C 
ATOM     31  H3  UNL     1     -30.912  -3.526  20.931  1.00  0.00     0.158 HD
ENDBRANCH  19  28
ENDBRANCH  18  19
ENDBRANCH  17  18
ENDBRANCH   1  17
TORSDOF 8
ENDMDL
MODEL 2
REMARK VINA RESULT: -6.004451461      1.676      2.719
REMARK  8 active torsions:
REMARK  status: ('A' for Active; 'I' for Inactive)
REMARK    1  A    between atoms: C2_2  and  N1_3 
REMARK    2  A    between atoms: N2_12  and  C11_13 
REMARK    3  A    between atoms: C11_13  and  C12_14 
REMARK    4  A    between atoms: C12_14  and  O1_15 
REMARK    5  A    between atoms: C12_14  and  C13_17 
REMARK    6  A    between atoms: C13_17  and  C14_18 
REMARK    7  A    between atoms: C14_18  and  C15_19 
REMARK    8  A    between atoms: C15_19  and  C16_20 
ROOT
HETATM    1  C12 UNL     1     -31.090  -0.814  16.607  1.00  0.00     0.136 C 
ENDROOT
BRANCH   1   2
HETATM    2  C11 UNL     1     -30.392   0.510  16.578  1.00  0.00     0.160 C 
BRANCH   2   3
HETATM    3  N2  UNL     1     -29.279   0.551  15.647  1.00  0.00    -0.353 N 
HETATM    4  C6  UNL     1     -28.036   0.941  15.972  1.00  0.00     0.061 A 
HETATM    5  C5  UNL     1     -27.796   1.280  17.276  1.00  0.00     0.033 A 
HETATM    6  C7  UNL     1     -26.992   1.008  15.064  1.00  0.00     0.061 A 
HETATM    7  C4  UNL     1     -26.500   1.675  17.614  1.00  0.00     0.020 A 
HETATM    8  C3  UNL     1     -25.513   1.723  16.683  1.00  0.00     0.091 A 
HETATM    9  N1  UNL     1     -25.740   1.389  15.380  1.00  0.00    -0.355 N 
HETATM   10  C8  UNL     1     -27.235   0.656  13.769  1.00  0.00     0.033 A 
HETATM   11  C9  UNL     1     -28.498   0.249  13.399  1.00  0.00     0.020 A 
HETATM   12  C10 UNL     1     -29.493   0.204  14.344  1.00  0.00     0.091 A 
BRANCH   9  13
HETATM   13  C2  UNL     1     -24.649   1.470  14.427  1.00  0.00     0.124 C 
HETATM   14  C1  UNL     1     -23.310   1.705  15.125  1.00  0.00     0.027 C 
ENDBRANCH   9  13
ENDBRANCH   2   3
ENDBRANCH   1   2
BRANCH   1  15
HETATM   15  O1  UNL     1     -32.307  -0.852  15.953  1.00  0.00    -0.394 OA
ATOM     16  H1  UNL     1     -33.025  -1.215  16.458  1.00  0.00     0.210 HD
ENDBRANCH   1  15
BRANCH   1  17
HETATM   17  C13 UNL     1     -31.219  -1.268  18.042  1.00  0.00     0.036 C 
BRANCH  17  18
HETATM   18  C14 UNL     1     -30.665  -0.319  19.037  1.00  0.00     0.039 C 
BRANCH  18  19
HETATM   19  C15 UNL     1     -29.996  -1.006  20.208  1.00  0.00     0.065 C 
HETATM   20  C18 UNL     1     -28.719  -1.617  19.703  1.00  0.00     0.056 C 
HETATM   21  C19 UNL     1     -28.844  -3.065  19.347  1.00  0.00     0.125 C 
HETATM   22  N4  UNL     1     -29.449  -3.857  20.380  1.00  0.00    -0.367 N 
HETATM   23  C20 UNL     1     -30.616  -3.328  21.014  1.00  0.00     0.168 C 
ATOM     24  H4  UNL     1     -29.061  -4.761  20.652  1.00  0.00     0.161 HD
HETATM   25  S1  UNL     1     -31.651  -4.266  21.861  1.00  0.00    -0.041 SA
HETATM   26  N5  UNL     1     -30.849  -1.932  20.881  1.00  0.00    -0.353 N 
ATOM     27  H5  UNL     1     -31.701  -1.559  21.302  1.00  0.00     0.163 HD
BRANCH  19  28
HETATM   28  C16 UNL     1     -29.625   0.062  21.179  1.00  0.00     0.086 C 
HETATM   29  N3  UNL     1     -28.595  -0.098  21.907  1.00  0.00    -0.404 N 
HETATM   30  C17 UNL     1     -28.160   0.869  22.864  1.00  0.00     0.145 C 
ATOM     31  H3  UNL     1     -28.054  -0.957  21.802  1.00  0.00     0.158 HD
ENDBRANCH  19  28
ENDBRANCH  18  19
ENDBRANCH  17  18
ENDBRANCH   1  17
TORSDOF 8
ENDMDL
MODEL 3
REMARK VINA RESULT: -5.971713760      1.565      2.451
REMARK  8 active torsions:
REMARK  status: ('A' for Active; 'I' for Inactive)
REMARK    1  A    between atoms: C2_2  and  N1_3 
REMARK    2  A    between atoms: N2_12  and  C11_13 
REMARK    3  A    between atoms: C11_13  and  C12_14 
REMARK    4  A    between atoms: C12_14  and  O1_15 
REMARK    5  A    between atoms: C12_14  and  C13_17 
REMARK    6  A    between atoms: C13_17  and  C14_18 
REMARK    7  A    between atoms: C14_18  and  C15_19 
REMARK    8  A    between atoms: C15_19  and  C16_20 
ROOT
HETATM    1  C12 UNL     1     -31.032  -0.734  16.566  1.00  0.00     0.136 C 
ENDROOT
BRANCH   1   2
HETATM    2  C11 UNL     1     -30.185   0.495  16.685  1.00  0.00     0.160 C 
BRANCH   2   3
HETATM    3  N2  UNL     1     -29.148   0.576  15.674  1.00  0.00    -0.353 N 
HETATM    4  C6  UNL     1     -27.887   0.971  15.915  1.00  0.00     0.061 A 
HETATM    5  C5  UNL     1     -27.551   1.274  17.207  1.00  0.00     0.033 A 
HETATM    6  C7  UNL     1     -26.916   1.076  14.933  1.00  0.00     0.061 A 
HETATM    7  C4  UNL     1     -26.237   1.674  17.457  1.00  0.00     0.020 A 
HETATM    8  C3  UNL     1     -25.325   1.761  16.455  1.00  0.00     0.091 A 
HETATM    9  N1  UNL     1     -25.647   1.462  15.164  1.00  0.00    -0.355 N 
HETATM   10  C8  UNL     1     -27.254   0.759  13.650  1.00  0.00     0.033 A 
HETATM   11  C9  UNL     1     -28.537   0.348  13.365  1.00  0.00     0.020 A 
HETATM   12  C10 UNL     1     -29.457   0.264  14.381  1.00  0.00     0.091 A 
BRANCH   9  13
HETATM   13  C2  UNL     1     -24.633   1.584  14.134  1.00  0.00     0.124 C 
HETATM   14  C1  UNL     1     -23.227   1.627  14.732  1.00  0.00     0.027 C 
ENDBRANCH   9  13
ENDBRANCH   2   3
ENDBRANCH   1   2
BRANCH   1  15
HETATM   15  O1  UNL     1     -32.350  -0.510  16.217  1.00  0.00    -0.394 OA
ATOM     16  H1  UNL     1     -32.907  -1.279  16.227  1.00  0.00     0.210 HD
ENDBRANCH   1  15
BRANCH   1  17
HETATM   17  C13 UNL     1     -30.927  -1.527  17.849  1.00  0.00     0.036 C 
BRANCH  17  18
HETATM   18  C14 UNL     1     -29.600  -1.456  18.506  1.00  0.00     0.039 C 
BRANCH  18  19
HETATM   19  C15 UNL     1     -29.685  -1.404  20.017  1.00  0.00     0.065 C 
HETATM   20  C18 UNL     1     -29.434  -2.795  20.529  1.00  0.00     0.056 C 
HETATM   21  C19 UNL     1     -30.685  -3.566  20.813  1.00  0.00     0.125 C 
HETATM   22  N4  UNL     1     -31.624  -2.851  21.630  1.00  0.00    -0.367 N 
HETATM   23  C20 UNL     1     -31.867  -1.479  21.304  1.00  0.00     0.168 C 
ATOM     24  H4  UNL     1     -32.099  -3.301  22.413  1.00  0.00     0.161 HD
HETATM   25  S1  UNL     1     -33.190  -0.678  21.827  1.00  0.00    -0.041 SA
HETATM   26  N5  UNL     1     -30.899  -0.825  20.493  1.00  0.00    -0.353 N 
ATOM     27  H5  UNL     1     -31.089   0.142  20.229  1.00  0.00     0.163 HD
BRANCH  19  28
HETATM   28  C16 UNL     1     -28.557  -0.549  20.481  1.00  0.00     0.086 C 
HETATM   29  N3  UNL     1     -28.336  -0.445  21.729  1.00  0.00    -0.404 N 
HETATM   30  C17 UNL     1     -27.279   0.351  22.269  1.00  0.00     0.145 C 
ATOM     31  H3  UNL     1     -28.941  -0.953  22.374  1.00  0.00     0.158 HD
ENDBRANCH  19  28
ENDBRANCH  18  19
ENDBRANCH  17  18
ENDBRANCH   1  17
TORSDOF 8
ENDMDL
MODEL 4
REMARK VINA RESULT: -5.943540302      2.364      7.443
REMARK  8 active torsions:
REMARK  status: ('A' for Active; 'I' for Inactive)
REMARK    1  A    between atoms: C2_2  and  N1_3 
REMARK    2  A    between atoms: N2_12  and  C11_13 
REMARK    3  A    between atoms: C11_13  and  C12_14 
REMARK    4  A    between atoms: C12_14  and  O1_15 
REMARK    5  A    between atoms: C12_14  and  C13_17 
REMARK    6  A    between atoms: C13_17  and  C14_18 
REMARK    7  A    between atoms: C14_18  and  C15_19 
REMARK    8  A    between atoms: C15_19  and  C16_20 
ROOT
HETATM    1  C12 UNL     1     -29.464   0.576  16.368  1.00  0.00     0.136 C 
ENDROOT
BRANCH   1   2
HETATM    2  C11 UNL     1     -28.945   0.473  17.769  1.00  0.00     0.160 C 
BRANCH   2   3
HETATM    3  N2  UNL     1     -29.968   0.113  18.733  1.00  0.00    -0.353 N 
HETATM    4  C6  UNL     1     -30.006  -1.055  19.394  1.00  0.00     0.061 A 
HETATM    5  C5  UNL     1     -28.989  -1.944  19.174  1.00  0.00     0.033 A 
HETATM    6  C7  UNL     1     -31.008  -1.399  20.287  1.00  0.00     0.061 A 
HETATM    7  C4  UNL     1     -29.025  -3.154  19.870  1.00  0.00     0.020 A 
HETATM    8  C3  UNL     1     -30.033  -3.439  20.734  1.00  0.00     0.091 A 
HETATM    9  N1  UNL     1     -31.052  -2.562  20.962  1.00  0.00    -0.355 N 
HETATM   10  C8  UNL     1     -32.011  -0.502  20.512  1.00  0.00     0.033 A 
HETATM   11  C9  UNL     1     -32.005   0.708  19.853  1.00  0.00     0.020 A 
HETATM   12  C10 UNL     1     -30.984   0.991  18.978  1.00  0.00     0.091 A 
BRANCH   9  13
HETATM   13  C2  UNL     1     -32.108  -2.927  21.888  1.00  0.00     0.124 C 
HETATM   14  C1  UNL     1     -32.038  -4.406  22.264  1.00  0.00     0.027 C 
ENDBRANCH   9  13
ENDBRANCH   2   3
ENDBRANCH   1   2
BRANCH   1  15
HETATM   15  O1  UNL     1     -30.361  -0.407  15.999  1.00  0.00    -0.394 OA
ATOM     16  H1  UNL     1     -30.830  -0.243  15.189  1.00  0.00     0.210 HD
ENDBRANCH   1  15
BRANCH   1  17
HETATM   17  C13 UNL     1     -28.292   0.641  15.415  1.00  0.00     0.036 C 
BRANCH  17  18
HETATM   18  C14 UNL     1     -26.968   0.714  16.077  1.00  0.00     0.039 C 
BRANCH  18  19
HETATM   19  C15 UNL     1     -26.134   1.889  15.615  1.00  0.00     0.065 C 
HETATM   20  C18 UNL     1     -26.634   2.289  14.256  1.00  0.00     0.056 C 
HETATM   21  C19 UNL     1     -25.843   1.706  13.127  1.00  0.00     0.125 C 
HETATM   22  N4  UNL     1     -24.427   1.902  13.261  1.00  0.00    -0.367 N 
HETATM   23  C20 UNL     1     -23.849   1.655  14.545  1.00  0.00     0.168 C 
ATOM     24  H4  UNL     1     -23.857   2.207  12.472  1.00  0.00     0.161 HD
HETATM   25  S1  UNL     1     -22.248   1.401  14.747  1.00  0.00    -0.041 SA
HETATM   26  N5  UNL     1     -24.730   1.636  15.660  1.00  0.00    -0.353 N 
ATOM     27  H5  UNL     1     -24.324   1.424  16.572  1.00  0.00     0.163 HD
BRANCH  19  28
HETATM   28  C16 UNL     1     -26.426   3.015  16.546  1.00  0.00     0.086 C 
HETATM   29  N3  UNL     1     -25.557   3.336  17.417  1.00  0.00    -0.404 N 
HETATM   30  C17 UNL     1     -25.746   4.400  18.351  1.00  0.00     0.145 C 
ATOM     31  H3  UNL     1     -24.683   2.810  17.449  1.00  0.00     0.158 HD
ENDBRANCH  19  28
ENDBRANCH  18  19
ENDBRANCH  17  18
ENDBRANCH   1  17
TORSDOF 8
ENDMDL
MODEL 5
REMARK VINA RESULT: -5.866248426      6.083      8.310
REMARK  8 active torsions:
REMARK  status: ('A' for Active; 'I' for Inactive)
REMARK    1  A    between atoms: C2_2  and  N1_3 
REMARK    2  A    between atoms: N2_12  and  C11_13 
REMARK    3  A    between atoms: C11_13  and  C12_14 
REMARK    4  A    between atoms: C12_14  and  O1_15 
REMARK    5  A    between atoms: C12_14  and  C13_17 
REMARK    6  A    between atoms: C13_17  and  C14_18 
REMARK    7  A    between atoms: C14_18  and  C15_19 
REMARK    8  A    between atoms: C15_19  and  C16_20 
ROOT
HETATM    1  C12 UNL     1     -27.158   0.922  13.580  1.00  0.00     0.136 C 
ENDROOT
BRANCH   1   2
HETATM    2  C11 UNL     1     -25.817   1.512  13.275  1.00  0.00     0.160 C 
BRANCH   2   3
HETATM    3  N2  UNL     1     -25.015   1.757  14.459  1.00  0.00    -0.353 N 
HETATM    4  C6  UNL     1     -23.682   1.603  14.514  1.00  0.00     0.061 A 
HETATM    5  C5  UNL     1     -23.036   1.234  13.365  1.00  0.00     0.033 A 
HETATM    6  C7  UNL     1     -22.934   1.808  15.662  1.00  0.00     0.061 A 
HETATM    7  C4  UNL     1     -21.649   1.085  13.422  1.00  0.00     0.020 A 
HETATM    8  C3  UNL     1     -20.965   1.298  14.576  1.00  0.00     0.091 A 
HETATM    9  N1  UNL     1     -21.597   1.666  15.727  1.00  0.00    -0.355 N 
HETATM   10  C8  UNL     1     -23.583   2.189  16.800  1.00  0.00     0.033 A 
HETATM   11  C9  UNL     1     -24.950   2.359  16.780  1.00  0.00     0.020 A 
HETATM   12  C10 UNL     1     -25.638   2.140  15.612  1.00  0.00     0.091 A 
BRANCH   9  13
HETATM   13  C2  UNL     1     -20.815   1.868  16.932  1.00  0.00     0.124 C 
HETATM   14  C1  UNL     1     -19.679   0.852  17.041  1.00  0.00     0.027 C 
ENDBRANCH   9  13
ENDBRANCH   2   3
ENDBRANCH   1   2
BRANCH   1  15
HETATM   15  O1  UNL     1     -27.232  -0.454  13.485  1.00  0.00    -0.394 OA
ATOM     16  H1  UNL     1     -27.702  -0.884  14.190  1.00  0.00     0.210 HD
ENDBRANCH   1  15
BRANCH   1  17
HETATM   17  C13 UNL     1     -28.198   1.592  12.712  1.00  0.00     0.036 C 
BRANCH  17  18
HETATM   18  C14 UNL     1     -29.413   0.777  12.472  1.00  0.00     0.039 C 
BRANCH  18  19
HETATM   19  C15 UNL     1     -30.300   1.335  11.380  1.00  0.00     0.065 C 
HETATM   20  C18 UNL     1     -31.289   2.259  12.033  1.00  0.00     0.056 C 
HETATM   21  C19 UNL     1     -32.610   1.619  12.325  1.00  0.00     0.125 C 
HETATM   22  N4  UNL     1     -33.175   0.934  11.197  1.00  0.00    -0.367 N 
HETATM   23  C20 UNL     1     -32.300   0.102  10.429  1.00  0.00     0.168 C 
ATOM     24  H4  UNL     1     -34.160   1.036  10.952  1.00  0.00     0.161 HD
HETATM   25  S1  UNL     1     -32.858  -1.059   9.425  1.00  0.00    -0.041 SA
HETATM   26  N5  UNL     1     -30.903   0.325  10.573  1.00  0.00    -0.353 N 
ATOM     27  H5  UNL     1     -30.277  -0.292  10.053  1.00  0.00     0.163 HD
BRANCH  19  28
HETATM   28  C16 UNL     1     -29.429   2.164  10.501  1.00  0.00     0.086 C 
HETATM   29  N3  UNL     1     -29.340   1.869   9.267  1.00  0.00    -0.404 N 
HETATM   30  C17 UNL     1     -28.532   2.605   8.347  1.00  0.00     0.145 C 
ATOM     31  H3  UNL     1     -29.870   1.071   8.918  1.00  0.00     0.158 HD
ENDBRANCH  19  28
ENDBRANCH  18  19
ENDBRANCH  17  18
ENDBRANCH   1  17
TORSDOF 8
ENDMDL
