MODEL 1
REMARK VINA RESULT: -6.619429079      0.000      0.000
REMARK  7 active torsions:
REMARK  status: ('A' for Active; 'I' for Inactive)
REMARK    1  A    between atoms: N1_4  and  C4_5 
REMARK    2  A    between atoms: C4_5  and  C5_6 
REMARK    3  A    between atoms: C6_7  and  C7_8 
REMARK    4  A    between atoms: C7_8  and  C8_9 
REMARK    5  A    between atoms: C8_9  and  C9_10 
REMARK    6  A    between atoms: C9_10  and  N2_11 
REMARK    7  A    between atoms: C11_16  and  N5_17 
ROOT
HETATM    1  C1  UNL     1     -26.604   3.756  19.939  1.00  0.00     0.041 C 
HETATM    2  C2  UNL     1     -27.629   3.728  18.826  1.00  0.00     0.146 C 
HETATM    3  C3  UNL     1     -27.110   2.979  17.635  1.00  0.00     0.307 C 
HETATM    4  N1  UNL     1     -27.683   1.668  17.457  1.00  0.00     0.130 N 
HETATM    5  C11 UNL     1     -29.090   1.588  17.539  1.00  0.00     0.472 C 
HETATM    6  C20 UNL     1     -29.671   2.834  18.230  1.00  0.00     0.181 C 
HETATM    7  C21 UNL     1     -29.994   3.916  17.232  1.00  0.00     0.043 C 
HETATM    8  O1  UNL     1     -28.841   3.271  19.248  1.00  0.00    -0.376 OA
ENDROOT
BRANCH   4   9
HETATM    9  C4  UNL     1     -27.078   1.079  16.301  1.00  0.00     0.302 C 
BRANCH   9  10
HETATM   10  C5  UNL     1     -25.678   1.411  16.028  1.00  0.00    -0.001 C 
HETATM   11  C6  UNL     1     -25.020   1.438  14.917  1.00  0.00    -0.029 C 
BRANCH  11  12
HETATM   12  C7  UNL     1     -23.600   1.795  14.803  1.00  0.00     0.028 C 
BRANCH  12  13
HETATM   13  C8  UNL     1     -23.047   2.090  16.173  1.00  0.00     0.023 C 
BRANCH  13  14
HETATM   14  C9  UNL     1     -21.629   2.606  15.970  1.00  0.00     0.122 C 
BRANCH  14  15
HETATM   15  N2  UNL     1     -20.767   1.730  16.719  1.00  0.00    -0.367 N 
HETATM   16  C10 UNL     1     -19.966   0.946  16.097  1.00  0.00     0.196 C 
HETATM   17  N3  UNL     1     -19.943   0.955  14.685  1.00  0.00    -0.067 NA
HETATM   18  N4  UNL     1     -19.134   0.096  16.860  1.00  0.00    -0.067 NA
ATOM     19  H2  UNL     1     -20.793   1.733  17.738  1.00  0.00     0.161 HD
ENDBRANCH  14  15
ENDBRANCH  13  14
ENDBRANCH  12  13
ENDBRANCH  11  12
ENDBRANCH   9  10
ENDBRANCH   4   9
BRANCH   5  20
HETATM   20  N5  UNL     1     -29.690   0.466  18.123  1.00  0.00     0.035 N 
HETATM   21  C12 UNL     1     -30.717   0.638  19.081  1.00  0.00     0.263 C 
HETATM   22  C13 UNL     1     -31.241  -0.787  19.308  1.00  0.00     0.038 C 
HETATM   23  C14 UNL     1     -30.470  -1.592  18.315  1.00  0.00     0.039 C 
HETATM   24  C15 UNL     1     -29.042  -1.653  18.781  1.00  0.00     0.089 C 
HETATM   25  C18 UNL     1     -30.245  -0.520  17.227  1.00  0.00     0.214 C 
HETATM   26  C16 UNL     1     -28.802  -2.387  20.029  1.00  0.00     0.029 C 
HETATM   27  N6  UNL     1     -28.661  -0.275  18.767  1.00  0.00    -0.140 NA
HETATM   28  C17 UNL     1     -28.305   0.214  20.049  1.00  0.00     0.144 C 
HETATM   29  C19 UNL     1     -31.532  -0.123  16.586  1.00  0.00     0.043 C 
ENDBRANCH   5  20
TORSDOF 7
ENDMDL
MODEL 2
REMARK VINA RESULT: -6.609775908      1.397      2.591
REMARK  7 active torsions:
REMARK  status: ('A' for Active; 'I' for Inactive)
REMARK    1  A    between atoms: N1_4  and  C4_5 
REMARK    2  A    between atoms: C4_5  and  C5_6 
REMARK    3  A    between atoms: C6_7  and  C7_8 
REMARK    4  A    between atoms: C7_8  and  C8_9 
REMARK    5  A    between atoms: C8_9  and  C9_10 
REMARK    6  A    between atoms: C9_10  and  N2_11 
REMARK    7  A    between atoms: C11_16  and  N5_17 
ROOT
HETATM    1  C1  UNL     1     -29.352   4.507  16.120  1.00  0.00     0.041 C 
HETATM    2  C2  UNL     1     -29.291   3.018  15.854  1.00  0.00     0.146 C 
HETATM    3  C3  UNL     1     -27.874   2.529  15.856  1.00  0.00     0.307 C 
HETATM    4  N1  UNL     1     -27.500   1.783  17.032  1.00  0.00     0.130 N 
HETATM    5  C11 UNL     1     -28.393   0.765  17.433  1.00  0.00     0.472 C 
HETATM    6  C20 UNL     1     -29.776   0.964  16.787  1.00  0.00     0.181 C 
HETATM    7  C21 UNL     1     -29.874   0.247  15.466  1.00  0.00     0.043 C 
HETATM    8  O1  UNL     1     -30.094   2.308  16.696  1.00  0.00    -0.376 OA
ENDROOT
BRANCH   4   9
HETATM    9  C4  UNL     1     -26.126   1.405  16.892  1.00  0.00     0.302 C 
BRANCH   9  10
HETATM   10  C5  UNL     1     -25.545   1.454  15.549  1.00  0.00    -0.001 C 
HETATM   11  C6  UNL     1     -24.340   1.710  15.162  1.00  0.00    -0.029 C 
BRANCH  11  12
HETATM   12  C7  UNL     1     -23.905   1.723  13.759  1.00  0.00     0.028 C 
BRANCH  12  13
HETATM   13  C8  UNL     1     -22.477   1.254  13.674  1.00  0.00     0.023 C 
BRANCH  13  14
HETATM   14  C9  UNL     1     -21.720   1.947  14.799  1.00  0.00     0.122 C 
BRANCH  14  15
HETATM   15  N2  UNL     1     -20.597   1.104  15.114  1.00  0.00    -0.367 N 
HETATM   16  C10 UNL     1     -20.195   1.011  16.327  1.00  0.00     0.196 C 
HETATM   17  N3  UNL     1     -20.864   1.738  17.337  1.00  0.00    -0.067 NA
HETATM   18  N4  UNL     1     -19.089   0.178  16.604  1.00  0.00    -0.067 NA
ATOM     19  H2  UNL     1     -20.124   0.584  14.375  1.00  0.00     0.161 HD
ENDBRANCH  14  15
ENDBRANCH  13  14
ENDBRANCH  12  13
ENDBRANCH  11  12
ENDBRANCH   9  10
ENDBRANCH   4   9
BRANCH   5  20
HETATM   20  N5  UNL     1     -28.597   0.517  18.796  1.00  0.00     0.035 N 
HETATM   21  C12 UNL     1     -29.911   0.530  19.322  1.00  0.00     0.263 C 
HETATM   22  C13 UNL     1     -29.730   0.015  20.757  1.00  0.00     0.038 C 
HETATM   23  C14 UNL     1     -28.280  -0.337  20.808  1.00  0.00     0.039 C 
HETATM   24  C15 UNL     1     -27.494   0.944  20.781  1.00  0.00     0.089 C 
HETATM   25  C18 UNL     1     -28.048  -0.707  19.327  1.00  0.00     0.214 C 
HETATM   26  C16 UNL     1     -27.642   1.817  21.951  1.00  0.00     0.029 C 
HETATM   27  N6  UNL     1     -27.867   1.500  19.518  1.00  0.00    -0.140 NA
HETATM   28  C17 UNL     1     -28.528   2.749  19.636  1.00  0.00     0.144 C 
HETATM   29  C19 UNL     1     -28.800  -1.939  18.954  1.00  0.00     0.043 C 
ENDBRANCH   5  20
TORSDOF 7
ENDMDL
MODEL 3
REMARK VINA RESULT: -6.435399719      0.797      1.963
REMARK  7 active torsions:
REMARK  status: ('A' for Active; 'I' for Inactive)
REMARK    1  A    between atoms: N1_4  and  C4_5 
REMARK    2  A    between atoms: C4_5  and  C5_6 
REMARK    3  A    between atoms: C6_7  and  C7_8 
REMARK    4  A    between atoms: C7_8  and  C8_9 
REMARK    5  A    between atoms: C8_9  and  C9_10 
REMARK    6  A    between atoms: C9_10  and  N2_11 
REMARK    7  A    between atoms: C11_16  and  N5_17 
ROOT
HETATM    1  C1  UNL     1     -26.839   4.710  19.239  1.00  0.00     0.041 C 
HETATM    2  C2  UNL     1     -28.024   4.162  18.474  1.00  0.00     0.146 C 
HETATM    3  C3  UNL     1     -27.575   3.313  17.323  1.00  0.00     0.307 C 
HETATM    4  N1  UNL     1     -27.742   1.895  17.525  1.00  0.00     0.130 N 
HETATM    5  C11 UNL     1     -29.003   1.479  18.006  1.00  0.00     0.472 C 
HETATM    6  C20 UNL     1     -29.772   2.663  18.622  1.00  0.00     0.181 C 
HETATM    7  C21 UNL     1     -30.622   3.361  17.593  1.00  0.00     0.043 C 
HETATM    8  O1  UNL     1     -28.913   3.522  19.285  1.00  0.00    -0.376 OA
ENDROOT
BRANCH   4   9
HETATM    9  C4  UNL     1     -27.255   1.226  16.356  1.00  0.00     0.302 C 
BRANCH   9  10
HETATM   10  C5  UNL     1     -25.824   1.330  16.066  1.00  0.00    -0.001 C 
HETATM   11  C6  UNL     1     -25.205   1.591  14.962  1.00  0.00    -0.029 C 
BRANCH  11  12
HETATM   12  C7  UNL     1     -23.745   1.661  14.827  1.00  0.00     0.028 C 
BRANCH  12  13
HETATM   13  C8  UNL     1     -23.139   2.061  16.147  1.00  0.00     0.023 C 
BRANCH  13  14
HETATM   14  C9  UNL     1     -21.728   2.552  15.850  1.00  0.00     0.122 C 
BRANCH  14  15
HETATM   15  N2  UNL     1     -20.843   1.761  16.664  1.00  0.00    -0.367 N 
HETATM   16  C10 UNL     1     -19.988   0.989  16.103  1.00  0.00     0.196 C 
HETATM   17  N3  UNL     1     -19.927   0.928  14.693  1.00  0.00    -0.067 NA
HETATM   18  N4  UNL     1     -19.134   0.223  16.928  1.00  0.00    -0.067 NA
ATOM     19  H2  UNL     1     -20.896   1.814  17.681  1.00  0.00     0.161 HD
ENDBRANCH  14  15
ENDBRANCH  13  14
ENDBRANCH  12  13
ENDBRANCH  11  12
ENDBRANCH   9  10
ENDBRANCH   4   9
BRANCH   5  20
HETATM   20  N5  UNL     1     -29.085   0.411  18.906  1.00  0.00     0.035 N 
HETATM   21  C12 UNL     1     -28.542  -0.848  18.554  1.00  0.00     0.263 C 
HETATM   22  C13 UNL     1     -28.641  -1.660  19.853  1.00  0.00     0.038 C 
HETATM   23  C14 UNL     1     -29.152  -0.661  20.837  1.00  0.00     0.039 C 
HETATM   24  C15 UNL     1     -30.583  -0.362  20.488  1.00  0.00     0.089 C 
HETATM   25  C18 UNL     1     -28.559   0.630  20.232  1.00  0.00     0.214 C 
HETATM   26  C16 UNL     1     -31.532  -1.470  20.649  1.00  0.00     0.029 C 
HETATM   27  N6  UNL     1     -30.464   0.191  19.175  1.00  0.00    -0.140 NA
HETATM   28  C17 UNL     1     -31.135  -0.575  18.189  1.00  0.00     0.144 C 
HETATM   29  C19 UNL     1     -27.070   0.632  20.318  1.00  0.00     0.043 C 
ENDBRANCH   5  20
TORSDOF 7
ENDMDL
MODEL 4
REMARK VINA RESULT: -6.395683508      1.436      2.685
REMARK  7 active torsions:
REMARK  status: ('A' for Active; 'I' for Inactive)
REMARK    1  A    between atoms: N1_4  and  C4_5 
REMARK    2  A    between atoms: C4_5  and  C5_6 
REMARK    3  A    between atoms: C6_7  and  C7_8 
REMARK    4  A    between atoms: C7_8  and  C8_9 
REMARK    5  A    between atoms: C8_9  and  C9_10 
REMARK    6  A    between atoms: C9_10  and  N2_11 
REMARK    7  A    between atoms: C11_16  and  N5_17 
ROOT
HETATM    1  C1  UNL     1     -29.000   4.815  15.849  1.00  0.00     0.041 C 
HETATM    2  C2  UNL     1     -28.940   3.316  15.650  1.00  0.00     0.146 C 
HETATM    3  C3  UNL     1     -27.525   2.824  15.701  1.00  0.00     0.307 C 
HETATM    4  N1  UNL     1     -27.178   2.129  16.916  1.00  0.00     0.130 N 
HETATM    5  C11 UNL     1     -28.082   1.133  17.344  1.00  0.00     0.472 C 
HETATM    6  C20 UNL     1     -29.452   1.307  16.662  1.00  0.00     0.181 C 
HETATM    7  C21 UNL     1     -29.526   0.533  15.371  1.00  0.00     0.043 C 
HETATM    8  O1  UNL     1     -29.762   2.647  16.506  1.00  0.00    -0.376 OA
ENDROOT
BRANCH   4   9
HETATM    9  C4  UNL     1     -25.802   1.741  16.821  1.00  0.00     0.302 C 
BRANCH   9  10
HETATM   10  C5  UNL     1     -25.227   1.618  15.481  1.00  0.00    -0.001 C 
HETATM   11  C6  UNL     1     -24.012   1.767  15.069  1.00  0.00    -0.029 C 
BRANCH  11  12
HETATM   12  C7  UNL     1     -23.585   1.610  13.673  1.00  0.00     0.028 C 
BRANCH  12  13
HETATM   13  C8  UNL     1     -22.148   1.158  13.637  1.00  0.00     0.023 C 
BRANCH  13  14
HETATM   14  C9  UNL     1     -21.457   1.804  14.831  1.00  0.00     0.122 C 
BRANCH  14  15
HETATM   15  N2  UNL     1     -20.350   0.949  15.172  1.00  0.00    -0.367 N 
HETATM   16  C10 UNL     1     -19.972   0.858  16.392  1.00  0.00     0.196 C 
HETATM   17  N3  UNL     1     -20.650   1.600  17.385  1.00  0.00    -0.067 NA
HETATM   18  N4  UNL     1     -18.881   0.013  16.695  1.00  0.00    -0.067 NA
ATOM     19  H2  UNL     1     -19.870   0.418  14.445  1.00  0.00     0.161 HD
ENDBRANCH  14  15
ENDBRANCH  13  14
ENDBRANCH  12  13
ENDBRANCH  11  12
ENDBRANCH   9  10
ENDBRANCH   4   9
BRANCH   5  20
HETATM   20  N5  UNL     1     -28.315   0.945  18.711  1.00  0.00     0.035 N 
HETATM   21  C12 UNL     1     -27.228   0.675  19.577  1.00  0.00     0.263 C 
HETATM   22  C13 UNL     1     -27.856   0.748  20.977  1.00  0.00     0.038 C 
HETATM   23  C14 UNL     1     -29.257   1.178  20.696  1.00  0.00     0.039 C 
HETATM   24  C15 UNL     1     -29.970   0.029  20.040  1.00  0.00     0.089 C 
HETATM   25  C18 UNL     1     -29.027   1.992  19.403  1.00  0.00     0.214 C 
HETATM   26  C16 UNL     1     -30.172  -1.163  20.871  1.00  0.00     0.029 C 
HETATM   27  N6  UNL     1     -29.213  -0.150  18.840  1.00  0.00    -0.140 NA
HETATM   28  C17 UNL     1     -28.595  -1.424  18.760  1.00  0.00     0.144 C 
HETATM   29  C19 UNL     1     -28.222   3.218  19.673  1.00  0.00     0.043 C 
ENDBRANCH   5  20
TORSDOF 7
ENDMDL
MODEL 5
REMARK VINA RESULT: -6.392085646      0.875      1.116
REMARK  7 active torsions:
REMARK  status: ('A' for Active; 'I' for Inactive)
REMARK    1  A    between atoms: N1_4  and  C4_5 
REMARK    2  A    between atoms: C4_5  and  C5_6 
REMARK    3  A    between atoms: C6_7  and  C7_8 
REMARK    4  A    between atoms: C7_8  and  C8_9 
REMARK    5  A    between atoms: C8_9  and  C9_10 
REMARK    6  A    between atoms: C9_10  and  N2_11 
REMARK    7  A    between atoms: C11_16  and  N5_17 
ROOT
HETATM    1  C1  UNL     1     -26.376   4.231  19.759  1.00  0.00     0.041 C 
HETATM    2  C2  UNL     1     -27.247   4.157  18.524  1.00  0.00     0.146 C 
HETATM    3  C3  UNL     1     -26.598   3.325  17.458  1.00  0.00     0.307 C 
HETATM    4  N1  UNL     1     -27.180   2.018  17.284  1.00  0.00     0.130 N 
HETATM    5  C11 UNL     1     -28.587   1.971  17.182  1.00  0.00     0.472 C 
HETATM    6  C20 UNL     1     -29.218   3.270  17.717  1.00  0.00     0.181 C 
HETATM    7  C21 UNL     1     -29.377   4.295  16.624  1.00  0.00     0.043 C 
HETATM    8  O1  UNL     1     -28.516   3.751  18.809  1.00  0.00    -0.376 OA
ENDROOT
BRANCH   4   9
HETATM    9  C4  UNL     1     -26.446   1.346  16.253  1.00  0.00     0.302 C 
BRANCH   9  10
HETATM   10  C5  UNL     1     -25.030   1.686  16.102  1.00  0.00    -0.001 C 
HETATM   11  C6  UNL     1     -24.242   1.578  15.084  1.00  0.00    -0.029 C 
BRANCH  11  12
HETATM   12  C7  UNL     1     -22.826   1.966  15.087  1.00  0.00     0.028 C 
BRANCH  12  13
HETATM   13  C8  UNL     1     -22.083   1.158  14.056  1.00  0.00     0.023 C 
BRANCH  13  14
HETATM   14  C9  UNL     1     -20.852   0.590  14.749  1.00  0.00     0.122 C 
BRANCH  14  15
HETATM   15  N2  UNL     1     -20.717   1.307  15.990  1.00  0.00    -0.367 N 
HETATM   16  C10 UNL     1     -19.853   0.921  16.853  1.00  0.00     0.196 C 
HETATM   17  N3  UNL     1     -19.044  -0.203  16.572  1.00  0.00    -0.067 NA
HETATM   18  N4  UNL     1     -19.745   1.643  18.063  1.00  0.00    -0.067 NA
ATOM     19  H2  UNL     1     -21.306   2.117  16.181  1.00  0.00     0.161 HD
ENDBRANCH  14  15
ENDBRANCH  13  14
ENDBRANCH  12  13
ENDBRANCH  11  12
ENDBRANCH   9  10
ENDBRANCH   4   9
BRANCH   5  20
HETATM   20  N5  UNL     1     -29.290   0.900  17.746  1.00  0.00     0.035 N 
HETATM   21  C12 UNL     1     -30.411   1.153  18.573  1.00  0.00     0.263 C 
HETATM   22  C13 UNL     1     -31.010  -0.241  18.806  1.00  0.00     0.038 C 
HETATM   23  C14 UNL     1     -30.163  -1.119  17.945  1.00  0.00     0.039 C 
HETATM   24  C15 UNL     1     -28.800  -1.202  18.573  1.00  0.00     0.089 C 
HETATM   25  C18 UNL     1     -29.779  -0.111  16.841  1.00  0.00     0.214 C 
HETATM   26  C16 UNL     1     -28.728  -1.879  19.872  1.00  0.00     0.029 C 
HETATM   27  N6  UNL     1     -28.369   0.160  18.537  1.00  0.00    -0.140 NA
HETATM   28  C17 UNL     1     -28.140   0.703  19.827  1.00  0.00     0.144 C 
HETATM   29  C19 UNL     1     -30.969   0.293  16.040  1.00  0.00     0.043 C 
ENDBRANCH   5  20
TORSDOF 7
ENDMDL
