MODEL 1
REMARK VINA RESULT: -6.784678448      0.000      0.000
REMARK  9 active torsions:
REMARK  status: ('A' for Active; 'I' for Inactive)
REMARK    1  A    between atoms: C3_3  and  C4_4 
REMARK    2  A    between atoms: C4_4  and  N1_5 
REMARK    3  A    between atoms: C6_10  and  C7_11 
REMARK    4  A    between atoms: C7_11  and  C8_12 
REMARK    5  A    between atoms: C8_12  and  C9_13 
REMARK    6  A    between atoms: C9_13  and  N3_14 
REMARK    7  A    between atoms: C16_21  and  C17_22 
REMARK    8  A    between atoms: C17_22  and  C18_23 
REMARK    9  A    between atoms: C20_27  and  N5_28 
ROOT
HETATM    1  C1  UNL     1     -28.847  -2.874  19.303  1.00  0.00     0.112 C 
HETATM    2  C2  UNL     1     -29.045  -1.556  18.671  1.00  0.00    -0.109 C 
HETATM    3  C3  UNL     1     -29.192  -0.476  18.164  1.00  0.00    -0.087 C 
ENDROOT
BRANCH   3   4
HETATM    4  C4  UNL     1     -29.352   0.852  17.527  1.00  0.00     0.227 C 
BRANCH   4   5
HETATM    5  N1  UNL     1     -28.333   0.942  16.510  1.00  0.00    -0.292 N 
HETATM    6  C5  UNL     1     -27.015   1.389  16.808  1.00  0.00     0.327 A 
HETATM    7  O1  UNL     1     -26.692   1.726  17.998  1.00  0.00    -0.246 OA
HETATM    8  N2  UNL     1     -26.077   1.449  15.762  1.00  0.00    -0.312 N 
HETATM    9  C6  UNL     1     -26.310   1.131  14.538  1.00  0.00     0.015 A 
ATOM     10  H2  UNL     1     -25.137   1.772  15.993  1.00  0.00     0.170 HD
HETATM   11  C15 UNL     1     -27.660   0.668  14.209  1.00  0.00     0.050 A 
HETATM   12  C16 UNL     1     -28.588   0.589  15.149  1.00  0.00     0.025 A 
BRANCH   9  13
HETATM   13  C7  UNL     1     -25.255   1.226  13.493  1.00  0.00     0.059 C 
BRANCH  13  14
HETATM   14  C8  UNL     1     -24.034   1.894  14.129  1.00  0.00     0.026 C 
BRANCH  14  15
HETATM   15  C9  UNL     1     -22.769   1.146  13.758  1.00  0.00     0.128 C 
BRANCH  15  16
HETATM   16  N3  UNL     1     -21.825   1.213  14.850  1.00  0.00    -0.366 N 
HETATM   17  C10 UNL     1     -22.009   2.172  15.796  1.00  0.00     0.090 A 
HETATM   18  C11 UNL     1     -21.132   2.270  16.855  1.00  0.00     0.017 A 
HETATM   19  C12 UNL     1     -20.049   1.407  16.990  1.00  0.00     0.003 A 
HETATM   20  C13 UNL     1     -19.902   0.451  16.007  1.00  0.00     0.017 A 
HETATM   21  C14 UNL     1     -20.783   0.360  14.954  1.00  0.00     0.090 A 
ENDBRANCH  15  16
ENDBRANCH  14  15
ENDBRANCH  13  14
ENDBRANCH   9  13
BRANCH  12  22
HETATM   22  C17 UNL     1     -29.959   0.122  14.828  1.00  0.00     0.116 C 
BRANCH  22  23
HETATM   23  C18 UNL     1     -30.461   0.660  13.557  1.00  0.00     0.048 A 
HETATM   24  C19 UNL     1     -30.876   1.917  13.213  1.00  0.00     0.132 A 
HETATM   25  N4  UNL     1     -31.262   1.953  11.909  1.00  0.00    -0.200 N 
HETATM   26  C20 UNL     1     -31.080   0.705  11.455  1.00  0.00     0.677 A 
ATOM     27  H4  UNL     1     -31.615   2.756  11.389  1.00  0.00     0.183 HD
HETATM   28  N6  UNL     1     -30.599  -0.083  12.433  1.00  0.00    -0.194 N 
ATOM     29  H6  UNL     1     -30.377  -1.074  12.343  1.00  0.00     0.184 HD
BRANCH  26  30
HETATM   30  N5  UNL     1     -31.342   0.337  10.226  1.00  0.00    -0.230 N 
HETATM   31  C21 UNL     1     -32.450  -0.500   9.889  1.00  0.00     0.165 C 
ATOM     32  H5  UNL     1     -30.729   0.661   9.478  1.00  0.00     0.177 HD
ENDBRANCH  26  30
ENDBRANCH  22  23
ENDBRANCH  12  22
ENDBRANCH   4   5
ENDBRANCH   3   4
TORSDOF 9
ENDMDL
MODEL 2
REMARK VINA RESULT: -6.559256595      2.552      3.858
REMARK  9 active torsions:
REMARK  status: ('A' for Active; 'I' for Inactive)
REMARK    1  A    between atoms: C3_3  and  C4_4 
REMARK    2  A    between atoms: C4_4  and  N1_5 
REMARK    3  A    between atoms: C6_10  and  C7_11 
REMARK    4  A    between atoms: C7_11  and  C8_12 
REMARK    5  A    between atoms: C8_12  and  C9_13 
REMARK    6  A    between atoms: C9_13  and  N3_14 
REMARK    7  A    between atoms: C16_21  and  C17_22 
REMARK    8  A    between atoms: C17_22  and  C18_23 
REMARK    9  A    between atoms: C20_27  and  N5_28 
ROOT
HETATM    1  C1  UNL     1     -26.231   0.297  23.330  1.00  0.00     0.112 C 
HETATM    2  C2  UNL     1     -27.236   0.645  22.308  1.00  0.00    -0.109 C 
HETATM    3  C3  UNL     1     -28.056   0.944  21.481  1.00  0.00    -0.087 C 
ENDROOT
BRANCH   3   4
HETATM    4  C4  UNL     1     -29.052   1.330  20.455  1.00  0.00     0.227 C 
BRANCH   4   5
HETATM    5  N1  UNL     1     -28.309   1.610  19.251  1.00  0.00    -0.292 N 
HETATM    6  C5  UNL     1     -27.871   2.925  18.930  1.00  0.00     0.327 A 
HETATM    7  O1  UNL     1     -28.126   3.907  19.708  1.00  0.00    -0.246 OA
HETATM    8  N2  UNL     1     -27.152   3.119  17.737  1.00  0.00    -0.312 N 
HETATM    9  C6  UNL     1     -26.849   2.194  16.896  1.00  0.00     0.015 A 
ATOM     10  H2  UNL     1     -26.845   4.068  17.522  1.00  0.00     0.170 HD
HETATM   11  C15 UNL     1     -27.290   0.833  17.206  1.00  0.00     0.050 A 
HETATM   12  C16 UNL     1     -27.971   0.585  18.313  1.00  0.00     0.025 A 
BRANCH   9  13
HETATM   13  C7  UNL     1     -26.082   2.490  15.655  1.00  0.00     0.059 C 
BRANCH  13  14
HETATM   14  C8  UNL     1     -25.078   1.354  15.451  1.00  0.00     0.026 C 
BRANCH  14  15
HETATM   15  C9  UNL     1     -23.996   1.774  14.476  1.00  0.00     0.128 C 
BRANCH  15  16
HETATM   16  N3  UNL     1     -22.698   1.606  15.087  1.00  0.00    -0.366 N 
HETATM   17  C10 UNL     1     -21.778   0.847  14.435  1.00  0.00     0.090 A 
HETATM   18  C11 UNL     1     -20.526   0.661  14.983  1.00  0.00     0.017 A 
HETATM   19  C12 UNL     1     -20.168   1.234  16.199  1.00  0.00     0.003 A 
HETATM   20  C13 UNL     1     -21.133   1.995  16.824  1.00  0.00     0.017 A 
HETATM   21  C14 UNL     1     -22.379   2.175  16.270  1.00  0.00     0.090 A 
ENDBRANCH  15  16
ENDBRANCH  14  15
ENDBRANCH  13  14
ENDBRANCH   9  13
BRANCH  12  22
HETATM   22  C17 UNL     1     -28.424  -0.790  18.639  1.00  0.00     0.116 C 
BRANCH  22  23
HETATM   23  C18 UNL     1     -29.756  -1.092  18.102  1.00  0.00     0.048 A 
HETATM   24  C19 UNL     1     -30.692  -2.015  18.482  1.00  0.00     0.132 A 
HETATM   25  N4  UNL     1     -31.792  -1.936  17.687  1.00  0.00    -0.200 N 
HETATM   26  C20 UNL     1     -31.524  -0.955  16.814  1.00  0.00     0.677 A 
ATOM     27  H4  UNL     1     -32.639  -2.502  17.743  1.00  0.00     0.183 HD
HETATM   28  N6  UNL     1     -30.306  -0.439  17.051  1.00  0.00    -0.194 N 
ATOM     29  H6  UNL     1     -29.869   0.318  16.525  1.00  0.00     0.184 HD
BRANCH  26  30
HETATM   30  N5  UNL     1     -32.355  -0.576  15.875  1.00  0.00    -0.230 N 
HETATM   31  C21 UNL     1     -31.926  -0.225  14.559  1.00  0.00     0.165 C 
ATOM     32  H5  UNL     1     -33.350  -0.531  16.092  1.00  0.00     0.177 HD
ENDBRANCH  26  30
ENDBRANCH  22  23
ENDBRANCH  12  22
ENDBRANCH   4   5
ENDBRANCH   3   4
TORSDOF 9
ENDMDL
MODEL 3
REMARK VINA RESULT: -6.539181206      0.812      1.207
REMARK  9 active torsions:
REMARK  status: ('A' for Active; 'I' for Inactive)
REMARK    1  A    between atoms: C3_3  and  C4_4 
REMARK    2  A    between atoms: C4_4  and  N1_5 
REMARK    3  A    between atoms: C6_10  and  C7_11 
REMARK    4  A    between atoms: C7_11  and  C8_12 
REMARK    5  A    between atoms: C8_12  and  C9_13 
REMARK    6  A    between atoms: C9_13  and  N3_14 
REMARK    7  A    between atoms: C16_21  and  C17_22 
REMARK    8  A    between atoms: C17_22  and  C18_23 
REMARK    9  A    between atoms: C20_27  and  N5_28 
ROOT
HETATM    1  C1  UNL     1     -28.889  -3.208  20.079  1.00  0.00     0.112 C 
HETATM    2  C2  UNL     1     -29.261  -1.936  19.432  1.00  0.00    -0.109 C 
HETATM    3  C3  UNL     1     -29.562  -0.905  18.889  1.00  0.00    -0.087 C 
ENDROOT
BRANCH   3   4
HETATM    4  C4  UNL     1     -29.949   0.352  18.210  1.00  0.00     0.227 C 
BRANCH   4   5
HETATM    5  N1  UNL     1     -28.924   0.619  17.231  1.00  0.00    -0.292 N 
HETATM    6  C5  UNL     1     -27.651   1.136  17.601  1.00  0.00     0.327 A 
HETATM    7  O1  UNL     1     -27.376   1.383  18.825  1.00  0.00    -0.246 OA
HETATM    8  N2  UNL     1     -26.703   1.371  16.589  1.00  0.00    -0.312 N 
HETATM    9  C6  UNL     1     -26.889   1.153  15.335  1.00  0.00     0.015 A 
ATOM     10  H2  UNL     1     -25.796   1.742  16.872  1.00  0.00     0.170 HD
HETATM   11  C15 UNL     1     -28.191   0.620  14.931  1.00  0.00     0.050 A 
HETATM   12  C16 UNL     1     -29.126   0.379  15.836  1.00  0.00     0.025 A 
BRANCH   9  13
HETATM   13  C7  UNL     1     -25.827   1.430  14.330  1.00  0.00     0.059 C 
BRANCH  13  14
HETATM   14  C8  UNL     1     -24.562   1.831  15.092  1.00  0.00     0.026 C 
BRANCH  14  15
HETATM   15  C9  UNL     1     -23.349   1.735  14.190  1.00  0.00     0.128 C 
BRANCH  15  16
HETATM   16  N3  UNL     1     -22.172   1.462  14.982  1.00  0.00    -0.366 N 
HETATM   17  C10 UNL     1     -21.403   0.395  14.638  1.00  0.00     0.090 A 
HETATM   18  C11 UNL     1     -20.271   0.098  15.367  1.00  0.00     0.017 A 
HETATM   19  C12 UNL     1     -19.884   0.866  16.460  1.00  0.00     0.003 A 
HETATM   20  C13 UNL     1     -20.694   1.938  16.772  1.00  0.00     0.017 A 
HETATM   21  C14 UNL     1     -21.821   2.227  16.039  1.00  0.00     0.090 A 
ENDBRANCH  15  16
ENDBRANCH  14  15
ENDBRANCH  13  14
ENDBRANCH   9  13
BRANCH  12  22
HETATM   22  C17 UNL     1     -30.450  -0.161  15.440  1.00  0.00     0.116 C 
BRANCH  22  23
HETATM   23  C18 UNL     1     -30.919   0.370  14.154  1.00  0.00     0.048 A 
HETATM   24  C19 UNL     1     -31.387   1.608  13.807  1.00  0.00     0.132 A 
HETATM   25  N4  UNL     1     -31.711   1.645  12.487  1.00  0.00    -0.200 N 
HETATM   26  C20 UNL     1     -31.437   0.417  12.025  1.00  0.00     0.677 A 
ATOM     27  H4  UNL     1     -32.083   2.436  11.962  1.00  0.00     0.183 HD
HETATM   28  N6  UNL     1     -30.961  -0.359  13.013  1.00  0.00    -0.194 N 
ATOM     29  H6  UNL     1     -30.680  -1.335  12.920  1.00  0.00     0.184 HD
BRANCH  26  30
HETATM   30  N5  UNL     1     -31.619   0.056  10.779  1.00  0.00    -0.230 N 
HETATM   31  C21 UNL     1     -32.525  -0.980  10.398  1.00  0.00     0.165 C 
ATOM     32  H5  UNL     1     -31.091   0.536  10.049  1.00  0.00     0.177 HD
ENDBRANCH  26  30
ENDBRANCH  22  23
ENDBRANCH  12  22
ENDBRANCH   4   5
ENDBRANCH   3   4
TORSDOF 9
ENDMDL
MODEL 4
REMARK VINA RESULT: -6.464243070      2.460      5.224
REMARK  9 active torsions:
REMARK  status: ('A' for Active; 'I' for Inactive)
REMARK    1  A    between atoms: C3_3  and  C4_4 
REMARK    2  A    between atoms: C4_4  and  N1_5 
REMARK    3  A    between atoms: C6_10  and  C7_11 
REMARK    4  A    between atoms: C7_11  and  C8_12 
REMARK    5  A    between atoms: C8_12  and  C9_13 
REMARK    6  A    between atoms: C9_13  and  N3_14 
REMARK    7  A    between atoms: C16_21  and  C17_22 
REMARK    8  A    between atoms: C17_22  and  C18_23 
REMARK    9  A    between atoms: C20_27  and  N5_28 
ROOT
HETATM    1  C1  UNL     1     -30.076  -2.342  18.839  1.00  0.00     0.112 C 
HETATM    2  C2  UNL     1     -30.252  -1.239  17.875  1.00  0.00    -0.109 C 
HETATM    3  C3  UNL     1     -30.408  -0.349  17.081  1.00  0.00    -0.087 C 
ENDROOT
BRANCH   3   4
HETATM    4  C4  UNL     1     -30.622   0.748  16.110  1.00  0.00     0.227 C 
BRANCH   4   5
HETATM    5  N1  UNL     1     -29.365   0.942  15.430  1.00  0.00    -0.292 N 
HETATM    6  C5  UNL     1     -29.071   0.288  14.200  1.00  0.00     0.327 A 
HETATM    7  O1  UNL     1     -29.922  -0.496  13.657  1.00  0.00    -0.246 OA
HETATM    8  N2  UNL     1     -27.824   0.527  13.596  1.00  0.00    -0.312 N 
HETATM    9  C6  UNL     1     -26.908   1.299  14.067  1.00  0.00     0.015 A 
ATOM     10  H2  UNL     1     -27.629   0.051  12.715  1.00  0.00     0.170 HD
HETATM   11  C15 UNL     1     -27.189   1.981  15.331  1.00  0.00     0.050 A 
HETATM   12  C16 UNL     1     -28.345   1.798  15.949  1.00  0.00     0.025 A 
BRANCH   9  13
HETATM   13  C7  UNL     1     -25.614   1.494  13.360  1.00  0.00     0.059 C 
BRANCH  13  14
HETATM   14  C8  UNL     1     -24.536   1.722  14.422  1.00  0.00     0.026 C 
BRANCH  14  15
HETATM   15  C9  UNL     1     -23.160   1.719  13.787  1.00  0.00     0.128 C 
BRANCH  15  16
HETATM   16  N3  UNL     1     -22.151   1.574  14.810  1.00  0.00    -0.366 N 
HETATM   17  C10 UNL     1     -22.336   2.228  15.988  1.00  0.00     0.090 A 
HETATM   18  C11 UNL     1     -21.398   2.116  16.992  1.00  0.00     0.017 A 
HETATM   19  C12 UNL     1     -20.250   1.344  16.837  1.00  0.00     0.003 A 
HETATM   20  C13 UNL     1     -20.105   0.700  15.627  1.00  0.00     0.017 A 
HETATM   21  C14 UNL     1     -21.047   0.816  14.631  1.00  0.00     0.090 A 
ENDBRANCH  15  16
ENDBRANCH  14  15
ENDBRANCH  13  14
ENDBRANCH   9  13
BRANCH  12  22
HETATM   22  C17 UNL     1     -28.642   2.483  17.231  1.00  0.00     0.116 C 
BRANCH  22  23
HETATM   23  C18 UNL     1     -27.882   1.933  18.360  1.00  0.00     0.048 A 
HETATM   24  C19 UNL     1     -27.230   0.739  18.510  1.00  0.00     0.132 A 
HETATM   25  N4  UNL     1     -26.658   0.657  19.741  1.00  0.00    -0.200 N 
HETATM   26  C20 UNL     1     -26.964   1.814  20.347  1.00  0.00     0.677 A 
ATOM     27  H4  UNL     1     -26.114  -0.116  20.122  1.00  0.00     0.183 HD
HETATM   28  N6  UNL     1     -27.698   2.589  19.530  1.00  0.00    -0.194 N 
ATOM     29  H6  UNL     1     -28.057   3.516  19.755  1.00  0.00     0.184 HD
BRANCH  26  30
HETATM   30  N5  UNL     1     -26.585   2.115  21.563  1.00  0.00    -0.230 N 
HETATM   31  C21 UNL     1     -26.621   1.176  22.639  1.00  0.00     0.165 C 
ATOM     32  H5  UNL     1     -26.250   3.060  21.751  1.00  0.00     0.177 HD
ENDBRANCH  26  30
ENDBRANCH  22  23
ENDBRANCH  12  22
ENDBRANCH   4   5
ENDBRANCH   3   4
TORSDOF 9
ENDMDL
MODEL 5
REMARK VINA RESULT: -6.385734198      2.609      5.202
REMARK  9 active torsions:
REMARK  status: ('A' for Active; 'I' for Inactive)
REMARK    1  A    between atoms: C3_3  and  C4_4 
REMARK    2  A    between atoms: C4_4  and  N1_5 
REMARK    3  A    between atoms: C6_10  and  C7_11 
REMARK    4  A    between atoms: C7_11  and  C8_12 
REMARK    5  A    between atoms: C8_12  and  C9_13 
REMARK    6  A    between atoms: C9_13  and  N3_14 
REMARK    7  A    between atoms: C16_21  and  C17_22 
REMARK    8  A    between atoms: C17_22  and  C18_23 
REMARK    9  A    between atoms: C20_27  and  N5_28 
ROOT
HETATM    1  C1  UNL     1     -28.838  -2.697  19.238  1.00  0.00     0.112 C 
HETATM    2  C2  UNL     1     -29.026  -1.358  18.649  1.00  0.00    -0.109 C 
HETATM    3  C3  UNL     1     -29.184  -0.273  18.155  1.00  0.00    -0.087 C 
ENDROOT
BRANCH   3   4
HETATM    4  C4  UNL     1     -29.400   1.057  17.541  1.00  0.00     0.227 C 
BRANCH   4   5
HETATM    5  N1  UNL     1     -28.390   1.207  16.524  1.00  0.00    -0.292 N 
HETATM    6  C5  UNL     1     -28.566   0.687  15.211  1.00  0.00     0.327 A 
HETATM    7  O1  UNL     1     -29.637   0.067  14.891  1.00  0.00    -0.246 OA
HETATM    8  N2  UNL     1     -27.535   0.873  14.273  1.00  0.00    -0.312 N 
HETATM    9  C6  UNL     1     -26.425   1.483  14.502  1.00  0.00     0.015 A 
ATOM     10  H2  UNL     1     -27.677   0.495  13.337  1.00  0.00     0.170 HD
HETATM   11  C15 UNL     1     -26.223   2.026  15.847  1.00  0.00     0.050 A 
HETATM   12  C16 UNL     1     -27.156   1.884  16.775  1.00  0.00     0.025 A 
BRANCH   9  13
HETATM   13  C7  UNL     1     -25.386   1.634  13.448  1.00  0.00     0.059 C 
BRANCH  13  14
HETATM   14  C8  UNL     1     -24.080   1.060  14.000  1.00  0.00     0.026 C 
BRANCH  14  15
HETATM   15  C9  UNL     1     -22.987   2.109  13.969  1.00  0.00     0.128 C 
BRANCH  15  16
HETATM   16  N3  UNL     1     -21.937   1.748  14.894  1.00  0.00    -0.366 N 
HETATM   17  C10 UNL     1     -21.223   0.619  14.640  1.00  0.00     0.090 A 
HETATM   18  C11 UNL     1     -20.213   0.237  15.497  1.00  0.00     0.017 A 
HETATM   19  C12 UNL     1     -19.895   0.981  16.629  1.00  0.00     0.003 A 
HETATM   20  C13 UNL     1     -20.645   2.117  16.845  1.00  0.00     0.017 A 
HETATM   21  C14 UNL     1     -21.652   2.490  15.985  1.00  0.00     0.090 A 
ENDBRANCH  15  16
ENDBRANCH  14  15
ENDBRANCH  13  14
ENDBRANCH   9  13
BRANCH  12  22
HETATM   22  C17 UNL     1     -26.962   2.428  18.141  1.00  0.00     0.116 C 
BRANCH  22  23
HETATM   23  C18 UNL     1     -26.890   3.895  18.164  1.00  0.00     0.048 A 
HETATM   24  C19 UNL     1     -27.797   4.834  18.571  1.00  0.00     0.132 A 
HETATM   25  N4  UNL     1     -27.294   6.087  18.408  1.00  0.00    -0.200 N 
HETATM   26  C20 UNL     1     -26.068   5.909  17.898  1.00  0.00     0.677 A 
ATOM     27  H4  UNL     1     -27.752   6.972  18.626  1.00  0.00     0.183 HD
HETATM   28  N6  UNL     1     -25.811   4.598  17.745  1.00  0.00    -0.194 N 
ATOM     29  H6  UNL     1     -24.948   4.200  17.376  1.00  0.00     0.184 HD
BRANCH  26  30
HETATM   30  N5  UNL     1     -25.258   6.894  17.600  1.00  0.00    -0.230 N 
HETATM   31  C21 UNL     1     -23.933   6.991  18.122  1.00  0.00     0.165 C 
ATOM     32  H5  UNL     1     -25.588   7.623  16.967  1.00  0.00     0.177 HD
ENDBRANCH  26  30
ENDBRANCH  22  23
ENDBRANCH  12  22
ENDBRANCH   4   5
ENDBRANCH   3   4
TORSDOF 9
ENDMDL
