MODEL 1
REMARK VINA RESULT: -7.827710797      0.000      0.000
REMARK  8 active torsions:
REMARK  status: ('A' for Active; 'I' for Inactive)
REMARK    1  A    between atoms: C8_13  and  C9_14 
REMARK    2  A    between atoms: C9_14  and  C10_15 
REMARK    3  A    between atoms: C10_15  and  C11_16 
REMARK    4  A    between atoms: N4_19  and  C12_20 
REMARK    5  A    between atoms: C12_20  and  C13_21 
REMARK    6  A    between atoms: C13_21  and  C14_22 
REMARK    7  A    between atoms: C14_22  and  C15_23 
REMARK    8  A    between atoms: C15_23  and  N5_24 
ROOT
HETATM    1  N1  UNL     1     -22.395   2.033  13.102  1.00  0.00    -0.393 N 
ATOM      2  H11 UNL     1     -21.454   2.351  13.334  1.00  0.00     0.156 HD
ATOM      3  H12 UNL     1     -22.546   1.860  12.108  1.00  0.00     0.156 HD
HETATM    4  C1  UNL     1     -23.302   1.930  13.989  1.00  0.00     0.077 A 
HETATM    5  S1  UNL     1     -24.895   1.392  13.596  1.00  0.00    -0.054 SA
HETATM    6  C2  UNL     1     -25.888   1.260  14.971  1.00  0.00     0.083 A 
HETATM    7  C3  UNL     1     -27.196   0.838  14.814  1.00  0.00     0.053 A 
HETATM    8  C4  UNL     1     -28.005   0.732  15.950  1.00  0.00     0.010 A 
HETATM    9  C5  UNL     1     -27.462   1.049  17.152  1.00  0.00     0.062 A 
HETATM   10  C6  UNL     1     -26.129   1.470  17.247  1.00  0.00     0.127 A 
HETATM   11  N2  UNL     1     -25.325   1.579  16.142  1.00  0.00    -0.324 N 
HETATM   12  C7  UNL     1     -24.065   1.985  16.290  1.00  0.00     0.107 A 
HETATM   13  C8  UNL     1     -23.102   2.159  15.305  1.00  0.00    -0.008 A 
HETATM   14  N4  UNL     1     -28.707   0.743  17.760  1.00  0.00    -0.354 N 
HETATM   15  C19 UNL     1     -29.220   0.447  16.651  1.00  0.00     0.105 A 
ENDROOT
BRANCH  14  16
HETATM   16  C12 UNL     1     -29.065   0.820  19.166  1.00  0.00     0.129 C 
BRANCH  16  17
HETATM   17  C13 UNL     1     -28.827  -0.396  19.957  1.00  0.00     0.022 C 
BRANCH  17  18
HETATM   18  C14 UNL     1     -29.609  -1.612  19.606  1.00  0.00     0.023 C 
BRANCH  18  19
HETATM   19  C15 UNL     1     -28.890  -2.895  19.953  1.00  0.00     0.148 C 
BRANCH  19  20
HETATM   20  N5  UNL     1     -29.712  -3.760  20.783  1.00  0.00    -0.304 N 
HETATM   21  C16 UNL     1     -30.962  -3.447  21.157  1.00  0.00     0.111 A 
HETATM   22  C17 UNL     1     -31.440  -4.474  21.913  1.00  0.00     0.037 A 
HETATM   23  C18 UNL     1     -30.428  -5.401  21.970  1.00  0.00     0.108 A 
HETATM   24  N6  UNL     1     -29.405  -4.935  21.277  1.00  0.00    -0.310 N 
ATOM     25  H6  UNL     1     -28.514  -5.414  21.147  1.00  0.00     0.186 HD
ENDBRANCH  19  20
ENDBRANCH  18  19
ENDBRANCH  17  18
ENDBRANCH  16  17
ENDBRANCH  14  16
BRANCH  13  26
HETATM   26  C9  UNL     1     -21.806   2.707  15.812  1.00  0.00     0.051 C 
BRANCH  26  27
HETATM   27  C10 UNL     1     -21.033   1.684  16.543  1.00  0.00     0.104 C 
BRANCH  27  28
HETATM   28  C11 UNL     1     -20.016   0.931  15.864  1.00  0.00     0.231 C 
HETATM   29  N3  UNL     1     -19.110   0.093  16.637  1.00  0.00    -0.062 NA
HETATM   30  O1  UNL     1     -19.852   0.939  14.589  1.00  0.00    -0.277 OA
ENDBRANCH  27  28
ENDBRANCH  26  27
ENDBRANCH  13  26
TORSDOF 8
ENDMDL
MODEL 2
REMARK VINA RESULT: -7.321696083      1.567      2.271
REMARK  8 active torsions:
REMARK  status: ('A' for Active; 'I' for Inactive)
REMARK    1  A    between atoms: C8_13  and  C9_14 
REMARK    2  A    between atoms: C9_14  and  C10_15 
REMARK    3  A    between atoms: C10_15  and  C11_16 
REMARK    4  A    between atoms: N4_19  and  C12_20 
REMARK    5  A    between atoms: C12_20  and  C13_21 
REMARK    6  A    between atoms: C13_21  and  C14_22 
REMARK    7  A    between atoms: C14_22  and  C15_23 
REMARK    8  A    between atoms: C15_23  and  N5_24 
ROOT
HETATM    1  N1  UNL     1     -22.403   2.107  12.986  1.00  0.00    -0.393 N 
ATOM      2  H11 UNL     1     -21.452   2.413  13.192  1.00  0.00     0.156 HD
ATOM      3  H12 UNL     1     -22.593   1.967  11.993  1.00  0.00     0.156 HD
HETATM    4  C1  UNL     1     -23.278   1.982  13.902  1.00  0.00     0.077 A 
HETATM    5  S1  UNL     1     -24.888   1.466  13.553  1.00  0.00    -0.054 SA
HETATM    6  C2  UNL     1     -25.829   1.296  14.959  1.00  0.00     0.083 A 
HETATM    7  C3  UNL     1     -27.146   0.887  14.838  1.00  0.00     0.053 A 
HETATM    8  C4  UNL     1     -27.913   0.750  16.001  1.00  0.00     0.010 A 
HETATM    9  C5  UNL     1     -27.322   1.025  17.190  1.00  0.00     0.062 A 
HETATM   10  C6  UNL     1     -25.984   1.434  17.248  1.00  0.00     0.127 A 
HETATM   11  N2  UNL     1     -25.221   1.574  16.118  1.00  0.00    -0.324 N 
HETATM   12  C7  UNL     1     -23.953   1.968  16.231  1.00  0.00     0.107 A 
HETATM   13  C8  UNL     1     -23.027   2.167  15.216  1.00  0.00    -0.008 A 
HETATM   14  N4  UNL     1     -28.547   0.707  17.834  1.00  0.00    -0.354 N 
HETATM   15  C19 UNL     1     -29.103   0.450  16.737  1.00  0.00     0.105 A 
ENDROOT
BRANCH  14  16
HETATM   16  C12 UNL     1     -28.850   0.741  19.255  1.00  0.00     0.129 C 
BRANCH  16  17
HETATM   17  C13 UNL     1     -28.610  -0.506  19.994  1.00  0.00     0.022 C 
BRANCH  17  18
HETATM   18  C14 UNL     1     -29.051  -1.779  19.362  1.00  0.00     0.023 C 
BRANCH  18  19
HETATM   19  C15 UNL     1     -30.452  -2.179  19.762  1.00  0.00     0.148 C 
BRANCH  19  20
HETATM   20  N5  UNL     1     -31.453  -1.450  19.001  1.00  0.00    -0.304 N 
HETATM   21  C16 UNL     1     -32.176  -0.442  19.514  1.00  0.00     0.111 A 
HETATM   22  C17 UNL     1     -33.003   0.018  18.535  1.00  0.00     0.037 A 
HETATM   23  C18 UNL     1     -32.741  -0.753  17.428  1.00  0.00     0.108 A 
HETATM   24  N6  UNL     1     -31.803  -1.625  17.749  1.00  0.00    -0.310 N 
ATOM     25  H6  UNL     1     -31.410  -2.326  17.121  1.00  0.00     0.186 HD
ENDBRANCH  19  20
ENDBRANCH  18  19
ENDBRANCH  17  18
ENDBRANCH  16  17
ENDBRANCH  14  16
BRANCH  13  26
HETATM   26  C9  UNL     1     -21.709   2.691  15.691  1.00  0.00     0.051 C 
BRANCH  26  27
HETATM   27  C10 UNL     1     -20.967   1.674  16.462  1.00  0.00     0.104 C 
BRANCH  27  28
HETATM   28  C11 UNL     1     -19.969   0.869  15.815  1.00  0.00     0.231 C 
HETATM   29  N3  UNL     1     -19.107   0.016  16.619  1.00  0.00    -0.062 NA
HETATM   30  O1  UNL     1     -19.788   0.843  14.543  1.00  0.00    -0.277 OA
ENDBRANCH  27  28
ENDBRANCH  26  27
ENDBRANCH  13  26
TORSDOF 8
ENDMDL
MODEL 3
REMARK VINA RESULT: -7.303637369      2.537      3.917
REMARK  8 active torsions:
REMARK  status: ('A' for Active; 'I' for Inactive)
REMARK    1  A    between atoms: C8_13  and  C9_14 
REMARK    2  A    between atoms: C9_14  and  C10_15 
REMARK    3  A    between atoms: C10_15  and  C11_16 
REMARK    4  A    between atoms: N4_19  and  C12_20 
REMARK    5  A    between atoms: C12_20  and  C13_21 
REMARK    6  A    between atoms: C13_21  and  C14_22 
REMARK    7  A    between atoms: C14_22  and  C15_23 
REMARK    8  A    between atoms: C15_23  and  N5_24 
ROOT
HETATM    1  N1  UNL     1     -22.398   2.010  13.053  1.00  0.00    -0.393 N 
ATOM      2  H11 UNL     1     -21.451   2.326  13.261  1.00  0.00     0.156 HD
ATOM      3  H12 UNL     1     -22.573   1.832  12.064  1.00  0.00     0.156 HD
HETATM    4  C1  UNL     1     -23.285   1.916  13.962  1.00  0.00     0.077 A 
HETATM    5  S1  UNL     1     -24.888   1.381  13.610  1.00  0.00    -0.054 SA
HETATM    6  C2  UNL     1     -25.848   1.260  15.008  1.00  0.00     0.083 A 
HETATM    7  C3  UNL     1     -27.162   0.842  14.885  1.00  0.00     0.053 A 
HETATM    8  C4  UNL     1     -27.944   0.746  16.041  1.00  0.00     0.010 A 
HETATM    9  C5  UNL     1     -27.372   1.068  17.227  1.00  0.00     0.062 A 
HETATM   10  C6  UNL     1     -26.035   1.485  17.288  1.00  0.00     0.127 A 
HETATM   11  N2  UNL     1     -25.257   1.584  16.164  1.00  0.00    -0.324 N 
HETATM   12  C7  UNL     1     -23.993   1.987  16.280  1.00  0.00     0.107 A 
HETATM   13  C8  UNL     1     -23.053   2.151  15.271  1.00  0.00    -0.008 A 
HETATM   14  N4  UNL     1     -28.604   0.770  17.866  1.00  0.00    -0.354 N 
HETATM   15  C19 UNL     1     -29.143   0.470  16.771  1.00  0.00     0.105 A 
ENDROOT
BRANCH  14  16
HETATM   16  C12 UNL     1     -28.928   0.857  19.280  1.00  0.00     0.129 C 
BRANCH  16  17
HETATM   17  C13 UNL     1     -28.298  -0.150  20.146  1.00  0.00     0.022 C 
BRANCH  17  18
HETATM   18  C14 UNL     1     -28.112   0.192  21.582  1.00  0.00     0.023 C 
BRANCH  18  19
HETATM   19  C15 UNL     1     -26.736   0.738  21.883  1.00  0.00     0.148 C 
BRANCH  19  20
HETATM   20  N5  UNL     1     -26.717   2.191  21.839  1.00  0.00    -0.304 N 
HETATM   21  C16 UNL     1     -27.039   2.961  22.889  1.00  0.00     0.111 A 
HETATM   22  C17 UNL     1     -26.905   4.262  22.508  1.00  0.00     0.037 A 
HETATM   23  C18 UNL     1     -26.493   4.229  21.197  1.00  0.00     0.108 A 
HETATM   24  N6  UNL     1     -26.391   2.964  20.831  1.00  0.00    -0.310 N 
ATOM     25  H6  UNL     1     -26.104   2.639  19.908  1.00  0.00     0.186 HD
ENDBRANCH  19  20
ENDBRANCH  18  19
ENDBRANCH  17  18
ENDBRANCH  16  17
ENDBRANCH  14  16
BRANCH  13  26
HETATM   26  C9  UNL     1     -21.743   2.698  15.744  1.00  0.00     0.051 C 
BRANCH  26  27
HETATM   27  C10 UNL     1     -20.986   1.696  16.520  1.00  0.00     0.104 C 
BRANCH  27  28
HETATM   28  C11 UNL     1     -19.972   0.908  15.877  1.00  0.00     0.231 C 
HETATM   29  N3  UNL     1     -19.077   0.094  16.689  1.00  0.00    -0.062 NA
HETATM   30  O1  UNL     1     -19.802   0.863  14.604  1.00  0.00    -0.277 OA
ENDBRANCH  27  28
ENDBRANCH  26  27
ENDBRANCH  13  26
TORSDOF 8
ENDMDL
MODEL 4
REMARK VINA RESULT: -7.273320881      0.982      1.206
REMARK  8 active torsions:
REMARK  status: ('A' for Active; 'I' for Inactive)
REMARK    1  A    between atoms: C8_13  and  C9_14 
REMARK    2  A    between atoms: C9_14  and  C10_15 
REMARK    3  A    between atoms: C10_15  and  C11_16 
REMARK    4  A    between atoms: N4_19  and  C12_20 
REMARK    5  A    between atoms: C12_20  and  C13_21 
REMARK    6  A    between atoms: C13_21  and  C14_22 
REMARK    7  A    between atoms: C14_22  and  C15_23 
REMARK    8  A    between atoms: C15_23  and  N5_24 
ROOT
HETATM    1  N1  UNL     1     -22.391   2.093  13.031  1.00  0.00    -0.393 N 
ATOM      2  H11 UNL     1     -21.448   2.402  13.265  1.00  0.00     0.156 HD
ATOM      3  H12 UNL     1     -22.552   1.956  12.033  1.00  0.00     0.156 HD
HETATM    4  C1  UNL     1     -23.291   1.961  13.922  1.00  0.00     0.077 A 
HETATM    5  S1  UNL     1     -24.888   1.439  13.526  1.00  0.00    -0.054 SA
HETATM    6  C2  UNL     1     -25.868   1.260  14.904  1.00  0.00     0.083 A 
HETATM    7  C3  UNL     1     -27.179   0.846  14.745  1.00  0.00     0.053 A 
HETATM    8  C4  UNL     1     -27.978   0.702  15.885  1.00  0.00     0.010 A 
HETATM    9  C5  UNL     1     -27.422   0.975  17.092  1.00  0.00     0.062 A 
HETATM   10  C6  UNL     1     -26.088   1.390  17.189  1.00  0.00     0.127 A 
HETATM   11  N2  UNL     1     -25.294   1.537  16.081  1.00  0.00    -0.324 N 
HETATM   12  C7  UNL     1     -24.032   1.936  16.231  1.00  0.00     0.107 A 
HETATM   13  C8  UNL     1     -23.078   2.142  15.243  1.00  0.00    -0.008 A 
HETATM   14  N4  UNL     1     -28.663   0.650  17.700  1.00  0.00    -0.354 N 
HETATM   15  C19 UNL     1     -29.187   0.394  16.586  1.00  0.00     0.105 A 
ENDROOT
BRANCH  14  16
HETATM   16  C12 UNL     1     -29.007   0.678  19.112  1.00  0.00     0.129 C 
BRANCH  16  17
HETATM   17  C13 UNL     1     -28.410  -0.380  19.939  1.00  0.00     0.022 C 
BRANCH  17  18
HETATM   18  C14 UNL     1     -28.832  -1.783  19.677  1.00  0.00     0.023 C 
BRANCH  18  19
HETATM   19  C15 UNL     1     -30.293  -1.898  19.308  1.00  0.00     0.148 C 
BRANCH  19  20
HETATM   20  N5  UNL     1     -31.123  -2.125  20.479  1.00  0.00    -0.304 N 
HETATM   21  C16 UNL     1     -31.766  -1.140  21.125  1.00  0.00     0.111 A 
HETATM   22  C17 UNL     1     -32.453  -1.700  22.160  1.00  0.00     0.037 A 
HETATM   23  C18 UNL     1     -32.192  -3.047  22.098  1.00  0.00     0.108 A 
HETATM   24  N6  UNL     1     -31.389  -3.263  21.073  1.00  0.00    -0.310 N 
ATOM     25  H6  UNL     1     -31.029  -4.174  20.788  1.00  0.00     0.186 HD
ENDBRANCH  19  20
ENDBRANCH  18  19
ENDBRANCH  17  18
ENDBRANCH  16  17
ENDBRANCH  14  16
BRANCH  13  26
HETATM   26  C9  UNL     1     -21.776   2.670  15.757  1.00  0.00     0.051 C 
BRANCH  26  27
HETATM   27  C10 UNL     1     -21.032   1.641  16.510  1.00  0.00     0.104 C 
BRANCH  27  28
HETATM   28  C11 UNL     1     -19.986   0.898  15.867  1.00  0.00     0.231 C 
HETATM   29  N3  UNL     1     -19.070   0.106  16.677  1.00  0.00    -0.062 NA
HETATM   30  O1  UNL     1     -19.803   0.875  14.595  1.00  0.00    -0.277 OA
ENDBRANCH  27  28
ENDBRANCH  26  27
ENDBRANCH  13  26
TORSDOF 8
ENDMDL
MODEL 5
REMARK VINA RESULT: -7.261595217      2.472      3.231
REMARK  8 active torsions:
REMARK  status: ('A' for Active; 'I' for Inactive)
REMARK    1  A    between atoms: C8_13  and  C9_14 
REMARK    2  A    between atoms: C9_14  and  C10_15 
REMARK    3  A    between atoms: C10_15  and  C11_16 
REMARK    4  A    between atoms: N4_19  and  C12_20 
REMARK    5  A    between atoms: C12_20  and  C13_21 
REMARK    6  A    between atoms: C13_21  and  C14_22 
REMARK    7  A    between atoms: C14_22  and  C15_23 
REMARK    8  A    between atoms: C15_23  and  N5_24 
ROOT
HETATM    1  N1  UNL     1     -22.426   2.077  13.057  1.00  0.00    -0.393 N 
ATOM      2  H11 UNL     1     -21.479   2.391  13.268  1.00  0.00     0.156 HD
ATOM      3  H12 UNL     1     -22.607   1.928  12.064  1.00  0.00     0.156 HD
HETATM    4  C1  UNL     1     -23.307   1.952  13.968  1.00  0.00     0.077 A 
HETATM    5  S1  UNL     1     -24.910   1.422  13.611  1.00  0.00    -0.054 SA
HETATM    6  C2  UNL     1     -25.861   1.256  15.011  1.00  0.00     0.083 A 
HETATM    7  C3  UNL     1     -27.173   0.837  14.884  1.00  0.00     0.053 A 
HETATM    8  C4  UNL     1     -27.948   0.703  16.042  1.00  0.00     0.010 A 
HETATM    9  C5  UNL     1     -27.369   0.992  17.234  1.00  0.00     0.062 A 
HETATM   10  C6  UNL     1     -26.033   1.412  17.298  1.00  0.00     0.127 A 
HETATM   11  N2  UNL     1     -25.263   1.548  16.172  1.00  0.00    -0.324 N 
HETATM   12  C7  UNL     1     -23.999   1.952  16.292  1.00  0.00     0.107 A 
HETATM   13  C8  UNL     1     -23.067   2.150  15.282  1.00  0.00    -0.008 A 
HETATM   14  N4  UNL     1     -28.595   0.670  17.871  1.00  0.00    -0.354 N 
HETATM   15  C19 UNL     1     -29.141   0.401  16.772  1.00  0.00     0.105 A 
ENDROOT
BRANCH  14  16
HETATM   16  C12 UNL     1     -28.910   0.714  19.289  1.00  0.00     0.129 C 
BRANCH  16  17
HETATM   17  C13 UNL     1     -28.713  -0.541  20.029  1.00  0.00     0.022 C 
BRANCH  17  18
HETATM   18  C14 UNL     1     -28.279  -0.444  21.449  1.00  0.00     0.023 C 
BRANCH  18  19
HETATM   19  C15 UNL     1     -27.243   0.632  21.676  1.00  0.00     0.148 C 
BRANCH  19  20
HETATM   20  N5  UNL     1     -27.028   0.876  23.093  1.00  0.00    -0.304 N 
HETATM   21  C16 UNL     1     -27.204   2.076  23.667  1.00  0.00     0.111 A 
HETATM   22  C17 UNL     1     -26.928   1.947  24.995  1.00  0.00     0.037 A 
HETATM   23  C18 UNL     1     -26.584   0.630  25.180  1.00  0.00     0.108 A 
HETATM   24  N6  UNL     1     -26.656   0.018  24.013  1.00  0.00    -0.310 N 
ATOM     25  H6  UNL     1     -26.454  -0.968  23.851  1.00  0.00     0.186 HD
ENDBRANCH  19  20
ENDBRANCH  18  19
ENDBRANCH  17  18
ENDBRANCH  16  17
ENDBRANCH  14  16
BRANCH  13  26
HETATM   26  C9  UNL     1     -21.756   2.688  15.763  1.00  0.00     0.051 C 
BRANCH  26  27
HETATM   27  C10 UNL     1     -21.000   1.673  16.524  1.00  0.00     0.104 C 
BRANCH  27  28
HETATM   28  C11 UNL     1     -19.975   0.906  15.875  1.00  0.00     0.231 C 
HETATM   29  N3  UNL     1     -19.067   0.100  16.680  1.00  0.00    -0.062 NA
HETATM   30  O1  UNL     1     -19.805   0.873  14.602  1.00  0.00    -0.277 OA
ENDBRANCH  27  28
ENDBRANCH  26  27
ENDBRANCH  13  26
TORSDOF 8
ENDMDL
