MODEL 1
REMARK VINA RESULT: -6.603665100      0.000      0.000
REMARK  8 active torsions:
REMARK  status: ('A' for Active; 'I' for Inactive)
REMARK    1  A    between atoms: C3_5  and  S1_6 
REMARK    2  A    between atoms: S1_6  and  N2_9 
REMARK    3  A    between atoms: N2_9  and  C4_11 
REMARK    4  A    between atoms: C4_11  and  C5_12 
REMARK    5  A    between atoms: C8_17  and  C9_18 
REMARK    6  A    between atoms: C9_18  and  C10_19 
REMARK    7  A    between atoms: C10_19  and  C11_20 
REMARK    8  A    between atoms: C11_20  and  N4_21 
ROOT
HETATM    1  N2  UNL     1     -27.014   0.274  14.236  1.00  0.00    -0.310 N 
ATOM      2  H2  UNL     1     -26.843  -0.691  13.952  1.00  0.00     0.172 HD
ENDROOT
BRANCH   1   3
HETATM    3  S1  UNL     1     -26.038   1.641  13.779  1.00  0.00     0.276 S 
HETATM    4  O1  UNL     1     -26.755   2.862  14.267  1.00  0.00    -0.199 OA
HETATM    5  O2  UNL     1     -26.033   1.708  12.277  1.00  0.00    -0.199 OA
BRANCH   3   6
HETATM    6  C3  UNL     1     -24.464   1.573  14.483  1.00  0.00     0.172 A 
HETATM    7  N1  UNL     1     -23.324   1.207  13.821  1.00  0.00    -0.334 N 
HETATM    8  C2  UNL     1     -22.273   1.278  14.648  1.00  0.00     0.080 A 
ATOM      9  H1  UNL     1     -23.281   0.921  12.843  1.00  0.00     0.168 HD
HETATM   10  C1  UNL     1     -20.844   0.951  14.281  1.00  0.00     0.089 C 
HETATM   11  N5  UNL     1     -22.753   1.688  15.824  1.00  0.00    -0.342 N 
HETATM   12  C15 UNL     1     -24.082   1.873  15.751  1.00  0.00     0.049 A 
HETATM   13  C17 UNL     1     -21.883   1.895  16.992  1.00  0.00     0.157 C 
HETATM   14  C16 UNL     1     -24.898   2.324  16.884  1.00  0.00     0.071 C 
ENDBRANCH   3   6
ENDBRANCH   1   3
BRANCH   1  15
HETATM   15  C4  UNL     1     -28.107   0.714  15.086  1.00  0.00     0.173 C 
BRANCH  15  16
HETATM   16  C5  UNL     1     -29.440   0.407  14.555  1.00  0.00    -0.013 A 
HETATM   17  C6  UNL     1     -29.746   0.390  13.193  1.00  0.00     0.097 A 
HETATM   18  N3  UNL     1     -31.055   0.146  13.043  1.00  0.00    -0.374 N 
HETATM   19  C7  UNL     1     -31.621  -0.000  14.270  1.00  0.00     0.099 A 
ATOM     20  H3  UNL     1     -31.546   0.080  12.152  1.00  0.00     0.164 HD
HETATM   21  C8  UNL     1     -30.638   0.156  15.222  1.00  0.00    -0.012 A 
BRANCH  21  22
HETATM   22  C9  UNL     1     -30.787   0.096  16.652  1.00  0.00     0.011 C 
BRANCH  22  23
HETATM   23  C10 UNL     1     -30.603  -0.840  17.521  1.00  0.00     0.002 C 
BRANCH  23  24
HETATM   24  C11 UNL     1     -29.416  -1.194  18.264  1.00  0.00     0.263 C 
BRANCH  24  25
HETATM   25  N4  UNL     1     -29.661  -1.640  19.627  1.00  0.00    -0.075 N 
HETATM   26  C12 UNL     1     -31.049  -1.467  19.970  1.00  0.00     0.272 C 
HETATM   27  C13 UNL     1     -28.876  -0.891  20.585  1.00  0.00     0.272 C 
HETATM   28  C14 UNL     1     -29.371  -3.051  19.771  1.00  0.00     0.272 C 
ENDBRANCH  24  25
ENDBRANCH  23  24
ENDBRANCH  22  23
ENDBRANCH  21  22
ENDBRANCH  15  16
ENDBRANCH   1  15
TORSDOF 8
ENDMDL
MODEL 2
REMARK VINA RESULT: -6.549834649      1.614      2.376
REMARK  8 active torsions:
REMARK  status: ('A' for Active; 'I' for Inactive)
REMARK    1  A    between atoms: C3_5  and  S1_6 
REMARK    2  A    between atoms: S1_6  and  N2_9 
REMARK    3  A    between atoms: N2_9  and  C4_11 
REMARK    4  A    between atoms: C4_11  and  C5_12 
REMARK    5  A    between atoms: C8_17  and  C9_18 
REMARK    6  A    between atoms: C9_18  and  C10_19 
REMARK    7  A    between atoms: C10_19  and  C11_20 
REMARK    8  A    between atoms: C11_20  and  N4_21 
ROOT
HETATM    1  N2  UNL     1     -26.943   0.308  14.834  1.00  0.00    -0.310 N 
ATOM      2  H2  UNL     1     -27.038  -0.635  14.457  1.00  0.00     0.172 HD
ENDROOT
BRANCH   1   3
HETATM    3  S1  UNL     1     -25.951   1.564  14.149  1.00  0.00     0.276 S 
HETATM    4  O1  UNL     1     -26.610   2.865  14.491  1.00  0.00    -0.199 OA
HETATM    5  O2  UNL     1     -26.012   1.423  12.654  1.00  0.00    -0.199 OA
BRANCH   3   6
HETATM    6  C3  UNL     1     -24.350   1.542  14.791  1.00  0.00     0.172 A 
HETATM    7  N1  UNL     1     -23.241   1.105  14.117  1.00  0.00    -0.334 N 
HETATM    8  C2  UNL     1     -22.155   1.238  14.890  1.00  0.00     0.080 A 
ATOM      9  H1  UNL     1     -23.242   0.734  13.168  1.00  0.00     0.168 HD
HETATM   10  C1  UNL     1     -20.746   0.863  14.494  1.00  0.00     0.089 C 
HETATM   11  N5  UNL     1     -22.582   1.755  16.044  1.00  0.00    -0.342 N 
HETATM   12  C15 UNL     1     -23.912   1.948  16.010  1.00  0.00     0.049 A 
HETATM   13  C17 UNL     1     -21.662   2.054  17.152  1.00  0.00     0.157 C 
HETATM   14  C16 UNL     1     -24.676   2.506  17.132  1.00  0.00     0.071 C 
ENDBRANCH   3   6
ENDBRANCH   1   3
BRANCH   1  15
HETATM   15  C4  UNL     1     -27.615   0.806  16.022  1.00  0.00     0.173 C 
BRANCH  15  16
HETATM   16  C5  UNL     1     -28.987   0.313  16.187  1.00  0.00    -0.013 A 
HETATM   17  C6  UNL     1     -30.023   0.595  15.295  1.00  0.00     0.097 A 
HETATM   18  N3  UNL     1     -31.158   0.059  15.763  1.00  0.00    -0.374 N 
HETATM   19  C7  UNL     1     -30.899  -0.570  16.939  1.00  0.00     0.099 A 
ATOM     20  H3  UNL     1     -32.070   0.115  15.310  1.00  0.00     0.164 HD
HETATM   21  C8  UNL     1     -29.558  -0.427  17.220  1.00  0.00    -0.012 A 
BRANCH  21  22
HETATM   22  C9  UNL     1     -28.848  -0.921  18.370  1.00  0.00     0.011 C 
BRANCH  22  23
HETATM   23  C10 UNL     1     -28.516  -0.391  19.499  1.00  0.00     0.002 C 
BRANCH  23  24
HETATM   24  C11 UNL     1     -27.611   0.699  19.781  1.00  0.00     0.263 C 
BRANCH  24  25
HETATM   25  N4  UNL     1     -27.807   1.336  21.074  1.00  0.00    -0.075 N 
HETATM   26  C12 UNL     1     -26.911   0.773  22.052  1.00  0.00     0.272 C 
HETATM   27  C13 UNL     1     -29.157   1.154  21.561  1.00  0.00     0.272 C 
HETATM   28  C14 UNL     1     -27.511   2.751  21.006  1.00  0.00     0.272 C 
ENDBRANCH  24  25
ENDBRANCH  23  24
ENDBRANCH  22  23
ENDBRANCH  21  22
ENDBRANCH  15  16
ENDBRANCH   1  15
TORSDOF 8
ENDMDL
MODEL 3
REMARK VINA RESULT: -6.349470351      1.271      2.006
REMARK  8 active torsions:
REMARK  status: ('A' for Active; 'I' for Inactive)
REMARK    1  A    between atoms: C3_5  and  S1_6 
REMARK    2  A    between atoms: S1_6  and  N2_9 
REMARK    3  A    between atoms: N2_9  and  C4_11 
REMARK    4  A    between atoms: C4_11  and  C5_12 
REMARK    5  A    between atoms: C8_17  and  C9_18 
REMARK    6  A    between atoms: C9_18  and  C10_19 
REMARK    7  A    between atoms: C10_19  and  C11_20 
REMARK    8  A    between atoms: C11_20  and  N4_21 
ROOT
HETATM    1  N2  UNL     1     -26.964   0.321  14.853  1.00  0.00    -0.310 N 
ATOM      2  H2  UNL     1     -27.072  -0.623  14.481  1.00  0.00     0.172 HD
ENDROOT
BRANCH   1   3
HETATM    3  S1  UNL     1     -25.966   1.564  14.154  1.00  0.00     0.276 S 
HETATM    4  O1  UNL     1     -26.620   2.872  14.479  1.00  0.00    -0.199 OA
HETATM    5  O2  UNL     1     -26.026   1.404  12.661  1.00  0.00    -0.199 OA
BRANCH   3   6
HETATM    6  C3  UNL     1     -24.365   1.542  14.798  1.00  0.00     0.172 A 
HETATM    7  N1  UNL     1     -23.256   1.106  14.126  1.00  0.00    -0.334 N 
HETATM    8  C2  UNL     1     -22.171   1.239  14.900  1.00  0.00     0.080 A 
ATOM      9  H1  UNL     1     -23.255   0.735  13.176  1.00  0.00     0.168 HD
HETATM   10  C1  UNL     1     -20.762   0.865  14.506  1.00  0.00     0.089 C 
HETATM   11  N5  UNL     1     -22.600   1.756  16.053  1.00  0.00    -0.342 N 
HETATM   12  C15 UNL     1     -23.930   1.949  16.018  1.00  0.00     0.049 A 
HETATM   13  C17 UNL     1     -21.681   2.057  17.163  1.00  0.00     0.157 C 
HETATM   14  C16 UNL     1     -24.695   2.507  17.138  1.00  0.00     0.071 C 
ENDBRANCH   3   6
ENDBRANCH   1   3
BRANCH   1  15
HETATM   15  C4  UNL     1     -27.620   0.830  16.045  1.00  0.00     0.173 C 
BRANCH  15  16
HETATM   16  C5  UNL     1     -28.973   0.303  16.257  1.00  0.00    -0.013 A 
HETATM   17  C6  UNL     1     -30.052   0.577  15.414  1.00  0.00     0.097 A 
HETATM   18  N3  UNL     1     -31.155   0.008  15.918  1.00  0.00    -0.374 N 
HETATM   19  C7  UNL     1     -30.833  -0.635  17.070  1.00  0.00     0.099 A 
ATOM     20  H3  UNL     1     -32.086   0.052  15.503  1.00  0.00     0.164 HD
HETATM   21  C8  UNL     1     -29.486  -0.467  17.299  1.00  0.00    -0.012 A 
BRANCH  21  22
HETATM   22  C9  UNL     1     -28.717  -0.966  18.409  1.00  0.00     0.011 C 
BRANCH  22  23
HETATM   23  C10 UNL     1     -29.012  -1.241  19.634  1.00  0.00     0.002 C 
BRANCH  23  24
HETATM   24  C11 UNL     1     -29.073  -0.376  20.790  1.00  0.00     0.263 C 
BRANCH  24  25
HETATM   25  N4  UNL     1     -30.411   0.064  21.153  1.00  0.00    -0.075 N 
HETATM   26  C12 UNL     1     -30.455   0.443  22.543  1.00  0.00     0.272 C 
HETATM   27  C13 UNL     1     -31.391  -0.981  20.953  1.00  0.00     0.272 C 
HETATM   28  C14 UNL     1     -30.797   1.234  20.393  1.00  0.00     0.272 C 
ENDBRANCH  24  25
ENDBRANCH  23  24
ENDBRANCH  22  23
ENDBRANCH  21  22
ENDBRANCH  15  16
ENDBRANCH   1  15
TORSDOF 8
ENDMDL
MODEL 4
REMARK VINA RESULT: -6.186005273      0.792      1.749
REMARK  8 active torsions:
REMARK  status: ('A' for Active; 'I' for Inactive)
REMARK    1  A    between atoms: C3_5  and  S1_6 
REMARK    2  A    between atoms: S1_6  and  N2_9 
REMARK    3  A    between atoms: N2_9  and  C4_11 
REMARK    4  A    between atoms: C4_11  and  C5_12 
REMARK    5  A    between atoms: C8_17  and  C9_18 
REMARK    6  A    between atoms: C9_18  and  C10_19 
REMARK    7  A    between atoms: C10_19  and  C11_20 
REMARK    8  A    between atoms: C11_20  and  N4_21 
ROOT
HETATM    1  N2  UNL     1     -26.621   0.249  14.564  1.00  0.00    -0.310 N 
ATOM      2  H2  UNL     1     -26.405  -0.710  14.289  1.00  0.00     0.172 HD
ENDROOT
BRANCH   1   3
HETATM    3  S1  UNL     1     -25.695   1.652  14.115  1.00  0.00     0.276 S 
HETATM    4  O1  UNL     1     -26.439   2.843  14.638  1.00  0.00    -0.199 OA
HETATM    5  O2  UNL     1     -25.717   1.746  12.615  1.00  0.00    -0.199 OA
BRANCH   3   6
HETATM    6  C3  UNL     1     -24.108   1.620  14.792  1.00  0.00     0.172 A 
HETATM    7  N1  UNL     1     -23.774   2.101  16.029  1.00  0.00    -0.334 N 
HETATM    8  C2  UNL     1     -22.468   1.906  16.258  1.00  0.00     0.080 A 
ATOM      9  H1  UNL     1     -24.423   2.542  16.681  1.00  0.00     0.168 HD
HETATM   10  C1  UNL     1     -21.730   2.303  17.514  1.00  0.00     0.089 C 
HETATM   11  N5  UNL     1     -21.987   1.306  15.168  1.00  0.00    -0.342 N 
HETATM   12  C15 UNL     1     -22.962   1.121  14.261  1.00  0.00     0.049 A 
HETATM   13  C17 UNL     1     -20.572   0.920  15.051  1.00  0.00     0.157 C 
HETATM   14  C16 UNL     1     -22.744   0.484  12.958  1.00  0.00     0.071 C 
ENDBRANCH   3   6
ENDBRANCH   1   3
BRANCH   1  15
HETATM   15  C4  UNL     1     -27.748   0.648  15.390  1.00  0.00     0.173 C 
BRANCH  15  16
HETATM   16  C5  UNL     1     -29.057   0.433  14.763  1.00  0.00    -0.013 A 
HETATM   17  C6  UNL     1     -29.274   0.486  13.385  1.00  0.00     0.097 A 
HETATM   18  N3  UNL     1     -30.580   0.317  13.142  1.00  0.00    -0.374 N 
HETATM   19  C7  UNL     1     -31.232   0.153  14.322  1.00  0.00     0.099 A 
ATOM     20  H3  UNL     1     -31.015   0.314  12.219  1.00  0.00     0.164 HD
HETATM   21  C8  UNL     1     -30.307   0.219  15.341  1.00  0.00    -0.012 A 
BRANCH  21  22
HETATM   22  C9  UNL     1     -30.553   0.110  16.754  1.00  0.00     0.011 C 
BRANCH  22  23
HETATM   23  C10 UNL     1     -30.514  -0.878  17.584  1.00  0.00     0.002 C 
BRANCH  23  24
HETATM   24  C11 UNL     1     -29.401  -1.422  18.326  1.00  0.00     0.263 C 
BRANCH  24  25
HETATM   25  N4  UNL     1     -29.684  -1.716  19.723  1.00  0.00    -0.075 N 
HETATM   26  C12 UNL     1     -29.323  -3.076  20.033  1.00  0.00     0.272 C 
HETATM   27  C13 UNL     1     -31.088  -1.554  20.030  1.00  0.00     0.272 C 
HETATM   28  C14 UNL     1     -28.902  -0.869  20.600  1.00  0.00     0.272 C 
ENDBRANCH  24  25
ENDBRANCH  23  24
ENDBRANCH  22  23
ENDBRANCH  21  22
ENDBRANCH  15  16
ENDBRANCH   1  15
TORSDOF 8
ENDMDL
MODEL 5
REMARK VINA RESULT: -6.168778470      2.835      4.649
REMARK  8 active torsions:
REMARK  status: ('A' for Active; 'I' for Inactive)
REMARK    1  A    between atoms: C3_5  and  S1_6 
REMARK    2  A    between atoms: S1_6  and  N2_9 
REMARK    3  A    between atoms: N2_9  and  C4_11 
REMARK    4  A    between atoms: C4_11  and  C5_12 
REMARK    5  A    between atoms: C8_17  and  C9_18 
REMARK    6  A    between atoms: C9_18  and  C10_19 
REMARK    7  A    between atoms: C10_19  and  C11_20 
REMARK    8  A    between atoms: C11_20  and  N4_21 
ROOT
HETATM    1  N2  UNL     1     -26.693   1.299  18.349  1.00  0.00    -0.310 N 
ATOM      2  H2  UNL     1     -25.921   0.952  18.919  1.00  0.00     0.172 HD
ENDROOT
BRANCH   1   3
HETATM    3  S1  UNL     1     -26.521   2.123  16.825  1.00  0.00     0.276 S 
HETATM    4  O1  UNL     1     -26.820   3.568  17.083  1.00  0.00    -0.199 OA
HETATM    5  O2  UNL     1     -27.599   1.610  15.911  1.00  0.00    -0.199 OA
BRANCH   3   6
HETATM    6  C3  UNL     1     -24.927   1.967  16.185  1.00  0.00     0.172 A 
HETATM    7  N1  UNL     1     -23.774   2.101  16.911  1.00  0.00    -0.334 N 
HETATM    8  C2  UNL     1     -22.711   1.902  16.120  1.00  0.00     0.080 A 
ATOM      9  H1  UNL     1     -23.731   2.319  17.906  1.00  0.00     0.168 HD
HETATM   10  C1  UNL     1     -21.267   1.965  16.561  1.00  0.00     0.089 C 
HETATM   11  N5  UNL     1     -23.196   1.645  14.904  1.00  0.00    -0.342 N 
HETATM   12  C15 UNL     1     -24.540   1.680  14.915  1.00  0.00     0.049 A 
HETATM   13  C17 UNL     1     -22.318   1.363  13.758  1.00  0.00     0.157 C 
HETATM   14  C16 UNL     1     -25.364   1.437  13.726  1.00  0.00     0.071 C 
ENDBRANCH   3   6
ENDBRANCH   1   3
BRANCH   1  15
HETATM   15  C4  UNL     1     -28.101   1.179  18.686  1.00  0.00     0.173 C 
BRANCH  15  16
HETATM   16  C5  UNL     1     -28.517  -0.181  19.051  1.00  0.00    -0.013 A 
HETATM   17  C6  UNL     1     -28.788  -1.183  18.117  1.00  0.00     0.097 A 
HETATM   18  N3  UNL     1     -29.208  -2.279  18.764  1.00  0.00    -0.374 N 
HETATM   19  C7  UNL     1     -29.220  -2.026  20.099  1.00  0.00     0.099 A 
ATOM     20  H3  UNL     1     -29.475  -3.159  18.325  1.00  0.00     0.164 HD
HETATM   21  C8  UNL     1     -28.794  -0.732  20.299  1.00  0.00    -0.012 A 
BRANCH  21  22
HETATM   22  C9  UNL     1     -28.663  -0.038  21.553  1.00  0.00     0.011 C 
BRANCH  22  23
HETATM   23  C10 UNL     1     -27.648   0.407  22.215  1.00  0.00     0.002 C 
BRANCH  23  24
HETATM   24  C11 UNL     1     -27.163   0.041  23.526  1.00  0.00     0.263 C 
BRANCH  24  25
HETATM   25  N4  UNL     1     -27.530   0.962  24.591  1.00  0.00    -0.075 N 
HETATM   26  C12 UNL     1     -26.605   0.851  25.690  1.00  0.00     0.272 C 
HETATM   27  C13 UNL     1     -28.854   0.687  25.103  1.00  0.00     0.272 C 
HETATM   28  C14 UNL     1     -27.469   2.334  24.134  1.00  0.00     0.272 C 
ENDBRANCH  24  25
ENDBRANCH  23  24
ENDBRANCH  22  23
ENDBRANCH  21  22
ENDBRANCH  15  16
ENDBRANCH   1  15
TORSDOF 8
ENDMDL
