MODEL 1
REMARK VINA RESULT: -7.174167436      0.000      0.000
REMARK  4 active torsions:
REMARK  status: ('A' for Active; 'I' for Inactive)
REMARK    1  A    between atoms: N1_6  and  C6_7 
REMARK    2  A    between atoms: C6_7  and  C7_8 
REMARK    3  A    between atoms: C7_8  and  C8_9 
REMARK    4  A    between atoms: C9_10  and  N2_11 
ROOT
HETATM    1  C8  UNL     1      13.343 -11.280  21.344  1.00  0.00     0.056 A 
HETATM    2  C9  UNL     1      12.152 -10.983  21.803  1.00  0.00     0.129 A 
HETATM    3  N4  UNL     1      11.848  -9.695  21.285  1.00  0.00    -0.337 N 
ATOM      4  H4  UNL     1      10.993  -9.162  21.447  1.00  0.00     0.168 HD
HETATM    5  C11 UNL     1      12.959  -9.291  20.501  1.00  0.00     0.182 A 
HETATM    6  N5  UNL     1      13.849 -10.225  20.531  1.00  0.00    -0.353 N 
ATOM      7  H5  UNL     1      14.752 -10.210  20.057  1.00  0.00     0.166 HD
ENDROOT
BRANCH   1   8
HETATM    8  C7  UNL     1      14.092 -12.522  21.609  1.00  0.00     0.081 C 
BRANCH   8   9
HETATM    9  C6  UNL     1      14.614 -13.168  20.329  1.00  0.00     0.134 C 
BRANCH   9  10
HETATM   10  N1  UNL     1      15.991 -12.876  20.221  1.00  0.00    -0.359 N 
HETATM   11  C4  UNL     1      16.470 -12.320  19.111  1.00  0.00     0.008 A 
HETATM   12  C3  UNL     1      17.821 -12.027  19.005  1.00  0.00     0.033 A 
HETATM   13  C5  UNL     1      15.596 -12.023  18.008  1.00  0.00     0.068 C 
HETATM   14  C2  UNL     1      18.698 -12.309  20.054  1.00  0.00    -0.041 A 
HETATM   15  C1  UNL     1      20.150 -11.987  19.927  1.00  0.00     0.049 C 
HETATM   16  C13 UNL     1      18.161 -12.885  21.188  1.00  0.00     0.032 A 
HETATM   17  C12 UNL     1      16.804 -13.170  21.271  1.00  0.00     0.110 A 
HETATM   18 BR1  UNL     1      19.356 -13.269  22.619  1.00  0.00    -0.049 Br
ENDBRANCH   9  10
ENDBRANCH   8   9
ENDBRANCH   1   8
BRANCH   2  19
HETATM   19  N2  UNL     1      11.386 -11.833  22.644  1.00  0.00    -0.339 N 
HETATM   20  C10 UNL     1      10.967 -11.452  23.798  1.00  0.00     0.191 C 
HETATM   21  N3  UNL     1      11.298 -10.128  24.220  1.00  0.00    -0.097 NA
ATOM     22  H2  UNL     1      11.162 -12.775  22.322  1.00  0.00     0.167 HD
ENDBRANCH   2  19
TORSDOF 4
ENDMDL
MODEL 2
REMARK VINA RESULT: -6.903554464      2.055      3.111
REMARK  4 active torsions:
REMARK  status: ('A' for Active; 'I' for Inactive)
REMARK    1  A    between atoms: N1_6  and  C6_7 
REMARK    2  A    between atoms: C6_7  and  C7_8 
REMARK    3  A    between atoms: C7_8  and  C8_9 
REMARK    4  A    between atoms: C9_10  and  N2_11 
ROOT
HETATM    1  C8  UNL     1      14.991 -11.452  20.764  1.00  0.00     0.056 A 
HETATM    2  C9  UNL     1      13.983 -11.850  21.501  1.00  0.00     0.129 A 
HETATM    3  N4  UNL     1      13.212 -10.686  21.764  1.00  0.00    -0.337 N 
ATOM      4  H4  UNL     1      12.353 -10.637  22.313  1.00  0.00     0.168 HD
HETATM    5  C11 UNL     1      13.863  -9.603  21.119  1.00  0.00     0.182 A 
HETATM    6  N5  UNL     1      14.917 -10.049  20.524  1.00  0.00    -0.353 N 
ATOM      7  H5  UNL     1      15.579  -9.496  19.979  1.00  0.00     0.166 HD
ENDROOT
BRANCH   1   8
HETATM    8  C7  UNL     1      16.071 -12.303  20.236  1.00  0.00     0.081 C 
BRANCH   8   9
HETATM    9  C6  UNL     1      17.433 -11.617  20.299  1.00  0.00     0.134 C 
BRANCH   9  10
HETATM   10  N1  UNL     1      18.281 -12.401  21.110  1.00  0.00    -0.359 N 
HETATM   11  C4  UNL     1      19.555 -12.579  20.766  1.00  0.00     0.008 A 
HETATM   12  C3  UNL     1      20.392 -13.344  21.564  1.00  0.00     0.033 A 
HETATM   13  C5  UNL     1      20.075 -11.988  19.562  1.00  0.00     0.068 C 
HETATM   14  C2  UNL     1      19.918 -13.938  22.735  1.00  0.00    -0.041 A 
HETATM   15  C1  UNL     1      20.830 -14.758  23.585  1.00  0.00     0.049 C 
HETATM   16  C13 UNL     1      18.591 -13.728  23.056  1.00  0.00     0.032 A 
HETATM   17  C12 UNL     1      17.772 -12.958  22.241  1.00  0.00     0.110 A 
HETATM   18 BR1  UNL     1      17.944 -14.537  24.653  1.00  0.00    -0.049 Br
ENDBRANCH   9  10
ENDBRANCH   8   9
ENDBRANCH   1   8
BRANCH   2  19
HETATM   19  N2  UNL     1      13.777 -13.193  21.912  1.00  0.00    -0.339 N 
HETATM   20  C10 UNL     1      12.935 -13.965  21.323  1.00  0.00     0.191 C 
HETATM   21  N3  UNL     1      12.197 -13.426  20.225  1.00  0.00    -0.097 NA
ATOM     22  H2  UNL     1      14.315 -13.557  22.699  1.00  0.00     0.167 HD
ENDBRANCH   2  19
TORSDOF 4
ENDMDL
MODEL 3
REMARK VINA RESULT: -6.814552172      1.255      1.626
REMARK  4 active torsions:
REMARK  status: ('A' for Active; 'I' for Inactive)
REMARK    1  A    between atoms: N1_6  and  C6_7 
REMARK    2  A    between atoms: C6_7  and  C7_8 
REMARK    3  A    between atoms: C7_8  and  C8_9 
REMARK    4  A    between atoms: C9_10  and  N2_11 
ROOT
HETATM    1  C8  UNL     1      13.756 -11.176  21.351  1.00  0.00     0.056 A 
HETATM    2  C9  UNL     1      12.496 -10.937  21.621  1.00  0.00     0.129 A 
HETATM    3  N4  UNL     1      12.221  -9.652  21.081  1.00  0.00    -0.337 N 
ATOM      4  H4  UNL     1      11.329  -9.158  21.113  1.00  0.00     0.168 HD
HETATM    5  C11 UNL     1      13.422  -9.187  20.488  1.00  0.00     0.182 A 
HETATM    6  N5  UNL     1      14.336 -10.084  20.643  1.00  0.00    -0.353 N 
ATOM      7  H5  UNL     1      15.301 -10.022  20.318  1.00  0.00     0.166 HD
ENDROOT
BRANCH   1   8
HETATM    8  C7  UNL     1      14.507 -12.392  21.713  1.00  0.00     0.081 C 
BRANCH   8   9
HETATM    9  C6  UNL     1      15.459 -12.835  20.605  1.00  0.00     0.134 C 
BRANCH   9  10
HETATM   10  N1  UNL     1      16.742 -12.999  21.170  1.00  0.00    -0.359 N 
HETATM   11  C4  UNL     1      17.819 -12.576  20.513  1.00  0.00     0.008 A 
HETATM   12  C3  UNL     1      19.080 -12.730  21.069  1.00  0.00     0.033 A 
HETATM   13  C5  UNL     1      17.690 -11.959  19.220  1.00  0.00     0.068 C 
HETATM   14  C2  UNL     1      19.242 -13.330  22.319  1.00  0.00    -0.041 A 
HETATM   15  C1  UNL     1      20.605 -13.490  22.906  1.00  0.00     0.049 C 
HETATM   16  C13 UNL     1      18.099 -13.756  22.967  1.00  0.00     0.032 A 
HETATM   17  C12 UNL     1      16.847 -13.590  22.390  1.00  0.00     0.110 A 
HETATM   18 BR1  UNL     1      18.319 -14.574  24.672  1.00  0.00    -0.049 Br
ENDBRANCH   9  10
ENDBRANCH   8   9
ENDBRANCH   1   8
BRANCH   2  19
HETATM   19  N2  UNL     1      11.646 -11.836  22.318  1.00  0.00    -0.339 N 
HETATM   20  C10 UNL     1      11.076 -11.516  23.425  1.00  0.00     0.191 C 
HETATM   21  N3  UNL     1      11.327 -10.210  23.945  1.00  0.00    -0.097 NA
ATOM     22  H2  UNL     1      11.481 -12.764  21.927  1.00  0.00     0.167 HD
ENDBRANCH   2  19
TORSDOF 4
ENDMDL
MODEL 4
REMARK VINA RESULT: -6.765638643      1.862      3.202
REMARK  4 active torsions:
REMARK  status: ('A' for Active; 'I' for Inactive)
REMARK    1  A    between atoms: N1_6  and  C6_7 
REMARK    2  A    between atoms: C6_7  and  C7_8 
REMARK    3  A    between atoms: C7_8  and  C8_9 
REMARK    4  A    between atoms: C9_10  and  N2_11 
ROOT
HETATM    1  C8  UNL     1      12.144 -10.344  22.603  1.00  0.00     0.056 A 
HETATM    2  C9  UNL     1      11.977  -9.653  23.704  1.00  0.00     0.129 A 
HETATM    3  N4  UNL     1      11.001 -10.357  24.460  1.00  0.00    -0.337 N 
ATOM      4  H4  UNL     1      10.635 -10.093  25.375  1.00  0.00     0.168 HD
HETATM    5  C11 UNL     1      10.631 -11.495  23.699  1.00  0.00     0.182 A 
HETATM    6  N5  UNL     1      11.304 -11.495  22.598  1.00  0.00    -0.353 N 
ATOM      7  H5  UNL     1      11.245 -12.194  21.857  1.00  0.00     0.166 HD
ENDROOT
BRANCH   1   8
HETATM    8  C7  UNL     1      13.061 -10.011  21.499  1.00  0.00     0.081 C 
BRANCH   8   9
HETATM    9  C6  UNL     1      13.015 -11.045  20.377  1.00  0.00     0.134 C 
BRANCH   9  10
HETATM   10  N1  UNL     1      14.108 -11.922  20.544  1.00  0.00    -0.359 N 
HETATM   11  C4  UNL     1      13.910 -13.238  20.572  1.00  0.00     0.008 A 
HETATM   12  C3  UNL     1      14.982 -14.101  20.730  1.00  0.00     0.033 A 
HETATM   13  C5  UNL     1      12.583 -13.778  20.446  1.00  0.00     0.068 C 
HETATM   14  C2  UNL     1      16.282 -13.610  20.862  1.00  0.00    -0.041 A 
HETATM   15  C1  UNL     1      17.429 -14.552  21.031  1.00  0.00     0.049 C 
HETATM   16  C13 UNL     1      16.445 -12.240  20.828  1.00  0.00     0.032 A 
HETATM   17  C12 UNL     1      15.355 -11.394  20.669  1.00  0.00     0.110 A 
HETATM   18 BR1  UNL     1      18.217 -11.569  21.008  1.00  0.00    -0.049 Br
ENDBRANCH   9  10
ENDBRANCH   8   9
ENDBRANCH   1   8
BRANCH   2  19
HETATM   19  N2  UNL     1      12.672  -8.452  24.005  1.00  0.00    -0.339 N 
HETATM   20  C10 UNL     1      12.088  -7.443  24.547  1.00  0.00     0.191 C 
HETATM   21  N3  UNL     1      10.696  -7.565  24.845  1.00  0.00    -0.097 NA
ATOM     22  H2  UNL     1      13.666  -8.388  23.783  1.00  0.00     0.167 HD
ENDBRANCH   2  19
TORSDOF 4
ENDMDL
MODEL 5
REMARK VINA RESULT: -6.730250834      0.844      2.226
REMARK  4 active torsions:
REMARK  status: ('A' for Active; 'I' for Inactive)
REMARK    1  A    between atoms: N1_6  and  C6_7 
REMARK    2  A    between atoms: C6_7  and  C7_8 
REMARK    3  A    between atoms: C7_8  and  C8_9 
REMARK    4  A    between atoms: C9_10  and  N2_11 
ROOT
HETATM    1  C8  UNL     1      13.180 -12.075  21.997  1.00  0.00     0.056 A 
HETATM    2  C9  UNL     1      13.141 -10.766  21.949  1.00  0.00     0.129 A 
HETATM    3  N4  UNL     1      11.832 -10.402  22.362  1.00  0.00    -0.337 N 
ATOM      4  H4  UNL     1      11.460  -9.455  22.440  1.00  0.00     0.168 HD
HETATM    5  C11 UNL     1      11.137 -11.606  22.646  1.00  0.00     0.182 A 
HETATM    6  N5  UNL     1      11.929 -12.602  22.432  1.00  0.00    -0.353 N 
ATOM      7  H5  UNL     1      11.701 -13.588  22.554  1.00  0.00     0.166 HD
ENDROOT
BRANCH   1   8
HETATM    8  C7  UNL     1      14.336 -12.924  21.656  1.00  0.00     0.081 C 
BRANCH   8   9
HETATM    9  C6  UNL     1      14.642 -12.912  20.161  1.00  0.00     0.134 C 
BRANCH   9  10
HETATM   10  N1  UNL     1      16.026 -12.682  20.000  1.00  0.00    -0.359 N 
HETATM   11  C4  UNL     1      16.487 -12.163  18.864  1.00  0.00     0.008 A 
HETATM   12  C3  UNL     1      17.844 -11.929  18.705  1.00  0.00     0.033 A 
HETATM   13  C5  UNL     1      15.587 -11.845  17.788  1.00  0.00     0.068 C 
HETATM   14  C2  UNL     1      18.746 -12.234  19.726  1.00  0.00    -0.041 A 
HETATM   15  C1  UNL     1      20.205 -11.976  19.542  1.00  0.00     0.049 C 
HETATM   16  C13 UNL     1      18.227 -12.770  20.888  1.00  0.00     0.032 A 
HETATM   17  C12 UNL     1      16.863 -12.995  21.024  1.00  0.00     0.110 A 
HETATM   18 BR1  UNL     1      19.456 -13.184  22.281  1.00  0.00    -0.049 Br
ENDBRANCH   9  10
ENDBRANCH   8   9
ENDBRANCH   1   8
BRANCH   2  19
HETATM   19  N2  UNL     1      14.233  -9.950  21.552  1.00  0.00    -0.339 N 
HETATM   20  C10 UNL     1      14.184  -9.208  20.503  1.00  0.00     0.191 C 
HETATM   21  N3  UNL     1      12.981  -9.228  19.733  1.00  0.00    -0.097 NA
ATOM     22  H2  UNL     1      15.083  -9.953  22.117  1.00  0.00     0.167 HD
ENDBRANCH   2  19
TORSDOF 4
ENDMDL
