MODEL 1
REMARK VINA RESULT: -9.356847571      0.000      0.000
REMARK  9 active torsions:
REMARK  status: ('A' for Active; 'I' for Inactive)
REMARK    1  A    between atoms: C4_5  and  C5_6 
REMARK    2  A    between atoms: C5_6  and  C6_7 
REMARK    3  A    between atoms: C6_7  and  C7_8 
REMARK    4  A    between atoms: C7_8  and  C8_9 
REMARK    5  A    between atoms: C8_9  and  C9_10 
REMARK    6  A    between atoms: N3_18  and  C16_20 
REMARK    7  A    between atoms: C16_20  and  C17_21 
REMARK       I    between atoms: C17_21  and  N4_23 
REMARK    8  A    between atoms: N4_23  and  C18_25 
REMARK    9  A    between atoms: C19_30  and  N7_31 
ROOT
HETATM    1  C1  UNL     1      29.506  -2.555  11.968  1.00  0.00     0.154 C 
HETATM    2  N1  UNL     1      28.233  -2.446  12.653  1.00  0.00    -0.370 N 
HETATM    3  C2  UNL     1      28.200  -1.913  13.852  1.00  0.00     0.103 A 
HETATM    4  C3  UNL     1      26.970  -1.768  14.603  1.00  0.00     0.002 A 
HETATM    5  C4  UNL     1      26.840  -1.255  15.793  1.00  0.00    -0.012 C 
HETATM    6  C15 UNL     1      25.758  -2.270  13.909  1.00  0.00     0.041 A 
HETATM    7  N3  UNL     1      24.630  -2.181  14.498  1.00  0.00    -0.380 N 
ATOM      8  H3  UNL     1      24.582  -1.770  15.429  1.00  0.00     0.160 HD
HETATM    9  C20 UNL     1      25.862  -2.855  12.569  1.00  0.00     0.047 A 
HETATM   10  C21 UNL     1      27.062  -2.920  12.006  1.00  0.00     0.092 A 
ENDROOT
BRANCH   7  11
HETATM   11  C16 UNL     1      23.430  -2.650  13.871  1.00  0.00     0.223 C 
BRANCH  11  12
HETATM   12  C17 UNL     1      22.521  -1.511  13.563  1.00  0.00     0.253 C 
HETATM   13  O1  UNL     1      22.010  -1.433  12.438  1.00  0.00    -0.271 OA
HETATM   14  N4  UNL     1      22.230  -0.514  14.532  1.00  0.00    -0.156 N 
ATOM     15  H4  UNL     1      22.729   0.374  14.506  1.00  0.00     0.187 HD
BRANCH  14  16
HETATM   16  C18 UNL     1      21.343  -0.721  15.442  1.00  0.00     0.714 A 
HETATM   17  N5  UNL     1      20.294   0.054  15.729  1.00  0.00    -0.117 N 
HETATM   18  N6  UNL     1      19.616  -0.505  16.736  1.00  0.00    -0.118 N 
ATOM     19  H5  UNL     1      20.051   0.926  15.259  1.00  0.00     0.206 HD
HETATM   20  C19 UNL     1      20.230  -1.642  17.097  1.00  0.00     0.705 A 
ATOM     21  H6  UNL     1      18.769  -0.128  17.162  1.00  0.00     0.206 HD
HETATM   22  N8  UNL     1      21.296  -1.764  16.289  1.00  0.00    -0.020 N 
ATOM     23  H8  UNL     1      21.968  -2.530  16.314  1.00  0.00     0.203 HD
BRANCH  20  24
HETATM   24  N7  UNL     1      19.843  -2.426  18.033  1.00  0.00    -0.233 N 
ATOM     25  H72 UNL     1      19.596  -2.195  18.995  1.00  0.00     0.174 HD
ATOM     26  H71 UNL     1      19.720  -3.435  17.943  1.00  0.00     0.174 HD
ENDBRANCH  20  24
ENDBRANCH  14  16
ENDBRANCH  11  12
ENDBRANCH   7  11
BRANCH   5  27
HETATM   27  C5  UNL     1      28.010  -0.738  16.535  1.00  0.00     0.028 C 
BRANCH  27  28
HETATM   28  C6  UNL     1      27.807  -0.981  17.993  1.00  0.00     0.004 C 
BRANCH  28  29
HETATM   29  C7  UNL     1      28.278   0.150  18.821  1.00  0.00     0.006 C 
BRANCH  29  30
HETATM   30  C8  UNL     1      29.681   0.631  18.525  1.00  0.00     0.057 C 
BRANCH  30  31
HETATM   31  C9  UNL     1      30.053   1.614  19.541  1.00  0.00     0.010 A 
HETATM   32  C10 UNL     1      29.198   2.715  19.704  1.00  0.00     0.025 A 
HETATM   33  C11 UNL     1      29.489   3.671  20.649  1.00  0.00     0.003 A 
HETATM   34  C12 UNL     1      30.615   3.523  21.411  1.00  0.00     0.017 A 
HETATM   35  C13 UNL     1      31.413   2.429  21.208  1.00  0.00     0.090 A 
HETATM   36  N2  UNL     1      31.145   1.465  20.277  1.00  0.00    -0.364 N 
HETATM   37  C14 UNL     1      32.001   0.353  20.114  1.00  0.00     0.155 C 
ENDBRANCH  30  31
ENDBRANCH  29  30
ENDBRANCH  28  29
ENDBRANCH  27  28
ENDBRANCH   5  27
TORSDOF 9
ENDMDL
MODEL 2
REMARK VINA RESULT: -9.337476774      0.992      1.198
REMARK  9 active torsions:
REMARK  status: ('A' for Active; 'I' for Inactive)
REMARK    1  A    between atoms: C4_5  and  C5_6 
REMARK    2  A    between atoms: C5_6  and  C6_7 
REMARK    3  A    between atoms: C6_7  and  C7_8 
REMARK    4  A    between atoms: C7_8  and  C8_9 
REMARK    5  A    between atoms: C8_9  and  C9_10 
REMARK    6  A    between atoms: N3_18  and  C16_20 
REMARK    7  A    between atoms: C16_20  and  C17_21 
REMARK       I    between atoms: C17_21  and  N4_23 
REMARK    8  A    between atoms: N4_23  and  C18_25 
REMARK    9  A    between atoms: C19_30  and  N7_31 
ROOT
HETATM    1  C1  UNL     1      29.168  -3.014  11.353  1.00  0.00     0.154 C 
HETATM    2  N1  UNL     1      27.981  -2.774  12.151  1.00  0.00    -0.370 N 
HETATM    3  C2  UNL     1      28.094  -2.094  13.268  1.00  0.00     0.103 A 
HETATM    4  C3  UNL     1      26.959  -1.811  14.122  1.00  0.00     0.002 A 
HETATM    5  C4  UNL     1      26.974  -1.149  15.243  1.00  0.00    -0.012 C 
HETATM    6  C15 UNL     1      25.666  -2.349  13.631  1.00  0.00     0.041 A 
HETATM    7  N3  UNL     1      24.613  -2.145  14.321  1.00  0.00    -0.380 N 
ATOM      8  H3  UNL     1      24.678  -1.620  15.192  1.00  0.00     0.160 HD
HETATM    9  C20 UNL     1      25.606  -3.100  12.374  1.00  0.00     0.047 A 
HETATM   10  C21 UNL     1      26.735  -3.280  11.699  1.00  0.00     0.092 A 
ENDROOT
BRANCH   7  11
HETATM   11  C16 UNL     1      23.339  -2.643  13.892  1.00  0.00     0.223 C 
BRANCH  11  12
HETATM   12  C17 UNL     1      22.427  -1.518  13.546  1.00  0.00     0.253 C 
HETATM   13  O1  UNL     1      21.895  -1.493  12.429  1.00  0.00    -0.271 OA
HETATM   14  N4  UNL     1      22.157  -0.474  14.471  1.00  0.00    -0.156 N 
ATOM     15  H4  UNL     1      22.657   0.411  14.392  1.00  0.00     0.187 HD
BRANCH  14  16
HETATM   16  C18 UNL     1      21.288  -0.633  15.407  1.00  0.00     0.714 A 
HETATM   17  N5  UNL     1      20.308   0.210  15.743  1.00  0.00    -0.117 N 
HETATM   18  N6  UNL     1      19.624  -0.318  16.762  1.00  0.00    -0.118 N 
ATOM     19  H5  UNL     1      20.114   1.107  15.296  1.00  0.00     0.206 HD
HETATM   20  C19 UNL     1      20.164  -1.503  17.083  1.00  0.00     0.705 A 
ATOM     21  H6  UNL     1      18.821   0.112  17.223  1.00  0.00     0.206 HD
HETATM   22  N8  UNL     1      21.192  -1.686  16.237  1.00  0.00    -0.020 N 
ATOM     23  H8  UNL     1      21.806  -2.500  16.227  1.00  0.00     0.203 HD
BRANCH  20  24
HETATM   24  N7  UNL     1      19.751  -2.275  18.017  1.00  0.00    -0.233 N 
ATOM     25  H72 UNL     1      18.792  -2.480  18.296  1.00  0.00     0.174 HD
ATOM     26  H71 UNL     1      20.350  -2.816  18.642  1.00  0.00     0.174 HD
ENDBRANCH  20  24
ENDBRANCH  14  16
ENDBRANCH  11  12
ENDBRANCH   7  11
BRANCH   5  27
HETATM   27  C5  UNL     1      28.231  -0.588  15.783  1.00  0.00     0.028 C 
BRANCH  27  28
HETATM   28  C6  UNL     1      28.561  -1.279  17.064  1.00  0.00     0.004 C 
BRANCH  28  29
HETATM   29  C7  UNL     1      27.894  -0.654  18.226  1.00  0.00     0.006 C 
BRANCH  29  30
HETATM   30  C8  UNL     1      28.664  -0.713  19.526  1.00  0.00     0.057 C 
BRANCH  30  31
HETATM   31  C9  UNL     1      28.951   0.656  19.953  1.00  0.00     0.010 A 
HETATM   32  C10 UNL     1      29.108   1.617  18.943  1.00  0.00     0.025 A 
HETATM   33  C11 UNL     1      29.371   2.925  19.280  1.00  0.00     0.003 A 
HETATM   34  C12 UNL     1      29.475   3.256  20.603  1.00  0.00     0.017 A 
HETATM   35  C13 UNL     1      29.314   2.276  21.545  1.00  0.00     0.090 A 
HETATM   36  N2  UNL     1      29.050   0.971  21.236  1.00  0.00    -0.364 N 
HETATM   37  C14 UNL     1      28.887   0.002  22.251  1.00  0.00     0.155 C 
ENDBRANCH  30  31
ENDBRANCH  29  30
ENDBRANCH  28  29
ENDBRANCH  27  28
ENDBRANCH   5  27
TORSDOF 9
ENDMDL
MODEL 3
REMARK VINA RESULT: -9.249126236      2.782      7.017
REMARK  9 active torsions:
REMARK  status: ('A' for Active; 'I' for Inactive)
REMARK    1  A    between atoms: C4_5  and  C5_6 
REMARK    2  A    between atoms: C5_6  and  C6_7 
REMARK    3  A    between atoms: C6_7  and  C7_8 
REMARK    4  A    between atoms: C7_8  and  C8_9 
REMARK    5  A    between atoms: C8_9  and  C9_10 
REMARK    6  A    between atoms: N3_18  and  C16_20 
REMARK    7  A    between atoms: C16_20  and  C17_21 
REMARK       I    between atoms: C17_21  and  N4_23 
REMARK    8  A    between atoms: N4_23  and  C18_25 
REMARK    9  A    between atoms: C19_30  and  N7_31 
ROOT
HETATM    1  C1  UNL     1      27.797  -1.328  18.523  1.00  0.00     0.154 C 
HETATM    2  N1  UNL     1      27.046  -1.487  17.293  1.00  0.00    -0.370 N 
HETATM    3  C2  UNL     1      27.596  -1.115  16.160  1.00  0.00     0.103 A 
HETATM    4  C3  UNL     1      26.914  -1.240  14.888  1.00  0.00     0.002 A 
HETATM    5  C4  UNL     1      27.377  -0.900  13.720  1.00  0.00    -0.012 C 
HETATM    6  C15 UNL     1      25.550  -1.820  14.972  1.00  0.00     0.041 A 
HETATM    7  N3  UNL     1      24.877  -1.967  13.899  1.00  0.00    -0.380 N 
ATOM      8  H3  UNL     1      25.285  -1.685  13.008  1.00  0.00     0.160 HD
HETATM    9  C20 UNL     1      24.993  -2.216  16.268  1.00  0.00     0.047 A 
HETATM   10  C21 UNL     1      25.740  -2.040  17.351  1.00  0.00     0.092 A 
ENDROOT
BRANCH   7  11
HETATM   11  C16 UNL     1      23.556  -2.522  13.924  1.00  0.00     0.223 C 
BRANCH  11  12
HETATM   12  C17 UNL     1      22.549  -1.493  13.546  1.00  0.00     0.253 C 
HETATM   13  O1  UNL     1      22.032  -1.537  12.421  1.00  0.00    -0.271 OA
HETATM   14  N4  UNL     1      22.170  -0.463  14.447  1.00  0.00    -0.156 N 
ATOM     15  H4  UNL     1      22.587   0.463  14.357  1.00  0.00     0.187 HD
BRANCH  14  16
HETATM   16  C18 UNL     1      21.306  -0.685  15.376  1.00  0.00     0.714 A 
HETATM   17  N5  UNL     1      20.272   0.091  15.711  1.00  0.00    -0.117 N 
HETATM   18  N6  UNL     1      19.617  -0.489  16.721  1.00  0.00    -0.118 N 
ATOM     19  H5  UNL     1      20.025   0.977  15.271  1.00  0.00     0.206 HD
HETATM   20  C19 UNL     1      20.229  -1.641  17.035  1.00  0.00     0.705 A 
ATOM     21  H6  UNL     1      18.785  -0.116  17.179  1.00  0.00     0.206 HD
HETATM   22  N8  UNL     1      21.272  -1.750  16.196  1.00  0.00    -0.020 N 
ATOM     23  H8  UNL     1      21.937  -2.523  16.183  1.00  0.00     0.203 HD
BRANCH  20  24
HETATM   24  N7  UNL     1      19.860  -2.446  17.960  1.00  0.00    -0.233 N 
ATOM     25  H72 UNL     1      19.052  -3.069  17.976  1.00  0.00     0.174 HD
ATOM     26  H71 UNL     1      20.342  -2.583  18.848  1.00  0.00     0.174 HD
ENDBRANCH  20  24
ENDBRANCH  14  16
ENDBRANCH  11  12
ENDBRANCH   7  11
BRANCH   5  27
HETATM   27  C5  UNL     1      28.728  -0.317  13.572  1.00  0.00     0.028 C 
BRANCH  27  28
HETATM   28  C6  UNL     1      29.573  -1.247  12.768  1.00  0.00     0.004 C 
BRANCH  28  29
HETATM   29  C7  UNL     1      28.818  -2.431  12.304  1.00  0.00     0.006 C 
BRANCH  29  30
HETATM   30  C8  UNL     1      28.944  -2.746  10.831  1.00  0.00     0.057 C 
BRANCH  30  31
HETATM   31  C9  UNL     1      27.666  -3.280  10.363  1.00  0.00     0.010 A 
HETATM   32  C10 UNL     1      26.791  -3.779  11.340  1.00  0.00     0.025 A 
HETATM   33  C11 UNL     1      25.569  -4.288  10.965  1.00  0.00     0.003 A 
HETATM   34  C12 UNL     1      25.236  -4.294   9.638  1.00  0.00     0.017 A 
HETATM   35  C13 UNL     1      26.130  -3.794   8.730  1.00  0.00     0.090 A 
HETATM   36  N2  UNL     1      27.349  -3.283   9.077  1.00  0.00    -0.364 N 
HETATM   37  C14 UNL     1      28.230  -2.774   8.097  1.00  0.00     0.155 C 
ENDBRANCH  30  31
ENDBRANCH  29  30
ENDBRANCH  28  29
ENDBRANCH  27  28
ENDBRANCH   5  27
TORSDOF 9
ENDMDL
MODEL 4
REMARK VINA RESULT: -9.078439969      1.225      1.683
REMARK  9 active torsions:
REMARK  status: ('A' for Active; 'I' for Inactive)
REMARK    1  A    between atoms: C4_5  and  C5_6 
REMARK    2  A    between atoms: C5_6  and  C6_7 
REMARK    3  A    between atoms: C6_7  and  C7_8 
REMARK    4  A    between atoms: C7_8  and  C8_9 
REMARK    5  A    between atoms: C8_9  and  C9_10 
REMARK    6  A    between atoms: N3_18  and  C16_20 
REMARK    7  A    between atoms: C16_20  and  C17_21 
REMARK       I    between atoms: C17_21  and  N4_23 
REMARK    8  A    between atoms: N4_23  and  C18_25 
REMARK    9  A    between atoms: C19_30  and  N7_31 
ROOT
HETATM    1  C1  UNL     1      28.848  -3.931  10.628  1.00  0.00     0.154 C 
HETATM    2  N1  UNL     1      27.833  -3.394  11.513  1.00  0.00    -0.370 N 
HETATM    3  C2  UNL     1      28.133  -2.367  12.274  1.00  0.00     0.103 A 
HETATM    4  C3  UNL     1      27.178  -1.772  13.186  1.00  0.00     0.002 A 
HETATM    5  C4  UNL     1      27.384  -0.758  13.976  1.00  0.00    -0.012 C 
HETATM    6  C15 UNL     1      25.840  -2.414  13.187  1.00  0.00     0.041 A 
HETATM    7  N3  UNL     1      24.936  -1.953  13.959  1.00  0.00    -0.380 N 
ATOM      8  H3  UNL     1      25.148  -1.156  14.559  1.00  0.00     0.160 HD
HETATM    9  C20 UNL     1      25.568  -3.557  12.311  1.00  0.00     0.047 A 
HETATM   10  C21 UNL     1      26.547  -3.993  11.528  1.00  0.00     0.092 A 
ENDROOT
BRANCH   7  11
HETATM   11  C16 UNL     1      23.628  -2.536  13.998  1.00  0.00     0.223 C 
BRANCH  11  12
HETATM   12  C17 UNL     1      22.599  -1.542  13.582  1.00  0.00     0.253 C 
HETATM   13  O1  UNL     1      22.093  -1.633  12.455  1.00  0.00    -0.271 OA
HETATM   14  N4  UNL     1      22.189  -0.496  14.449  1.00  0.00    -0.156 N 
ATOM     15  H4  UNL     1      22.584   0.437  14.335  1.00  0.00     0.187 HD
BRANCH  14  16
HETATM   16  C18 UNL     1      21.322  -0.711  15.377  1.00  0.00     0.714 A 
HETATM   17  N5  UNL     1      20.275   0.056  15.689  1.00  0.00    -0.117 N 
HETATM   18  N6  UNL     1      19.622  -0.512  16.707  1.00  0.00    -0.118 N 
ATOM     19  H5  UNL     1      20.016   0.928  15.228  1.00  0.00     0.206 HD
HETATM   20  C19 UNL     1      20.250  -1.647  17.051  1.00  0.00     0.705 A 
ATOM     21  H6  UNL     1      18.781  -0.142  17.152  1.00  0.00     0.206 HD
HETATM   22  N8  UNL     1      21.300  -1.758  16.220  1.00  0.00    -0.020 N 
ATOM     23  H8  UNL     1      21.977  -2.520  16.228  1.00  0.00     0.203 HD
BRANCH  20  24
HETATM   24  N7  UNL     1      19.887  -2.437  17.991  1.00  0.00    -0.233 N 
ATOM     25  H72 UNL     1      18.951  -2.778  18.209  1.00  0.00     0.174 HD
ATOM     26  H71 UNL     1      20.510  -2.854  18.683  1.00  0.00     0.174 HD
ENDBRANCH  20  24
ENDBRANCH  14  16
ENDBRANCH  11  12
ENDBRANCH   7  11
BRANCH   5  27
HETATM   27  C5  UNL     1      28.695  -0.076  14.020  1.00  0.00     0.028 C 
BRANCH  27  28
HETATM   28  C6  UNL     1      29.551  -0.734  15.049  1.00  0.00     0.004 C 
BRANCH  28  29
HETATM   29  C7  UNL     1      28.861  -0.869  16.350  1.00  0.00     0.006 C 
BRANCH  29  30
HETATM   30  C8  UNL     1      29.764  -1.055  17.548  1.00  0.00     0.057 C 
BRANCH  30  31
HETATM   31  C9  UNL     1      29.956   0.247  18.187  1.00  0.00     0.010 A 
HETATM   32  C10 UNL     1      28.865   0.773  18.895  1.00  0.00     0.025 A 
HETATM   33  C11 UNL     1      28.984   1.991  19.525  1.00  0.00     0.003 A 
HETATM   34  C12 UNL     1      30.173   2.662  19.442  1.00  0.00     0.017 A 
HETATM   35  C13 UNL     1      31.203   2.099  18.736  1.00  0.00     0.090 A 
HETATM   36  N2  UNL     1      31.110   0.892  18.104  1.00  0.00    -0.364 N 
HETATM   37  C14 UNL     1      32.208   0.356  17.394  1.00  0.00     0.155 C 
ENDBRANCH  30  31
ENDBRANCH  29  30
ENDBRANCH  28  29
ENDBRANCH  27  28
ENDBRANCH   5  27
TORSDOF 9
ENDMDL
MODEL 5
REMARK VINA RESULT: -9.042272049      2.150      3.488
REMARK  9 active torsions:
REMARK  status: ('A' for Active; 'I' for Inactive)
REMARK    1  A    between atoms: C4_5  and  C5_6 
REMARK    2  A    between atoms: C5_6  and  C6_7 
REMARK    3  A    between atoms: C6_7  and  C7_8 
REMARK    4  A    between atoms: C7_8  and  C8_9 
REMARK    5  A    between atoms: C8_9  and  C9_10 
REMARK    6  A    between atoms: N3_18  and  C16_20 
REMARK    7  A    between atoms: C16_20  and  C17_21 
REMARK       I    between atoms: C17_21  and  N4_23 
REMARK    8  A    between atoms: N4_23  and  C18_25 
REMARK    9  A    between atoms: C19_30  and  N7_31 
ROOT
HETATM    1  C1  UNL     1      27.966  -1.284  18.626  1.00  0.00     0.154 C 
HETATM    2  N1  UNL     1      27.194  -1.405  17.405  1.00  0.00    -0.370 N 
HETATM    3  C2  UNL     1      27.695  -0.932  16.287  1.00  0.00     0.103 A 
HETATM    4  C3  UNL     1      26.989  -1.012  15.025  1.00  0.00     0.002 A 
HETATM    5  C4  UNL     1      27.404  -0.573  13.872  1.00  0.00    -0.012 C 
HETATM    6  C15 UNL     1      25.661  -1.670  15.100  1.00  0.00     0.041 A 
HETATM    7  N3  UNL     1      24.969  -1.784  14.034  1.00  0.00    -0.380 N 
ATOM      8  H3  UNL     1      25.340  -1.424  13.155  1.00  0.00     0.160 HD
HETATM    9  C20 UNL     1      25.158  -2.178  16.379  1.00  0.00     0.047 A 
HETATM   10  C21 UNL     1      25.921  -2.031  17.455  1.00  0.00     0.092 A 
ENDROOT
BRANCH   7  11
HETATM   11  C16 UNL     1      23.681  -2.411  14.052  1.00  0.00     0.223 C 
BRANCH  11  12
HETATM   12  C17 UNL     1      22.627  -1.452  13.619  1.00  0.00     0.253 C 
HETATM   13  O1  UNL     1      22.138  -1.562  12.487  1.00  0.00    -0.271 OA
HETATM   14  N4  UNL     1      22.172  -0.416  14.477  1.00  0.00    -0.156 N 
ATOM     15  H4  UNL     1      22.540   0.529  14.365  1.00  0.00     0.187 HD
BRANCH  14  16
HETATM   16  C18 UNL     1      21.302  -0.656  15.395  1.00  0.00     0.714 A 
HETATM   17  N5  UNL     1      20.260   0.109  15.731  1.00  0.00    -0.117 N 
HETATM   18  N6  UNL     1      19.600  -0.488  16.728  1.00  0.00    -0.118 N 
ATOM     19  H5  UNL     1      20.010   0.999  15.299  1.00  0.00     0.206 HD
HETATM   20  C19 UNL     1      20.218  -1.639  17.034  1.00  0.00     0.705 A 
ATOM     21  H6  UNL     1      18.762  -0.126  17.184  1.00  0.00     0.206 HD
HETATM   22  N8  UNL     1      21.269  -1.730  16.203  1.00  0.00    -0.020 N 
ATOM     23  H8  UNL     1      21.940  -2.498  16.186  1.00  0.00     0.203 HD
BRANCH  20  24
HETATM   24  N7  UNL     1      19.847  -2.457  17.946  1.00  0.00    -0.233 N 
ATOM     25  H72 UNL     1      19.623  -3.449  17.859  1.00  0.00     0.174 HD
ATOM     26  H71 UNL     1      19.717  -2.223  18.930  1.00  0.00     0.174 HD
ENDBRANCH  20  24
ENDBRANCH  14  16
ENDBRANCH  11  12
ENDBRANCH   7  11
BRANCH   5  27
HETATM   27  C5  UNL     1      28.718   0.090  13.733  1.00  0.00     0.028 C 
BRANCH  27  28
HETATM   28  C6  UNL     1      29.711  -0.900  13.224  1.00  0.00     0.004 C 
BRANCH  28  29
HETATM   29  C7  UNL     1      30.991  -0.840  13.963  1.00  0.00     0.006 C 
BRANCH  29  30
HETATM   30  C8  UNL     1      31.151  -1.860  15.067  1.00  0.00     0.057 C 
BRANCH  30  31
HETATM   31  C9  UNL     1      31.369  -1.145  16.325  1.00  0.00     0.010 A 
HETATM   32  C10 UNL     1      31.486   0.251  16.249  1.00  0.00     0.025 A 
HETATM   33  C11 UNL     1      31.684   0.982  17.398  1.00  0.00     0.003 A 
HETATM   34  C12 UNL     1      31.762   0.322  18.594  1.00  0.00     0.017 A 
HETATM   35  C13 UNL     1      31.641  -1.042  18.606  1.00  0.00     0.090 A 
HETATM   36  N2  UNL     1      31.443  -1.789  17.480  1.00  0.00    -0.364 N 
HETATM   37  C14 UNL     1      31.319  -3.195  17.553  1.00  0.00     0.155 C 
ENDBRANCH  30  31
ENDBRANCH  29  30
ENDBRANCH  28  29
ENDBRANCH  27  28
ENDBRANCH   5  27
TORSDOF 9
ENDMDL
