MODEL 1
REMARK VINA RESULT: -8.569511299      0.000      0.000
REMARK  14 active torsions:
REMARK  status: ('A' for Active; 'I' for Inactive)
REMARK    1  A    between atoms: N1_1  and  C1_4 
REMARK    2  A    between atoms: C2_7  and  C3_8 
REMARK    3  A    between atoms: C3_8  and  C4_9 
REMARK    4  A    between atoms: C4_9  and  C5_10 
REMARK    5  A    between atoms: C5_10  and  N3_11 
REMARK    6  A    between atoms: C9_15  and  C10_16 
REMARK    7  A    between atoms: C10_16  and  C11_17 
REMARK    8  A    between atoms: C12_18  and  C13_19 
REMARK    9  A    between atoms: C13_19  and  C14_20 
REMARK   10  A    between atoms: C14_20  and  C15_21 
REMARK   11  A    between atoms: C16_22  and  C17_23 
REMARK   12  A    between atoms: C17_23  and  C18_24 
REMARK   13  A    between atoms: C18_24  and  N4_25 
REMARK   14  A    between atoms: N6_32  and  N7_33 
ROOT
HETATM    1  N3  UNL     1      24.534  -2.007  14.707  1.00  0.00    -0.366 N 
HETATM    2  C6  UNL     1      25.217  -1.905  13.535  1.00  0.00     0.090 A 
HETATM    3  C7  UNL     1      26.561  -1.637  13.528  1.00  0.00     0.018 A 
HETATM    4  C8  UNL     1      27.172  -1.479  14.760  1.00  0.00     0.011 A 
HETATM    5  C9  UNL     1      26.464  -1.586  15.930  1.00  0.00    -0.032 A 
HETATM    6  C22 UNL     1      25.107  -1.858  15.903  1.00  0.00     0.098 A 
ENDROOT
BRANCH   1   7
HETATM    7  C5  UNL     1      23.112  -2.296  14.652  1.00  0.00     0.128 C 
BRANCH   7   8
HETATM    8  C4  UNL     1      22.283  -1.082  14.296  1.00  0.00     0.028 C 
BRANCH   8   9
HETATM    9  C3  UNL     1      20.869  -1.326  14.659  1.00  0.00     0.082 C 
BRANCH   9  10
HETATM   10  C2  UNL     1      20.460  -1.045  16.026  1.00  0.00     0.137 A 
HETATM   11  N2  UNL     1      20.498  -1.993  17.015  1.00  0.00    -0.176 N 
HETATM   12  C1  UNL     1      20.029  -1.475  18.136  1.00  0.00     0.693 A 
ATOM     13  H2  UNL     1      20.836  -2.948  16.904  1.00  0.00     0.185 HD
HETATM   14  N8  UNL     1      19.680  -0.203  17.907  1.00  0.00    -0.110 N 
HETATM   15  N6  UNL     1      19.949   0.038  16.616  1.00  0.00    -0.176 N 
ATOM     16  H8  UNL     1      19.287   0.453  18.582  1.00  0.00     0.208 HD
BRANCH  12  17
HETATM   17  N1  UNL     1      19.899  -2.047  19.305  1.00  0.00    -0.233 N 
ATOM     18  H12 UNL     1      20.334  -2.940  19.535  1.00  0.00     0.174 HD
ATOM     19  H11 UNL     1      19.380  -1.717  20.118  1.00  0.00     0.174 HD
ENDBRANCH  12  17
BRANCH  15  20
HETATM   20  N7  UNL     1      19.666   1.277  16.045  1.00  0.00    -0.322 N 
ATOM     21  H72 UNL     1      18.990   1.361  15.286  1.00  0.00     0.179 HD
ATOM     22  H71 UNL     1      20.079   2.183  16.267  1.00  0.00     0.179 HD
ENDBRANCH  15  20
ENDBRANCH   9  10
ENDBRANCH   8   9
ENDBRANCH   7   8
ENDBRANCH   1   7
BRANCH   5  23
HETATM   23  C10 UNL     1      27.170  -1.407  17.219  1.00  0.00     0.133 C 
BRANCH  23  24
HETATM   24  C11 UNL     1      28.552  -0.921  17.008  1.00  0.00    -0.102 C 
HETATM   25  C12 UNL     1      29.681  -0.523  16.843  1.00  0.00    -0.105 C 
BRANCH  25  26
HETATM   26  C13 UNL     1      31.045  -0.049  16.642  1.00  0.00     0.106 C 
BRANCH  26  27
HETATM   27  C14 UNL     1      31.689   0.402  17.946  1.00  0.00     0.106 C 
BRANCH  27  28
HETATM   28  C15 UNL     1      30.880   1.444  18.574  1.00  0.00    -0.106 C 
HETATM   29  C16 UNL     1      30.204   2.307  19.104  1.00  0.00    -0.105 C 
BRANCH  29  30
HETATM   30  C17 UNL     1      29.372   3.328  19.732  1.00  0.00     0.115 C 
BRANCH  30  31
HETATM   31  C18 UNL     1      29.515   3.256  21.225  1.00  0.00     0.160 C 
BRANCH  31  32
HETATM   32  N4  UNL     1      30.466   4.238  21.691  1.00  0.00    -0.303 N 
HETATM   33  C19 UNL     1      31.701   3.960  22.136  1.00  0.00     0.111 A 
HETATM   34  C20 UNL     1      32.313   5.167  22.492  1.00  0.00     0.037 A 
HETATM   35  C21 UNL     1      31.376   6.136  22.232  1.00  0.00     0.108 A 
HETATM   36  N5  UNL     1      30.273   5.538  21.749  1.00  0.00    -0.310 N 
ATOM     37  H5  UNL     1      29.418   6.019  21.470  1.00  0.00     0.186 HD
ENDBRANCH  31  32
ENDBRANCH  30  31
ENDBRANCH  29  30
ENDBRANCH  27  28
ENDBRANCH  26  27
ENDBRANCH  25  26
ENDBRANCH  23  24
ENDBRANCH   5  23
TORSDOF 14
ENDMDL
MODEL 2
REMARK VINA RESULT: -8.447329656      0.735      1.312
REMARK  14 active torsions:
REMARK  status: ('A' for Active; 'I' for Inactive)
REMARK    1  A    between atoms: N1_1  and  C1_4 
REMARK    2  A    between atoms: C2_7  and  C3_8 
REMARK    3  A    between atoms: C3_8  and  C4_9 
REMARK    4  A    between atoms: C4_9  and  C5_10 
REMARK    5  A    between atoms: C5_10  and  N3_11 
REMARK    6  A    between atoms: C9_15  and  C10_16 
REMARK    7  A    between atoms: C10_16  and  C11_17 
REMARK    8  A    between atoms: C12_18  and  C13_19 
REMARK    9  A    between atoms: C13_19  and  C14_20 
REMARK   10  A    between atoms: C14_20  and  C15_21 
REMARK   11  A    between atoms: C16_22  and  C17_23 
REMARK   12  A    between atoms: C17_23  and  C18_24 
REMARK   13  A    between atoms: C18_24  and  N4_25 
REMARK   14  A    between atoms: N6_32  and  N7_33 
ROOT
HETATM    1  N3  UNL     1      24.836  -1.869  14.731  1.00  0.00    -0.366 N 
HETATM    2  C6  UNL     1      24.906  -1.996  16.084  1.00  0.00     0.090 A 
HETATM    3  C7  UNL     1      26.071  -1.728  16.754  1.00  0.00     0.018 A 
HETATM    4  C8  UNL     1      27.153  -1.328  15.989  1.00  0.00     0.011 A 
HETATM    5  C9  UNL     1      27.061  -1.207  14.625  1.00  0.00    -0.032 A 
HETATM    6  C22 UNL     1      25.869  -1.484  13.978  1.00  0.00     0.098 A 
ENDROOT
BRANCH   1   7
HETATM    7  C5  UNL     1      23.574  -2.163  14.076  1.00  0.00     0.128 C 
BRANCH   7   8
HETATM    8  C4  UNL     1      22.568  -1.042  14.220  1.00  0.00     0.028 C 
BRANCH   8   9
HETATM    9  C3  UNL     1      21.253  -1.605  14.601  1.00  0.00     0.082 C 
BRANCH   9  10
HETATM   10  C2  UNL     1      20.717  -1.256  15.908  1.00  0.00     0.137 A 
HETATM   11  N2  UNL     1      20.662  -2.152  16.943  1.00  0.00    -0.176 N 
HETATM   12  C1  UNL     1      20.091  -1.580  17.987  1.00  0.00     0.693 A 
ATOM     13  H2  UNL     1      21.008  -3.111  16.913  1.00  0.00     0.185 HD
HETATM   14  N8  UNL     1      19.765  -0.322  17.662  1.00  0.00    -0.110 N 
HETATM   15  N6  UNL     1      20.155  -0.146  16.392  1.00  0.00    -0.176 N 
ATOM     16  H8  UNL     1      19.312   0.365  18.263  1.00  0.00     0.208 HD
BRANCH  12  17
HETATM   17  N1  UNL     1      19.851  -2.092  19.167  1.00  0.00    -0.233 N 
ATOM     18  H12 UNL     1      20.582  -2.255  19.858  1.00  0.00     0.174 HD
ATOM     19  H11 UNL     1      18.959  -2.391  19.559  1.00  0.00     0.174 HD
ENDBRANCH  12  17
BRANCH  15  20
HETATM   20  N7  UNL     1      19.928   1.060  15.734  1.00  0.00    -0.322 N 
ATOM     21  H72 UNL     1      19.396   1.091  14.864  1.00  0.00     0.179 HD
ATOM     22  H71 UNL     1      20.256   1.991  15.992  1.00  0.00     0.179 HD
ENDBRANCH  15  20
ENDBRANCH   9  10
ENDBRANCH   8   9
ENDBRANCH   7   8
ENDBRANCH   1   7
BRANCH   5  23
HETATM   23  C10 UNL     1      28.251  -0.775  13.858  1.00  0.00     0.133 C 
BRANCH  23  24
HETATM   24  C11 UNL     1      29.405  -0.534  14.753  1.00  0.00    -0.102 C 
HETATM   25  C12 UNL     1      30.347  -0.330  15.481  1.00  0.00    -0.105 C 
BRANCH  25  26
HETATM   26  C13 UNL     1      31.481  -0.085  16.366  1.00  0.00     0.106 C 
BRANCH  26  27
HETATM   27  C14 UNL     1      31.135  -0.360  17.823  1.00  0.00     0.106 C 
BRANCH  27  28
HETATM   28  C15 UNL     1      30.502   0.813  18.421  1.00  0.00    -0.106 C 
HETATM   29  C16 UNL     1      29.967   1.791  18.913  1.00  0.00    -0.105 C 
BRANCH  29  30
HETATM   30  C17 UNL     1      29.334   2.976  19.482  1.00  0.00     0.115 C 
BRANCH  30  31
HETATM   31  C18 UNL     1      29.398   2.918  20.982  1.00  0.00     0.160 C 
BRANCH  31  32
HETATM   32  N4  UNL     1      30.350   3.881  21.485  1.00  0.00    -0.303 N 
HETATM   33  C19 UNL     1      31.621   3.603  21.813  1.00  0.00     0.111 A 
HETATM   34  C20 UNL     1      32.221   4.788  22.255  1.00  0.00     0.037 A 
HETATM   35  C21 UNL     1      31.240   5.743  22.165  1.00  0.00     0.108 A 
HETATM   36  N5  UNL     1      30.123   5.159  21.696  1.00  0.00    -0.310 N 
ATOM     37  H5  UNL     1      29.237   5.635  21.528  1.00  0.00     0.186 HD
ENDBRANCH  31  32
ENDBRANCH  30  31
ENDBRANCH  29  30
ENDBRANCH  27  28
ENDBRANCH  26  27
ENDBRANCH  25  26
ENDBRANCH  23  24
ENDBRANCH   5  23
TORSDOF 14
ENDMDL
MODEL 3
REMARK VINA RESULT: -8.402002953      1.345      2.131
REMARK  14 active torsions:
REMARK  status: ('A' for Active; 'I' for Inactive)
REMARK    1  A    between atoms: N1_1  and  C1_4 
REMARK    2  A    between atoms: C2_7  and  C3_8 
REMARK    3  A    between atoms: C3_8  and  C4_9 
REMARK    4  A    between atoms: C4_9  and  C5_10 
REMARK    5  A    between atoms: C5_10  and  N3_11 
REMARK    6  A    between atoms: C9_15  and  C10_16 
REMARK    7  A    between atoms: C10_16  and  C11_17 
REMARK    8  A    between atoms: C12_18  and  C13_19 
REMARK    9  A    between atoms: C13_19  and  C14_20 
REMARK   10  A    between atoms: C14_20  and  C15_21 
REMARK   11  A    between atoms: C16_22  and  C17_23 
REMARK   12  A    between atoms: C17_23  and  C18_24 
REMARK   13  A    between atoms: C18_24  and  N4_25 
REMARK   14  A    between atoms: N6_32  and  N7_33 
ROOT
HETATM    1  N3  UNL     1      25.017  -2.440  13.482  1.00  0.00    -0.366 N 
HETATM    2  C6  UNL     1      25.509  -3.222  12.483  1.00  0.00     0.090 A 
HETATM    3  C7  UNL     1      26.838  -3.179  12.149  1.00  0.00     0.018 A 
HETATM    4  C8  UNL     1      27.635  -2.311  12.874  1.00  0.00     0.011 A 
HETATM    5  C9  UNL     1      27.119  -1.531  13.878  1.00  0.00    -0.032 A 
HETATM    6  C22 UNL     1      25.772  -1.598  14.191  1.00  0.00     0.098 A 
ENDROOT
BRANCH   1   7
HETATM    7  C5  UNL     1      23.602  -2.530  13.793  1.00  0.00     0.128 C 
BRANCH   7   8
HETATM    8  C4  UNL     1      23.275  -2.008  15.175  1.00  0.00     0.028 C 
BRANCH   8   9
HETATM    9  C3  UNL     1      21.903  -2.420  15.547  1.00  0.00     0.082 C 
BRANCH   9  10
HETATM   10  C2  UNL     1      20.980  -1.387  15.992  1.00  0.00     0.137 A 
HETATM   11  N2  UNL     1      20.976  -0.125  15.461  1.00  0.00    -0.176 N 
HETATM   12  C1  UNL     1      20.071   0.610  16.082  1.00  0.00     0.693 A 
ATOM     13  H2  UNL     1      21.578   0.198  14.703  1.00  0.00     0.185 HD
HETATM   14  N8  UNL     1      19.477  -0.143  17.016  1.00  0.00    -0.110 N 
HETATM   15  N6  UNL     1      20.046  -1.355  16.945  1.00  0.00    -0.176 N 
ATOM     16  H8  UNL     1      18.737   0.149  17.655  1.00  0.00     0.208 HD
BRANCH  12  17
HETATM   17  N1  UNL     1      19.757   1.862  15.874  1.00  0.00    -0.233 N 
ATOM     18  H12 UNL     1      20.396   2.632  16.068  1.00  0.00     0.174 HD
ATOM     19  H11 UNL     1      18.885   2.244  15.510  1.00  0.00     0.174 HD
ENDBRANCH  12  17
BRANCH  15  20
HETATM   20  N7  UNL     1      19.670  -2.374  17.818  1.00  0.00    -0.322 N 
ATOM     21  H72 UNL     1      20.204  -3.242  17.871  1.00  0.00     0.179 HD
ATOM     22  H71 UNL     1      18.867  -2.402  18.446  1.00  0.00     0.179 HD
ENDBRANCH  15  20
ENDBRANCH   9  10
ENDBRANCH   8   9
ENDBRANCH   7   8
ENDBRANCH   1   7
BRANCH   5  23
HETATM   23  C10 UNL     1      28.020  -0.621  14.620  1.00  0.00     0.133 C 
BRANCH  23  24
HETATM   24  C11 UNL     1      27.950  -0.870  16.077  1.00  0.00    -0.102 C 
HETATM   25  C12 UNL     1      27.887  -1.069  17.267  1.00  0.00    -0.105 C 
BRANCH  25  26
HETATM   26  C13 UNL     1      27.810  -1.315  18.703  1.00  0.00     0.106 C 
BRANCH  26  27
HETATM   27  C14 UNL     1      29.116  -0.976  19.409  1.00  0.00     0.106 C 
BRANCH  27  28
HETATM   28  C15 UNL     1      29.280   0.472  19.498  1.00  0.00    -0.106 C 
HETATM   29  C16 UNL     1      29.412   1.681  19.579  1.00  0.00    -0.105 C 
BRANCH  29  30
HETATM   30  C17 UNL     1      29.545   3.131  19.664  1.00  0.00     0.115 C 
BRANCH  30  31
HETATM   31  C18 UNL     1      29.267   3.588  21.067  1.00  0.00     0.160 C 
BRANCH  31  32
HETATM   32  N4  UNL     1      30.394   4.323  21.593  1.00  0.00    -0.303 N 
HETATM   33  C19 UNL     1      31.584   3.786  21.902  1.00  0.00     0.111 A 
HETATM   34  C20 UNL     1      32.411   4.811  22.376  1.00  0.00     0.037 A 
HETATM   35  C21 UNL     1      31.641   5.946  22.324  1.00  0.00     0.108 A 
HETATM   36  N5  UNL     1      30.429   5.614  21.845  1.00  0.00    -0.310 N 
ATOM     37  H5  UNL     1      29.656   6.263  21.700  1.00  0.00     0.186 HD
ENDBRANCH  31  32
ENDBRANCH  30  31
ENDBRANCH  29  30
ENDBRANCH  27  28
ENDBRANCH  26  27
ENDBRANCH  25  26
ENDBRANCH  23  24
ENDBRANCH   5  23
TORSDOF 14
ENDMDL
MODEL 4
REMARK VINA RESULT: -8.385277745      1.180      2.208
REMARK  14 active torsions:
REMARK  status: ('A' for Active; 'I' for Inactive)
REMARK    1  A    between atoms: N1_1  and  C1_4 
REMARK    2  A    between atoms: C2_7  and  C3_8 
REMARK    3  A    between atoms: C3_8  and  C4_9 
REMARK    4  A    between atoms: C4_9  and  C5_10 
REMARK    5  A    between atoms: C5_10  and  N3_11 
REMARK    6  A    between atoms: C9_15  and  C10_16 
REMARK    7  A    between atoms: C10_16  and  C11_17 
REMARK    8  A    between atoms: C12_18  and  C13_19 
REMARK    9  A    between atoms: C13_19  and  C14_20 
REMARK   10  A    between atoms: C14_20  and  C15_21 
REMARK   11  A    between atoms: C16_22  and  C17_23 
REMARK   12  A    between atoms: C17_23  and  C18_24 
REMARK   13  A    between atoms: C18_24  and  N4_25 
REMARK   14  A    between atoms: N6_32  and  N7_33 
ROOT
HETATM    1  N3  UNL     1      26.078  -1.803  14.386  1.00  0.00    -0.366 N 
HETATM    2  C6  UNL     1      25.967  -1.857  15.741  1.00  0.00     0.090 A 
HETATM    3  C7  UNL     1      26.985  -1.415  16.545  1.00  0.00     0.018 A 
HETATM    4  C8  UNL     1      28.111  -0.920  15.911  1.00  0.00     0.011 A 
HETATM    5  C9  UNL     1      28.202  -0.875  14.543  1.00  0.00    -0.032 A 
HETATM    6  C22 UNL     1      27.156  -1.328  13.758  1.00  0.00     0.098 A 
ENDROOT
BRANCH   1   7
HETATM    7  C5  UNL     1      24.966  -2.282  13.585  1.00  0.00     0.128 C 
BRANCH   7   8
HETATM    8  C4  UNL     1      23.653  -1.634  13.963  1.00  0.00     0.028 C 
BRANCH   8   9
HETATM    9  C3  UNL     1      22.743  -2.656  14.528  1.00  0.00     0.082 C 
BRANCH   9  10
HETATM   10  C2  UNL     1      21.913  -2.275  15.661  1.00  0.00     0.137 A 
HETATM   11  N2  UNL     1      20.793  -1.498  15.524  1.00  0.00    -0.176 N 
HETATM   12  C1  UNL     1      20.267  -1.275  16.715  1.00  0.00     0.693 A 
ATOM     13  H2  UNL     1      20.422  -1.147  14.641  1.00  0.00     0.185 HD
HETATM   14  N8  UNL     1      21.019  -1.888  17.637  1.00  0.00    -0.110 N 
HETATM   15  N6  UNL     1      22.016  -2.490  16.975  1.00  0.00    -0.176 N 
ATOM     16  H8  UNL     1      20.863  -1.895  18.645  1.00  0.00     0.208 HD
BRANCH  12  17
HETATM   17  N1  UNL     1      19.198  -0.584  17.016  1.00  0.00    -0.233 N 
ATOM     18  H12 UNL     1      19.239   0.355  17.410  1.00  0.00     0.174 HD
ATOM     19  H11 UNL     1      18.220  -0.852  16.912  1.00  0.00     0.174 HD
ENDBRANCH  12  17
BRANCH  15  20
HETATM   20  N7  UNL     1      23.005  -3.195  17.656  1.00  0.00    -0.322 N 
ATOM     21  H72 UNL     1      23.964  -3.222  17.309  1.00  0.00     0.179 HD
ATOM     22  H71 UNL     1      22.910  -3.755  18.504  1.00  0.00     0.179 HD
ENDBRANCH  15  20
ENDBRANCH   9  10
ENDBRANCH   8   9
ENDBRANCH   7   8
ENDBRANCH   1   7
BRANCH   5  23
HETATM   23  C10 UNL     1      29.431  -0.334  13.920  1.00  0.00     0.133 C 
BRANCH  23  24
HETATM   24  C11 UNL     1      30.493  -0.124  14.928  1.00  0.00    -0.102 C 
HETATM   25  C12 UNL     1      31.357   0.045  15.757  1.00  0.00    -0.105 C 
BRANCH  25  26
HETATM   26  C13 UNL     1      32.403   0.244  16.754  1.00  0.00     0.106 C 
BRANCH  26  27
HETATM   27  C14 UNL     1      31.913  -0.066  18.162  1.00  0.00     0.106 C 
BRANCH  27  28
HETATM   28  C15 UNL     1      31.029   0.997  18.634  1.00  0.00    -0.106 C 
HETATM   29  C16 UNL     1      30.288   1.878  19.032  1.00  0.00    -0.105 C 
BRANCH  29  30
HETATM   30  C17 UNL     1      29.381   2.924  19.493  1.00  0.00     0.115 C 
BRANCH  30  31
HETATM   31  C18 UNL     1      29.367   2.963  20.994  1.00  0.00     0.160 C 
BRANCH  31  32
HETATM   32  N4  UNL     1      30.344   3.906  21.485  1.00  0.00    -0.303 N 
HETATM   33  C19 UNL     1      31.617   3.605  21.788  1.00  0.00     0.111 A 
HETATM   34  C20 UNL     1      32.245   4.776  22.226  1.00  0.00     0.037 A 
HETATM   35  C21 UNL     1      31.279   5.749  22.159  1.00  0.00     0.108 A 
HETATM   36  N5  UNL     1      30.143   5.187  21.707  1.00  0.00    -0.310 N 
ATOM     37  H5  UNL     1      29.262   5.679  21.558  1.00  0.00     0.186 HD
ENDBRANCH  31  32
ENDBRANCH  30  31
ENDBRANCH  29  30
ENDBRANCH  27  28
ENDBRANCH  26  27
ENDBRANCH  25  26
ENDBRANCH  23  24
ENDBRANCH   5  23
TORSDOF 14
ENDMDL
MODEL 5
REMARK VINA RESULT: -8.351086825      1.264      1.734
REMARK  14 active torsions:
REMARK  status: ('A' for Active; 'I' for Inactive)
REMARK    1  A    between atoms: N1_1  and  C1_4 
REMARK    2  A    between atoms: C2_7  and  C3_8 
REMARK    3  A    between atoms: C3_8  and  C4_9 
REMARK    4  A    between atoms: C4_9  and  C5_10 
REMARK    5  A    between atoms: C5_10  and  N3_11 
REMARK    6  A    between atoms: C9_15  and  C10_16 
REMARK    7  A    between atoms: C10_16  and  C11_17 
REMARK    8  A    between atoms: C12_18  and  C13_19 
REMARK    9  A    between atoms: C13_19  and  C14_20 
REMARK   10  A    between atoms: C14_20  and  C15_21 
REMARK   11  A    between atoms: C16_22  and  C17_23 
REMARK   12  A    between atoms: C17_23  and  C18_24 
REMARK   13  A    between atoms: C18_24  and  N4_25 
REMARK   14  A    between atoms: N6_32  and  N7_33 
ROOT
HETATM    1  N3  UNL     1      25.172  -2.504  13.204  1.00  0.00    -0.366 N 
HETATM    2  C6  UNL     1      25.655  -3.319  12.228  1.00  0.00     0.090 A 
HETATM    3  C7  UNL     1      26.978  -3.276  11.871  1.00  0.00     0.018 A 
HETATM    4  C8  UNL     1      27.778  -2.373  12.547  1.00  0.00     0.011 A 
HETATM    5  C9  UNL     1      27.270  -1.560  13.529  1.00  0.00    -0.032 A 
HETATM    6  C22 UNL     1      25.930  -1.627  13.867  1.00  0.00     0.098 A 
ENDROOT
BRANCH   1   7
HETATM    7  C5  UNL     1      23.764  -2.596  13.544  1.00  0.00     0.128 C 
BRANCH   7   8
HETATM    8  C4  UNL     1      23.363  -1.632  14.638  1.00  0.00     0.028 C 
BRANCH   8   9
HETATM    9  C3  UNL     1      21.965  -1.195  14.424  1.00  0.00     0.082 C 
BRANCH   9  10
HETATM   10  C2  UNL     1      21.105  -1.073  15.592  1.00  0.00     0.137 A 
HETATM   11  N2  UNL     1      20.909  -2.104  16.472  1.00  0.00    -0.176 N 
HETATM   12  C1  UNL     1      20.051  -1.728  17.403  1.00  0.00     0.693 A 
ATOM     13  H2  UNL     1      21.355  -3.019  16.417  1.00  0.00     0.185 HD
HETATM   14  N8  UNL     1      19.675  -0.467  17.155  1.00  0.00    -0.110 N 
HETATM   15  N6  UNL     1      20.328  -0.088  16.047  1.00  0.00    -0.176 N 
ATOM     16  H8  UNL     1      19.021   0.093  17.701  1.00  0.00     0.208 HD
BRANCH  12  17
HETATM   17  N1  UNL     1      19.601  -2.415  18.421  1.00  0.00    -0.233 N 
ATOM     18  H12 UNL     1      20.215  -2.849  19.110  1.00  0.00     0.174 HD
ATOM     19  H11 UNL     1      18.634  -2.614  18.673  1.00  0.00     0.174 HD
ENDBRANCH  12  17
BRANCH  15  20
HETATM   20  N7  UNL     1      20.129   1.176  15.496  1.00  0.00    -0.322 N 
ATOM     21  H72 UNL     1      19.908   1.289  14.507  1.00  0.00     0.179 HD
ATOM     22  H71 UNL     1      20.198   2.083  15.958  1.00  0.00     0.179 HD
ENDBRANCH  15  20
ENDBRANCH   9  10
ENDBRANCH   8   9
ENDBRANCH   7   8
ENDBRANCH   1   7
BRANCH   5  23
HETATM   23  C10 UNL     1      28.174  -0.612  14.219  1.00  0.00     0.133 C 
BRANCH  23  24
HETATM   24  C11 UNL     1      28.362  -0.990  15.637  1.00  0.00    -0.102 C 
HETATM   25  C12 UNL     1      28.518  -1.292  16.797  1.00  0.00    -0.105 C 
BRANCH  25  26
HETATM   26  C13 UNL     1      28.700  -1.657  18.197  1.00  0.00     0.106 C 
BRANCH  26  27
HETATM   27  C14 UNL     1      27.921  -0.739  19.130  1.00  0.00     0.106 C 
BRANCH  27  28
HETATM   28  C15 UNL     1      28.619   0.535  19.281  1.00  0.00    -0.106 C 
HETATM   29  C16 UNL     1      29.195   1.601  19.413  1.00  0.00    -0.105 C 
BRANCH  29  30
HETATM   30  C17 UNL     1      29.865   2.889  19.559  1.00  0.00     0.115 C 
BRANCH  30  31
HETATM   31  C18 UNL     1      29.368   3.585  20.793  1.00  0.00     0.160 C 
BRANCH  31  32
HETATM   32  N4  UNL     1      30.450   4.274  21.456  1.00  0.00    -0.303 N 
HETATM   33  C19 UNL     1      31.620   3.715  21.802  1.00  0.00     0.111 A 
HETATM   34  C20 UNL     1      32.404   4.697  22.416  1.00  0.00     0.037 A 
HETATM   35  C21 UNL     1      31.632   5.832  22.405  1.00  0.00     0.108 A 
HETATM   36  N5  UNL     1      30.459   5.540  21.817  1.00  0.00    -0.310 N 
ATOM     37  H5  UNL     1      29.693   6.198  21.672  1.00  0.00     0.186 HD
ENDBRANCH  31  32
ENDBRANCH  30  31
ENDBRANCH  29  30
ENDBRANCH  27  28
ENDBRANCH  26  27
ENDBRANCH  25  26
ENDBRANCH  23  24
ENDBRANCH   5  23
TORSDOF 14
ENDMDL
