MODEL 1
REMARK VINA RESULT: -7.947427947      0.000      0.000
REMARK  8 active torsions:
REMARK  status: ('A' for Active; 'I' for Inactive)
REMARK    1  A    between atoms: O1_2  and  C2_3 
REMARK    2  A    between atoms: N1_4  and  C3_5 
REMARK    3  A    between atoms: C3_5  and  C4_6 
REMARK    4  A    between atoms: N3_15  and  C11_16 
REMARK    5  A    between atoms: C11_16  and  C12_17 
REMARK    6  A    between atoms: C12_17  and  C13_18 
REMARK    7  A    between atoms: C13_18  and  N4_19 
REMARK    8  A    between atoms: C17_23  and  C18_24 
ROOT
HETATM    1  C13 UNL     1      26.938  -1.239  14.760  1.00  0.00     0.129 C 
ENDROOT
BRANCH   1   2
HETATM    2  C12 UNL     1      27.156  -1.524  16.223  1.00  0.00     0.042 C 
BRANCH   2   3
HETATM    3  C11 UNL     1      28.479  -0.972  16.707  1.00  0.00     0.154 C 
BRANCH   3   4
HETATM    4  N3  UNL     1      28.498  -0.774  18.147  1.00  0.00    -0.255 N 
HETATM    5  C2  UNL     1      29.613  -0.421  18.812  1.00  0.00     0.243 A 
HETATM    6  N1  UNL     1      29.259  -0.332  20.106  1.00  0.00    -0.302 N 
HETATM    7  C10 UNL     1      27.932  -0.630  20.214  1.00  0.00     0.203 A 
HETATM    8  N2  UNL     1      27.479  -0.904  18.980  1.00  0.00    -0.291 N 
ATOM      9  H2  UNL     1      26.524  -1.163  18.730  1.00  0.00     0.188 HD
BRANCH   5  10
HETATM   10  O1  UNL     1      30.897  -0.182  18.343  1.00  0.00    -0.326 OA
HETATM   11  C1  UNL     1      31.331   1.038  17.813  1.00  0.00     0.213 C 
ENDBRANCH   5  10
BRANCH   6  12
HETATM   12  C3  UNL     1      30.126   0.021  21.209  1.00  0.00     0.172 C 
BRANCH  12  13
HETATM   13  C4  UNL     1      30.341   1.466  21.314  1.00  0.00    -0.040 A 
HETATM   14  C5  UNL     1      31.619   1.976  21.510  1.00  0.00     0.009 A 
HETATM   15  C6  UNL     1      31.862   3.333  21.613  1.00  0.00     0.001 A 
HETATM   16  C7  UNL     1      30.810   4.231  21.520  1.00  0.00     0.000 A 
HETATM   17  C8  UNL     1      29.557   3.724  21.328  1.00  0.00     0.001 A 
HETATM   18  C9  UNL     1      29.309   2.362  21.223  1.00  0.00     0.009 A 
ENDBRANCH  12  13
ENDBRANCH   6  12
ENDBRANCH   3   4
ENDBRANCH   2   3
ENDBRANCH   1   2
BRANCH   1  19
HETATM   19  N4  UNL     1      25.635  -1.744  14.388  1.00  0.00    -0.365 N 
HETATM   20  C14 UNL     1      25.493  -2.317  13.187  1.00  0.00     0.090 A 
HETATM   21  C15 UNL     1      24.262  -2.796  12.831  1.00  0.00     0.018 A 
HETATM   22  C16 UNL     1      23.192  -2.675  13.727  1.00  0.00     0.018 A 
HETATM   23  C17 UNL     1      23.323  -2.099  14.940  1.00  0.00     0.026 A 
HETATM   24  C21 UNL     1      24.607  -1.627  15.248  1.00  0.00     0.105 A 
BRANCH  23  25
HETATM   25  C18 UNL     1      22.256  -1.982  15.909  1.00  0.00     0.149 A 
HETATM   26  N5  UNL     1      21.166  -1.175  15.705  1.00  0.00    -0.173 N 
HETATM   27  C19 UNL     1      20.358  -1.236  16.755  1.00  0.00     0.692 A 
ATOM     28  H5  UNL     1      21.001  -0.612  14.871  1.00  0.00     0.186 HD
HETATM   29  N6  UNL     1      19.215  -0.603  16.929  1.00  0.00    -0.233 N 
HETATM   30  N7  UNL     1      20.936  -2.076  17.615  1.00  0.00    -0.129 N 
ATOM     31  H62 UNL     1      18.774   0.039  16.271  1.00  0.00     0.174 HD
ATOM     32  H61 UNL     1      18.594  -0.650  17.736  1.00  0.00     0.174 HD
HETATM   33  N8  UNL     1      22.097  -2.545  17.121  1.00  0.00    -0.266 N 
ATOM     34  H7  UNL     1      20.548  -2.328  18.524  1.00  0.00     0.206 HD
HETATM   35  C20 UNL     1      22.973  -3.464  17.822  1.00  0.00     0.180 C 
ENDBRANCH  23  25
ENDBRANCH   1  19
TORSDOF 8
ENDMDL
MODEL 2
REMARK VINA RESULT: -7.824462342      1.224      1.513
REMARK  8 active torsions:
REMARK  status: ('A' for Active; 'I' for Inactive)
REMARK    1  A    between atoms: O1_2  and  C2_3 
REMARK    2  A    between atoms: N1_4  and  C3_5 
REMARK    3  A    between atoms: C3_5  and  C4_6 
REMARK    4  A    between atoms: N3_15  and  C11_16 
REMARK    5  A    between atoms: C11_16  and  C12_17 
REMARK    6  A    between atoms: C12_17  and  C13_18 
REMARK    7  A    between atoms: C13_18  and  N4_19 
REMARK    8  A    between atoms: C17_23  and  C18_24 
ROOT
HETATM    1  C13 UNL     1      27.071  -1.196  14.962  1.00  0.00     0.129 C 
ENDROOT
BRANCH   1   2
HETATM    2  C12 UNL     1      28.046  -2.345  14.975  1.00  0.00     0.042 C 
BRANCH   2   3
HETATM    3  C11 UNL     1      27.865  -3.215  16.200  1.00  0.00     0.154 C 
BRANCH   3   4
HETATM    4  N3  UNL     1      27.990  -2.458  17.434  1.00  0.00    -0.255 N 
HETATM    5  C2  UNL     1      29.182  -2.091  17.939  1.00  0.00     0.243 A 
HETATM    6  N1  UNL     1      28.914  -1.417  19.069  1.00  0.00    -0.302 N 
HETATM    7  C10 UNL     1      27.561  -1.378  19.241  1.00  0.00     0.203 A 
HETATM    8  N2  UNL     1      27.005  -2.034  18.209  1.00  0.00    -0.291 N 
ATOM      9  H2  UNL     1      26.008  -2.180  18.052  1.00  0.00     0.188 HD
BRANCH   5  10
HETATM   10  O1  UNL     1      30.465  -2.320  17.460  1.00  0.00    -0.326 OA
HETATM   11  C1  UNL     1      31.186  -1.421  16.667  1.00  0.00     0.213 C 
ENDBRANCH   5  10
BRANCH   6  12
HETATM   12  C3  UNL     1      29.884  -0.824  19.965  1.00  0.00     0.172 C 
BRANCH  12  13
HETATM   13  C4  UNL     1      29.725   0.628  20.082  1.00  0.00    -0.040 A 
HETATM   14  C5  UNL     1      29.421   1.207  21.309  1.00  0.00     0.009 A 
HETATM   15  C6  UNL     1      29.263   2.571  21.460  1.00  0.00     0.001 A 
HETATM   16  C7  UNL     1      29.409   3.408  20.364  1.00  0.00     0.000 A 
HETATM   17  C8  UNL     1      29.708   2.833  19.161  1.00  0.00     0.001 A 
HETATM   18  C9  UNL     1      29.868   1.463  19.006  1.00  0.00     0.009 A 
ENDBRANCH  12  13
ENDBRANCH   6  12
ENDBRANCH   3   4
ENDBRANCH   2   3
ENDBRANCH   1   2
BRANCH   1  19
HETATM   19  N4  UNL     1      25.785  -1.695  14.533  1.00  0.00    -0.365 N 
HETATM   20  C14 UNL     1      25.683  -2.228  13.309  1.00  0.00     0.090 A 
HETATM   21  C15 UNL     1      24.467  -2.701  12.899  1.00  0.00     0.018 A 
HETATM   22  C16 UNL     1      23.370  -2.617  13.765  1.00  0.00     0.018 A 
HETATM   23  C17 UNL     1      23.460  -2.082  15.000  1.00  0.00     0.026 A 
HETATM   24  C21 UNL     1      24.729  -1.613  15.364  1.00  0.00     0.105 A 
BRANCH  23  25
HETATM   25  C18 UNL     1      22.362  -2.004  15.939  1.00  0.00     0.149 A 
HETATM   26  N5  UNL     1      21.277  -1.193  15.733  1.00  0.00    -0.173 N 
HETATM   27  C19 UNL     1      20.436  -1.295  16.753  1.00  0.00     0.692 A 
ATOM     28  H5  UNL     1      21.136  -0.598  14.916  1.00  0.00     0.186 HD
HETATM   29  N6  UNL     1      19.287  -0.672  16.916  1.00  0.00    -0.233 N 
HETATM   30  N7  UNL     1      20.989  -2.167  17.598  1.00  0.00    -0.129 N 
ATOM     31  H62 UNL     1      18.864  -0.006  16.270  1.00  0.00     0.174 HD
ATOM     32  H61 UNL     1      18.641  -0.752  17.701  1.00  0.00     0.174 HD
HETATM   33  N8  UNL     1      22.167  -2.614  17.124  1.00  0.00    -0.266 N 
ATOM     34  H7  UNL     1      20.575  -2.455  18.485  1.00  0.00     0.206 HD
HETATM   35  C20 UNL     1      23.024  -3.558  17.815  1.00  0.00     0.180 C 
ENDBRANCH  23  25
ENDBRANCH   1  19
TORSDOF 8
ENDMDL
MODEL 3
REMARK VINA RESULT: -7.772367103      1.439      2.038
REMARK  8 active torsions:
REMARK  status: ('A' for Active; 'I' for Inactive)
REMARK    1  A    between atoms: O1_2  and  C2_3 
REMARK    2  A    between atoms: N1_4  and  C3_5 
REMARK    3  A    between atoms: C3_5  and  C4_6 
REMARK    4  A    between atoms: N3_15  and  C11_16 
REMARK    5  A    between atoms: C11_16  and  C12_17 
REMARK    6  A    between atoms: C12_17  and  C13_18 
REMARK    7  A    between atoms: C13_18  and  N4_19 
REMARK    8  A    between atoms: C17_23  and  C18_24 
ROOT
HETATM    1  C13 UNL     1      26.730  -1.601  15.649  1.00  0.00     0.129 C 
ENDROOT
BRANCH   1   2
HETATM    2  C12 UNL     1      27.651  -2.778  15.461  1.00  0.00     0.042 C 
BRANCH   2   3
HETATM    3  C11 UNL     1      27.749  -3.616  16.717  1.00  0.00     0.154 C 
BRANCH   3   4
HETATM    4  N3  UNL     1      28.025  -2.810  17.894  1.00  0.00    -0.255 N 
HETATM    5  C2  UNL     1      29.245  -2.304  18.152  1.00  0.00     0.243 A 
HETATM    6  N1  UNL     1      29.127  -1.625  19.305  1.00  0.00    -0.302 N 
HETATM    7  C10 UNL     1      27.837  -1.723  19.738  1.00  0.00     0.203 A 
HETATM    8  N2  UNL     1      27.168  -2.468  18.842  1.00  0.00    -0.291 N 
ATOM      9  H2  UNL     1      26.181  -2.722  18.883  1.00  0.00     0.188 HD
BRANCH   5  10
HETATM   10  O1  UNL     1      30.429  -2.412  17.435  1.00  0.00    -0.326 OA
HETATM   11  C1  UNL     1      30.861  -1.489  16.477  1.00  0.00     0.213 C 
ENDBRANCH   5  10
BRANCH   6  12
HETATM   12  C3  UNL     1      30.181  -0.905  19.988  1.00  0.00     0.172 C 
BRANCH  12  13
HETATM   13  C4  UNL     1      29.889   0.525  20.119  1.00  0.00    -0.040 A 
HETATM   14  C5  UNL     1      29.902   1.353  19.002  1.00  0.00     0.009 A 
HETATM   15  C6  UNL     1      29.632   2.705  19.085  1.00  0.00     0.001 A 
HETATM   16  C7  UNL     1      29.335   3.275  20.313  1.00  0.00     0.000 A 
HETATM   17  C8  UNL     1      29.323   2.457  21.407  1.00  0.00     0.001 A 
HETATM   18  C9  UNL     1      29.594   1.098  21.327  1.00  0.00     0.009 A 
ENDBRANCH  12  13
ENDBRANCH   6  12
ENDBRANCH   3   4
ENDBRANCH   2   3
ENDBRANCH   1   2
BRANCH   1  19
HETATM   19  N4  UNL     1      25.471  -1.901  15.006  1.00  0.00    -0.365 N 
HETATM   20  C14 UNL     1      25.492  -2.433  13.779  1.00  0.00     0.090 A 
HETATM   21  C15 UNL     1      24.302  -2.719  13.167  1.00  0.00     0.018 A 
HETATM   22  C16 UNL     1      23.103  -2.448  13.837  1.00  0.00     0.018 A 
HETATM   23  C17 UNL     1      23.068  -1.911  15.074  1.00  0.00     0.026 A 
HETATM   24  C21 UNL     1      24.318  -1.640  15.649  1.00  0.00     0.105 A 
BRANCH  23  25
HETATM   25  C18 UNL     1      21.856  -1.646  15.817  1.00  0.00     0.149 A 
HETATM   26  N5  UNL     1      21.428  -2.456  16.836  1.00  0.00    -0.173 N 
HETATM   27  C19 UNL     1      20.284  -2.000  17.326  1.00  0.00     0.692 A 
ATOM     28  H5  UNL     1      21.918  -3.287  17.169  1.00  0.00     0.186 HD
HETATM   29  N6  UNL     1      19.568  -2.507  18.309  1.00  0.00    -0.233 N 
HETATM   30  N7  UNL     1      19.991  -0.908  16.618  1.00  0.00    -0.129 N 
ATOM     31  H62 UNL     1      19.792  -3.343  18.850  1.00  0.00     0.174 HD
ATOM     32  H61 UNL     1      18.688  -2.156  18.685  1.00  0.00     0.174 HD
HETATM   33  N8  UNL     1      20.936  -0.670  15.689  1.00  0.00    -0.266 N 
ATOM     34  H7  UNL     1      19.163  -0.330  16.762  1.00  0.00     0.206 HD
HETATM   35  C20 UNL     1      20.901   0.432  14.748  1.00  0.00     0.180 C 
ENDBRANCH  23  25
ENDBRANCH   1  19
TORSDOF 8
ENDMDL
MODEL 4
REMARK VINA RESULT: -7.761927460      1.307      2.154
REMARK  8 active torsions:
REMARK  status: ('A' for Active; 'I' for Inactive)
REMARK    1  A    between atoms: O1_2  and  C2_3 
REMARK    2  A    between atoms: N1_4  and  C3_5 
REMARK    3  A    between atoms: C3_5  and  C4_6 
REMARK    4  A    between atoms: N3_15  and  C11_16 
REMARK    5  A    between atoms: C11_16  and  C12_17 
REMARK    6  A    between atoms: C12_17  and  C13_18 
REMARK    7  A    between atoms: C13_18  and  N4_19 
REMARK    8  A    between atoms: C17_23  and  C18_24 
ROOT
HETATM    1  C13 UNL     1      26.876  -2.091  16.656  1.00  0.00     0.129 C 
ENDROOT
BRANCH   1   2
HETATM    2  C12 UNL     1      27.874  -1.065  16.185  1.00  0.00     0.042 C 
BRANCH   2   3
HETATM    3  C11 UNL     1      29.294  -1.574  16.301  1.00  0.00     0.154 C 
BRANCH   3   4
HETATM    4  N3  UNL     1      30.121  -0.713  17.129  1.00  0.00    -0.255 N 
HETATM    5  C2  UNL     1      30.143  -0.806  18.471  1.00  0.00     0.243 A 
HETATM    6  N1  UNL     1      31.006   0.133  18.893  1.00  0.00    -0.302 N 
HETATM    7  C10 UNL     1      31.501   0.789  17.804  1.00  0.00     0.203 A 
HETATM    8  N2  UNL     1      30.935   0.245  16.715  1.00  0.00    -0.291 N 
ATOM      9  H2  UNL     1      31.101   0.518  15.746  1.00  0.00     0.188 HD
BRANCH   5  10
HETATM   10  O1  UNL     1      29.453  -1.660  19.320  1.00  0.00    -0.326 OA
HETATM   11  C1  UNL     1      28.221  -1.361  19.913  1.00  0.00     0.213 C 
ENDBRANCH   5  10
BRANCH   6  12
HETATM   12  C3  UNL     1      31.362   0.415  20.268  1.00  0.00     0.172 C 
BRANCH  12  13
HETATM   13  C4  UNL     1      30.932   1.749  20.695  1.00  0.00    -0.040 A 
HETATM   14  C5  UNL     1      31.822   2.607  21.330  1.00  0.00     0.009 A 
HETATM   15  C6  UNL     1      31.455   3.872  21.748  1.00  0.00     0.001 A 
HETATM   16  C7  UNL     1      30.159   4.319  21.537  1.00  0.00     0.000 A 
HETATM   17  C8  UNL     1      29.288   3.471  20.913  1.00  0.00     0.001 A 
HETATM   18  C9  UNL     1      29.655   2.200  20.492  1.00  0.00     0.009 A 
ENDBRANCH  12  13
ENDBRANCH   6  12
ENDBRANCH   3   4
ENDBRANCH   2   3
ENDBRANCH   1   2
BRANCH   1  19
HETATM   19  N4  UNL     1      25.757  -2.090  15.743  1.00  0.00    -0.365 N 
HETATM   20  C14 UNL     1      25.994  -2.297  14.442  1.00  0.00     0.090 A 
HETATM   21  C15 UNL     1      24.937  -2.295  13.574  1.00  0.00     0.018 A 
HETATM   22  C16 UNL     1      23.644  -2.079  14.067  1.00  0.00     0.018 A 
HETATM   23  C17 UNL     1      23.392  -1.869  15.375  1.00  0.00     0.026 A 
HETATM   24  C21 UNL     1      24.514  -1.881  16.215  1.00  0.00     0.105 A 
BRANCH  23  25
HETATM   25  C18 UNL     1      22.071  -1.676  15.932  1.00  0.00     0.149 A 
HETATM   26  N5  UNL     1      21.596  -2.432  16.972  1.00  0.00    -0.173 N 
HETATM   27  C19 UNL     1      20.356  -2.064  17.268  1.00  0.00     0.692 A 
ATOM     28  H5  UNL     1      22.118  -3.169  17.448  1.00  0.00     0.186 HD
HETATM   29  N6  UNL     1      19.572  -2.557  18.204  1.00  0.00    -0.233 N 
HETATM   30  N7  UNL     1      20.053  -1.082  16.418  1.00  0.00    -0.129 N 
ATOM     31  H62 UNL     1      19.804  -3.309  18.853  1.00  0.00     0.174 HD
ATOM     32  H61 UNL     1      18.619  -2.274  18.431  1.00  0.00     0.174 HD
HETATM   33  N8  UNL     1      21.084  -0.826  15.591  1.00  0.00    -0.266 N 
ATOM     34  H7  UNL     1      19.159  -0.591  16.398  1.00  0.00     0.206 HD
HETATM   35  C20 UNL     1      21.063   0.174  14.542  1.00  0.00     0.180 C 
ENDBRANCH  23  25
ENDBRANCH   1  19
TORSDOF 8
ENDMDL
MODEL 5
REMARK VINA RESULT: -7.754459451      1.785      2.704
REMARK  8 active torsions:
REMARK  status: ('A' for Active; 'I' for Inactive)
REMARK    1  A    between atoms: O1_2  and  C2_3 
REMARK    2  A    between atoms: N1_4  and  C3_5 
REMARK    3  A    between atoms: C3_5  and  C4_6 
REMARK    4  A    between atoms: N3_15  and  C11_16 
REMARK    5  A    between atoms: C11_16  and  C12_17 
REMARK    6  A    between atoms: C12_17  and  C13_18 
REMARK    7  A    between atoms: C13_18  and  N4_19 
REMARK    8  A    between atoms: C17_23  and  C18_24 
ROOT
HETATM    1  C13 UNL     1      26.725  -1.654  15.712  1.00  0.00     0.129 C 
ENDROOT
BRANCH   1   2
HETATM    2  C12 UNL     1      27.677  -1.049  14.713  1.00  0.00     0.042 C 
BRANCH   2   3
HETATM    3  C11 UNL     1      29.023  -1.741  14.736  1.00  0.00     0.154 C 
BRANCH   3   4
HETATM    4  N3  UNL     1      30.016  -0.985  15.479  1.00  0.00    -0.255 N 
HETATM    5  C2  UNL     1      30.158  -1.095  16.813  1.00  0.00     0.243 A 
HETATM    6  N1  UNL     1      31.157  -0.261  17.148  1.00  0.00    -0.302 N 
HETATM    7  C10 UNL     1      31.614   0.347  16.016  1.00  0.00     0.203 A 
HETATM    8  N2  UNL     1      30.887  -0.119  14.987  1.00  0.00    -0.291 N 
ATOM      9  H2  UNL     1      30.989   0.145  14.007  1.00  0.00     0.188 HD
BRANCH   5  10
HETATM   10  O1  UNL     1      29.463  -1.877  17.725  1.00  0.00    -0.326 OA
HETATM   11  C1  UNL     1      29.791  -3.198  18.047  1.00  0.00     0.213 C 
ENDBRANCH   5  10
BRANCH   6  12
HETATM   12  C3  UNL     1      31.674  -0.036  18.482  1.00  0.00     0.172 C 
BRANCH  12  13
HETATM   13  C4  UNL     1      30.829   0.871  19.264  1.00  0.00    -0.040 A 
HETATM   14  C5  UNL     1      30.162   0.413  20.394  1.00  0.00     0.009 A 
HETATM   15  C6  UNL     1      29.356   1.237  21.157  1.00  0.00     0.001 A 
HETATM   16  C7  UNL     1      29.196   2.567  20.801  1.00  0.00     0.000 A 
HETATM   17  C8  UNL     1      29.854   3.011  19.690  1.00  0.00     0.001 A 
HETATM   18  C9  UNL     1      30.664   2.186  18.921  1.00  0.00     0.009 A 
ENDBRANCH  12  13
ENDBRANCH   6  12
ENDBRANCH   3   4
ENDBRANCH   2   3
ENDBRANCH   1   2
BRANCH   1  19
HETATM   19  N4  UNL     1      25.473  -1.921  15.042  1.00  0.00    -0.365 N 
HETATM   20  C14 UNL     1      25.507  -2.414  13.798  1.00  0.00     0.090 A 
HETATM   21  C15 UNL     1      24.324  -2.668  13.160  1.00  0.00     0.018 A 
HETATM   22  C16 UNL     1      23.117  -2.407  13.821  1.00  0.00     0.018 A 
HETATM   23  C17 UNL     1      23.070  -1.910  15.075  1.00  0.00     0.026 A 
HETATM   24  C21 UNL     1      24.312  -1.670  15.676  1.00  0.00     0.105 A 
BRANCH  23  25
HETATM   25  C18 UNL     1      21.849  -1.657  15.807  1.00  0.00     0.149 A 
HETATM   26  N5  UNL     1      21.408  -2.486  16.806  1.00  0.00    -0.173 N 
HETATM   27  C19 UNL     1      20.258  -2.037  17.290  1.00  0.00     0.692 A 
ATOM     28  H5  UNL     1      21.891  -3.325  17.128  1.00  0.00     0.186 HD
HETATM   29  N6  UNL     1      19.530  -2.562  18.255  1.00  0.00    -0.233 N 
HETATM   30  N7  UNL     1      19.976  -0.931  16.601  1.00  0.00    -0.129 N 
ATOM     31  H62 UNL     1      19.746  -3.408  18.782  1.00  0.00     0.174 HD
ATOM     32  H61 UNL     1      18.646  -2.217  18.627  1.00  0.00     0.174 HD
HETATM   33  N8  UNL     1      20.933  -0.677  15.687  1.00  0.00    -0.266 N 
ATOM     34  H7  UNL     1      19.147  -0.354  16.746  1.00  0.00     0.206 HD
HETATM   35  C20 UNL     1      20.911   0.443  14.768  1.00  0.00     0.180 C 
ENDBRANCH  23  25
ENDBRANCH   1  19
TORSDOF 8
ENDMDL
