MODEL 1
REMARK VINA RESULT: -6.490801771      0.000      0.000
REMARK  13 active torsions:
REMARK  status: ('A' for Active; 'I' for Inactive)
REMARK    1  A    between atoms: C3_3  and  C4_4 
REMARK    2  A    between atoms: C4_4  and  C5_5 
REMARK    3  A    between atoms: C5_5  and  C6_6 
REMARK    4  A    between atoms: C6_6  and  C7_7 
REMARK    5  A    between atoms: C8_8  and  C9_9 
REMARK    6  A    between atoms: C9_9  and  N1_10 
REMARK    7  A    between atoms: C15_16  and  N2_17 
REMARK    8  A    between atoms: N2_17  and  N3_18 
REMARK    9  A    between atoms: C16_21  and  O1_22 
REMARK   10  A    between atoms: C17_24  and  O2_25 
REMARK   11  A    between atoms: C18_27  and  N4_28 
REMARK   12  A    between atoms: N4_28  and  C21_31 
REMARK   13  A    between atoms: N5_34  and  O3_35 
ROOT
HETATM    1  C1  UNL     1      19.937  -1.262  18.467  1.00  0.00     0.012 C 
HETATM    2  C2  UNL     1      20.447  -1.602  17.430  1.00  0.00    -0.117 C 
HETATM    3  C3  UNL     1      21.051  -2.023  16.182  1.00  0.00     0.093 C 
ENDROOT
BRANCH   3   4
HETATM    4  C4  UNL     1      20.967  -0.927  15.141  1.00  0.00     0.013 C 
BRANCH   4   5
HETATM    5  C5  UNL     1      22.181  -0.936  14.247  1.00  0.00     0.013 C 
BRANCH   5   6
HETATM    6  C6  UNL     1      22.620  -2.352  13.925  1.00  0.00     0.094 C 
BRANCH   6   7
HETATM    7  C7  UNL     1      24.031  -2.407  13.564  1.00  0.00    -0.105 C 
HETATM    8  C8  UNL     1      25.177  -2.438  13.258  1.00  0.00    -0.086 C 
BRANCH   8   9
HETATM    9  C9  UNL     1      26.585  -2.454  12.877  1.00  0.00     0.221 C 
BRANCH   9  10
HETATM   10  N1  UNL     1      27.395  -2.031  13.995  1.00  0.00    -0.355 N 
HETATM   11  C10 UNL     1      28.321  -1.070  13.828  1.00  0.00     0.094 A 
HETATM   12  C11 UNL     1      29.120  -0.631  14.865  1.00  0.00     0.049 A 
HETATM   13  C12 UNL     1      28.948  -1.219  16.131  1.00  0.00     0.070 A 
HETATM   14  C13 UNL     1      27.997  -2.205  16.300  1.00  0.00     0.010 A 
HETATM   15  N5  UNL     1      29.861  -0.629  17.049  1.00  0.00    -0.226 N 
HETATM   16  C14 UNL     1      27.228  -2.595  15.205  1.00  0.00     0.102 A 
HETATM   17  C15 UNL     1      27.621  -2.969  17.482  1.00  0.00     0.166 C 
HETATM   18  C16 UNL     1      28.011  -2.393  18.798  1.00  0.00     0.176 C 
HETATM   19  C17 UNL     1      29.515  -2.096  18.861  1.00  0.00     0.201 C 
HETATM   20  C18 UNL     1      29.794  -0.654  18.457  1.00  0.00     0.348 C 
BRANCH  17  21
HETATM   21  N2  UNL     1      26.166  -3.170  17.529  1.00  0.00    -0.136 NA
BRANCH  21  22
HETATM   22  N3  UNL     1      25.805  -3.970  18.631  1.00  0.00    -0.348 N 
ATOM     23  H32 UNL     1      25.276  -3.625  19.432  1.00  0.00     0.172 HD
ATOM     24  H31 UNL     1      26.143  -4.925  18.513  1.00  0.00     0.172 HD
ENDBRANCH  21  22
ENDBRANCH  17  21
BRANCH  18  25
HETATM   25  O1  UNL     1      27.236  -1.298  19.107  1.00  0.00    -0.391 OA
ATOM     26  H1  UNL     1      27.769  -0.589  19.448  1.00  0.00     0.210 HD
ENDBRANCH  18  25
BRANCH  19  27
HETATM   27  O2  UNL     1      30.097  -3.001  17.971  1.00  0.00    -0.389 OA
ATOM     28  H2  UNL     1      31.033  -2.895  18.092  1.00  0.00     0.210 HD
ENDBRANCH  19  27
BRANCH  20  29
HETATM   29  N4  UNL     1      30.775  -0.006  19.210  1.00  0.00    -0.039 N 
HETATM   30  C19 UNL     1      30.409  -0.134  20.638  1.00  0.00     0.276 C 
HETATM   31  C20 UNL     1      32.015  -0.800  19.104  1.00  0.00     0.276 C 
BRANCH  29  32
HETATM   32  C21 UNL     1      31.144   1.333  19.017  1.00  0.00     0.331 C 
HETATM   33  C22 UNL     1      30.094   2.324  19.332  1.00  0.00    -0.089 C 
HETATM   34  C23 UNL     1      29.253   3.143  19.581  1.00  0.00     0.013 C 
ENDBRANCH  29  32
ENDBRANCH  20  29
BRANCH  15  35
HETATM   35  O3  UNL     1      30.883   0.008  16.403  1.00  0.00    -0.285 OA
ATOM     36  H3  UNL     1      31.724  -0.191  16.798  1.00  0.00     0.245 HD
ENDBRANCH  15  35
ENDBRANCH   9  10
ENDBRANCH   8   9
ENDBRANCH   6   7
ENDBRANCH   5   6
ENDBRANCH   4   5
ENDBRANCH   3   4
TORSDOF 13
ENDMDL
MODEL 2
REMARK VINA RESULT: -6.214470648      1.750      3.271
REMARK  13 active torsions:
REMARK  status: ('A' for Active; 'I' for Inactive)
REMARK    1  A    between atoms: C3_3  and  C4_4 
REMARK    2  A    between atoms: C4_4  and  C5_5 
REMARK    3  A    between atoms: C5_5  and  C6_6 
REMARK    4  A    between atoms: C6_6  and  C7_7 
REMARK    5  A    between atoms: C8_8  and  C9_9 
REMARK    6  A    between atoms: C9_9  and  N1_10 
REMARK    7  A    between atoms: C15_16  and  N2_17 
REMARK    8  A    between atoms: N2_17  and  N3_18 
REMARK    9  A    between atoms: C16_21  and  O1_22 
REMARK   10  A    between atoms: C17_24  and  O2_25 
REMARK   11  A    between atoms: C18_27  and  N4_28 
REMARK   12  A    between atoms: N4_28  and  C21_31 
REMARK   13  A    between atoms: N5_34  and  O3_35 
ROOT
HETATM    1  C1  UNL     1      20.319  -1.605  17.665  1.00  0.00     0.012 C 
HETATM    2  C2  UNL     1      20.503  -1.437  16.486  1.00  0.00    -0.117 C 
HETATM    3  C3  UNL     1      20.715  -1.224  15.069  1.00  0.00     0.093 C 
ENDROOT
BRANCH   3   4
HETATM    4  C4  UNL     1      22.154  -0.848  14.785  1.00  0.00     0.013 C 
BRANCH   4   5
HETATM    5  C5  UNL     1      23.063  -2.042  14.937  1.00  0.00     0.013 C 
BRANCH   5   6
HETATM    6  C6  UNL     1      23.707  -2.419  13.616  1.00  0.00     0.094 C 
BRANCH   6   7
HETATM    7  C7  UNL     1      25.137  -2.137  13.617  1.00  0.00    -0.105 C 
HETATM    8  C8  UNL     1      26.298  -1.889  13.613  1.00  0.00    -0.086 C 
BRANCH   8   9
HETATM    9  C9  UNL     1      27.719  -1.565  13.615  1.00  0.00     0.221 C 
BRANCH   9  10
HETATM   10  N1  UNL     1      28.149  -1.270  14.962  1.00  0.00    -0.355 N 
HETATM   11  C10 UNL     1      27.305  -1.454  15.992  1.00  0.00     0.094 A 
HETATM   12  C11 UNL     1      27.668  -1.187  17.297  1.00  0.00     0.049 A 
HETATM   13  C12 UNL     1      28.968  -0.707  17.540  1.00  0.00     0.070 A 
HETATM   14  C13 UNL     1      29.833  -0.519  16.481  1.00  0.00     0.010 A 
HETATM   15  N5  UNL     1      29.136  -0.498  18.937  1.00  0.00    -0.226 N 
HETATM   16  C14 UNL     1      29.393  -0.811  15.191  1.00  0.00     0.102 A 
HETATM   17  C15 UNL     1      31.208  -0.039  16.452  1.00  0.00     0.166 C 
HETATM   18  C16 UNL     1      31.962  -0.104  17.733  1.00  0.00     0.176 C 
HETATM   19  C17 UNL     1      31.213   0.612  18.866  1.00  0.00     0.201 C 
HETATM   20  C18 UNL     1      30.349  -0.374  19.643  1.00  0.00     0.348 C 
BRANCH  17  21
HETATM   21  N2  UNL     1      31.998  -0.785  15.463  1.00  0.00    -0.136 NA
BRANCH  21  22
HETATM   22  N3  UNL     1      33.269  -0.204  15.294  1.00  0.00    -0.348 N 
ATOM     23  H32 UNL     1      33.795   0.239  16.049  1.00  0.00     0.172 HD
ATOM     24  H31 UNL     1      33.582  -0.287  14.327  1.00  0.00     0.172 HD
ENDBRANCH  21  22
ENDBRANCH  17  21
BRANCH  18  25
HETATM   25  O1  UNL     1      32.291  -1.403  18.046  1.00  0.00    -0.391 OA
ATOM     26  H1  UNL     1      33.077  -1.436  18.581  1.00  0.00     0.210 HD
ENDBRANCH  18  25
BRANCH  19  27
HETATM   27  O2  UNL     1      30.440   1.583  18.228  1.00  0.00    -0.389 OA
ATOM     28  H2  UNL     1      29.545   1.276  18.311  1.00  0.00     0.210 HD
ENDBRANCH  19  27
BRANCH  20  29
HETATM   29  N4  UNL     1      30.332  -0.185  21.026  1.00  0.00    -0.039 N 
HETATM   30  C19 UNL     1      30.320  -1.518  21.666  1.00  0.00     0.276 C 
HETATM   31  C20 UNL     1      31.645   0.368  21.416  1.00  0.00     0.276 C 
BRANCH  29  32
HETATM   32  C21 UNL     1      29.366   0.582  21.693  1.00  0.00     0.331 C 
HETATM   33  C22 UNL     1      29.417   2.032  21.417  1.00  0.00    -0.089 C 
HETATM   34  C23 UNL     1      29.443   3.213  21.207  1.00  0.00     0.013 C 
ENDBRANCH  29  32
ENDBRANCH  20  29
BRANCH  15  35
HETATM   35  O3  UNL     1      27.934  -0.421  19.582  1.00  0.00    -0.285 OA
ATOM     36  H3  UNL     1      28.009  -0.678  20.494  1.00  0.00     0.245 HD
ENDBRANCH  15  35
ENDBRANCH   9  10
ENDBRANCH   8   9
ENDBRANCH   6   7
ENDBRANCH   5   6
ENDBRANCH   4   5
ENDBRANCH   3   4
TORSDOF 13
ENDMDL
MODEL 3
REMARK VINA RESULT: -6.124711896      3.263      8.287
REMARK  13 active torsions:
REMARK  status: ('A' for Active; 'I' for Inactive)
REMARK    1  A    between atoms: C3_3  and  C4_4 
REMARK    2  A    between atoms: C4_4  and  C5_5 
REMARK    3  A    between atoms: C5_5  and  C6_6 
REMARK    4  A    between atoms: C6_6  and  C7_7 
REMARK    5  A    between atoms: C8_8  and  C9_9 
REMARK    6  A    between atoms: C9_9  and  N1_10 
REMARK    7  A    between atoms: C15_16  and  N2_17 
REMARK    8  A    between atoms: N2_17  and  N3_18 
REMARK    9  A    between atoms: C16_21  and  O1_22 
REMARK   10  A    between atoms: C17_24  and  O2_25 
REMARK   11  A    between atoms: C18_27  and  N4_28 
REMARK   12  A    between atoms: N4_28  and  C21_31 
REMARK   13  A    between atoms: N5_34  and  O3_35 
ROOT
HETATM    1  C1  UNL     1      32.102   6.383  23.274  1.00  0.00     0.012 C 
HETATM    2  C2  UNL     1      31.779   5.462  22.568  1.00  0.00    -0.117 C 
HETATM    3  C3  UNL     1      31.398   4.345  21.728  1.00  0.00     0.093 C 
ENDROOT
BRANCH   3   4
HETATM    4  C4  UNL     1      29.893   4.257  21.591  1.00  0.00     0.013 C 
BRANCH   4   5
HETATM    5  C5  UNL     1      29.476   2.904  21.071  1.00  0.00     0.013 C 
BRANCH   5   6
HETATM    6  C6  UNL     1      29.254   2.933  19.571  1.00  0.00     0.094 C 
BRANCH   6   7
HETATM    7  C7  UNL     1      30.116   1.980  18.883  1.00  0.00    -0.105 C 
HETATM    8  C8  UNL     1      30.812   1.190  18.334  1.00  0.00    -0.086 C 
BRANCH   8   9
HETATM    9  C9  UNL     1      31.652   0.204  17.665  1.00  0.00     0.221 C 
BRANCH   9  10
HETATM   10  N1  UNL     1      30.916  -0.406  16.582  1.00  0.00    -0.355 N 
HETATM   11  C10 UNL     1      31.562  -0.805  15.473  1.00  0.00     0.094 A 
HETATM   12  C11 UNL     1      30.904  -1.392  14.410  1.00  0.00     0.049 A 
HETATM   13  C12 UNL     1      29.511  -1.571  14.508  1.00  0.00     0.070 A 
HETATM   14  C13 UNL     1      28.851  -1.160  15.648  1.00  0.00     0.010 A 
HETATM   15  N5  UNL     1      29.034  -2.187  13.318  1.00  0.00    -0.226 N 
HETATM   16  C14 UNL     1      29.585  -0.576  16.678  1.00  0.00     0.102 A 
HETATM   17  C15 UNL     1      27.439  -1.223  16.002  1.00  0.00     0.166 C 
HETATM   18  C16 UNL     1      26.604  -2.189  15.238  1.00  0.00     0.176 C 
HETATM   19  C17 UNL     1      26.724  -1.966  13.724  1.00  0.00     0.201 C 
HETATM   20  C18 UNL     1      27.808  -2.859  13.135  1.00  0.00     0.348 C 
BRANCH  17  21
HETATM   21  N2  UNL     1      27.274  -1.560  17.423  1.00  0.00    -0.136 NA
BRANCH  21  22
HETATM   22  N3  UNL     1      25.929  -1.854  17.716  1.00  0.00    -0.348 N 
ATOM     23  H32 UNL     1      25.471  -2.728  17.457  1.00  0.00     0.172 HD
ATOM     24  H31 UNL     1      25.488  -1.082  18.215  1.00  0.00     0.172 HD
ENDBRANCH  21  22
ENDBRANCH  17  21
BRANCH  18  25
HETATM   25  O1  UNL     1      26.883  -3.485  15.611  1.00  0.00    -0.391 OA
ATOM     26  H1  UNL     1      26.553  -3.666  16.484  1.00  0.00     0.210 HD
ENDBRANCH  18  25
BRANCH  19  27
HETATM   27  O2  UNL     1      27.039  -0.613  13.586  1.00  0.00    -0.389 OA
ATOM     28  H2  UNL     1      26.205  -0.162  13.638  1.00  0.00     0.210 HD
ENDBRANCH  19  27
BRANCH  20  29
HETATM   29  N4  UNL     1      27.502  -3.422  11.895  1.00  0.00    -0.039 N 
HETATM   30  C19 UNL     1      28.076  -4.785  11.861  1.00  0.00     0.276 C 
HETATM   31  C20 UNL     1      26.047  -3.664  11.862  1.00  0.00     0.276 C 
BRANCH  29  32
HETATM   32  C21 UNL     1      27.833  -2.826  10.669  1.00  0.00     0.331 C 
HETATM   33  C22 UNL     1      27.183  -3.426   9.486  1.00  0.00    -0.089 C 
HETATM   34  C23 UNL     1      26.668  -3.902   8.512  1.00  0.00     0.013 C 
ENDBRANCH  29  32
ENDBRANCH  20  29
BRANCH  15  35
HETATM   35  O3  UNL     1      29.929  -2.064  12.293  1.00  0.00    -0.285 OA
ATOM     36  H3  UNL     1      29.565  -2.370  11.471  1.00  0.00     0.245 HD
ENDBRANCH  15  35
ENDBRANCH   9  10
ENDBRANCH   8   9
ENDBRANCH   6   7
ENDBRANCH   5   6
ENDBRANCH   4   5
ENDBRANCH   3   4
TORSDOF 13
ENDMDL
MODEL 4
REMARK VINA RESULT: -5.973700487      1.934      3.505
REMARK  13 active torsions:
REMARK  status: ('A' for Active; 'I' for Inactive)
REMARK    1  A    between atoms: C3_3  and  C4_4 
REMARK    2  A    between atoms: C4_4  and  C5_5 
REMARK    3  A    between atoms: C5_5  and  C6_6 
REMARK    4  A    between atoms: C6_6  and  C7_7 
REMARK    5  A    between atoms: C8_8  and  C9_9 
REMARK    6  A    between atoms: C9_9  and  N1_10 
REMARK    7  A    between atoms: C15_16  and  N2_17 
REMARK    8  A    between atoms: N2_17  and  N3_18 
REMARK    9  A    between atoms: C16_21  and  O1_22 
REMARK   10  A    between atoms: C17_24  and  O2_25 
REMARK   11  A    between atoms: C18_27  and  N4_28 
REMARK   12  A    between atoms: N4_28  and  C21_31 
REMARK   13  A    between atoms: N5_34  and  O3_35 
ROOT
HETATM    1  C1  UNL     1      20.297  -1.626  17.710  1.00  0.00     0.012 C 
HETATM    2  C2  UNL     1      20.465  -1.307  16.561  1.00  0.00    -0.117 C 
HETATM    3  C3  UNL     1      20.662  -0.909  15.182  1.00  0.00     0.093 C 
ENDROOT
BRANCH   3   4
HETATM    4  C4  UNL     1      22.131  -0.924  14.816  1.00  0.00     0.013 C 
BRANCH   4   5
HETATM    5  C5  UNL     1      22.666  -2.334  14.792  1.00  0.00     0.013 C 
BRANCH   5   6
HETATM    6  C6  UNL     1      23.404  -2.624  13.499  1.00  0.00     0.094 C 
BRANCH   6   7
HETATM    7  C7  UNL     1      24.813  -2.260  13.592  1.00  0.00    -0.105 C 
HETATM    8  C8  UNL     1      25.955  -1.946  13.673  1.00  0.00    -0.086 C 
BRANCH   8   9
HETATM    9  C9  UNL     1      27.352  -1.546  13.787  1.00  0.00     0.221 C 
BRANCH   9  10
HETATM   10  N1  UNL     1      27.689  -1.352  15.178  1.00  0.00    -0.355 N 
HETATM   11  C10 UNL     1      26.812  -1.696  16.136  1.00  0.00     0.094 A 
HETATM   12  C11 UNL     1      27.087  -1.530  17.479  1.00  0.00     0.049 A 
HETATM   13  C12 UNL     1      28.332  -0.982  17.839  1.00  0.00     0.070 A 
HETATM   14  C13 UNL     1      29.232  -0.630  16.853  1.00  0.00     0.010 A 
HETATM   15  N5  UNL     1      28.413  -0.897  19.257  1.00  0.00    -0.226 N 
HETATM   16  C14 UNL     1      28.880  -0.828  15.519  1.00  0.00     0.102 A 
HETATM   17  C15 UNL     1      30.565  -0.051  16.947  1.00  0.00     0.166 C 
HETATM   18  C16 UNL     1      31.257  -0.184  18.258  1.00  0.00     0.176 C 
HETATM   19  C17 UNL     1      30.399   0.362  19.408  1.00  0.00     0.201 C 
HETATM   20  C18 UNL     1      29.577  -0.754  20.040  1.00  0.00     0.348 C 
BRANCH  17  21
HETATM   21  N2  UNL     1      31.459  -0.639  15.941  1.00  0.00    -0.136 NA
BRANCH  21  22
HETATM   22  N3  UNL     1      32.692   0.040  15.907  1.00  0.00    -0.348 N 
ATOM     23  H32 UNL     1      32.824   0.954  15.474  1.00  0.00     0.172 HD
ATOM     24  H31 UNL     1      33.420  -0.504  16.370  1.00  0.00     0.172 HD
ENDBRANCH  21  22
ENDBRANCH  17  21
BRANCH  18  25
HETATM   25  O1  UNL     1      31.671  -1.480  18.468  1.00  0.00    -0.391 OA
ATOM     26  H1  UNL     1      31.152  -2.090  17.956  1.00  0.00     0.210 HD
ENDBRANCH  18  25
BRANCH  19  27
HETATM   27  O2  UNL     1      29.585   1.331  18.819  1.00  0.00    -0.389 OA
ATOM     28  H2  UNL     1      28.707   1.124  19.113  1.00  0.00     0.210 HD
ENDBRANCH  19  27
BRANCH  20  29
HETATM   29  N4  UNL     1      29.476  -0.701  21.431  1.00  0.00    -0.039 N 
HETATM   30  C19 UNL     1      29.142  -2.058  21.914  1.00  0.00     0.276 C 
HETATM   31  C20 UNL     1      30.833  -0.474  21.967  1.00  0.00     0.276 C 
BRANCH  29  32
HETATM   32  C21 UNL     1      28.627   0.181  22.115  1.00  0.00     0.331 C 
HETATM   33  C22 UNL     1      27.679  -0.461  23.049  1.00  0.00    -0.089 C 
HETATM   34  C23 UNL     1      26.900  -0.963  23.811  1.00  0.00     0.013 C 
ENDBRANCH  29  32
ENDBRANCH  20  29
BRANCH  15  35
HETATM   35  O3  UNL     1      27.179  -0.971  19.837  1.00  0.00    -0.285 OA
ATOM     36  H3  UNL     1      26.816  -1.848  19.777  1.00  0.00     0.245 HD
ENDBRANCH  15  35
ENDBRANCH   9  10
ENDBRANCH   8   9
ENDBRANCH   6   7
ENDBRANCH   5   6
ENDBRANCH   4   5
ENDBRANCH   3   4
TORSDOF 13
ENDMDL
MODEL 5
REMARK VINA RESULT: -5.881825087      1.404      2.138
REMARK  13 active torsions:
REMARK  status: ('A' for Active; 'I' for Inactive)
REMARK    1  A    between atoms: C3_3  and  C4_4 
REMARK    2  A    between atoms: C4_4  and  C5_5 
REMARK    3  A    between atoms: C5_5  and  C6_6 
REMARK    4  A    between atoms: C6_6  and  C7_7 
REMARK    5  A    between atoms: C8_8  and  C9_9 
REMARK    6  A    between atoms: C9_9  and  N1_10 
REMARK    7  A    between atoms: C15_16  and  N2_17 
REMARK    8  A    between atoms: N2_17  and  N3_18 
REMARK    9  A    between atoms: C16_21  and  O1_22 
REMARK   10  A    between atoms: C17_24  and  O2_25 
REMARK   11  A    between atoms: C18_27  and  N4_28 
REMARK   12  A    between atoms: N4_28  and  C21_31 
REMARK   13  A    between atoms: N5_34  and  O3_35 
ROOT
HETATM    1  C1  UNL     1      20.534  -1.265  16.293  1.00  0.00     0.012 C 
HETATM    2  C2  UNL     1      21.288  -1.205  15.356  1.00  0.00    -0.117 C 
HETATM    3  C3  UNL     1      22.202  -1.119  14.235  1.00  0.00     0.093 C 
ENDROOT
BRANCH   3   4
HETATM    4  C4  UNL     1      23.102  -2.335  14.173  1.00  0.00     0.013 C 
BRANCH   4   5
HETATM    5  C5  UNL     1      24.550  -1.942  14.318  1.00  0.00     0.013 C 
BRANCH   5   6
HETATM    6  C6  UNL     1      25.410  -2.593  13.251  1.00  0.00     0.094 C 
BRANCH   6   7
HETATM    7  C7  UNL     1      26.773  -2.077  13.273  1.00  0.00    -0.105 C 
HETATM    8  C8  UNL     1      27.890  -1.675  13.288  1.00  0.00    -0.086 C 
BRANCH   8   9
HETATM    9  C9  UNL     1      29.267  -1.197  13.294  1.00  0.00     0.221 C 
BRANCH   9  10
HETATM   10  N1  UNL     1      29.680  -0.920  14.650  1.00  0.00    -0.355 N 
HETATM   11  C10 UNL     1      30.733  -0.118  14.881  1.00  0.00     0.094 A 
HETATM   12  C11 UNL     1      31.166   0.177  16.159  1.00  0.00     0.049 A 
HETATM   13  C12 UNL     1      30.471  -0.389  17.243  1.00  0.00     0.070 A 
HETATM   14  C13 UNL     1      29.390  -1.212  17.003  1.00  0.00     0.010 A 
HETATM   15  N5  UNL     1      31.074   0.038  18.460  1.00  0.00    -0.226 N 
HETATM   16  C14 UNL     1      29.013  -1.462  15.685  1.00  0.00     0.102 A 
HETATM   17  C15 UNL     1      28.511  -1.918  17.925  1.00  0.00     0.166 C 
HETATM   18  C16 UNL     1      28.487  -1.426  19.330  1.00  0.00     0.176 C 
HETATM   19  C17 UNL     1      29.897  -1.373  19.934  1.00  0.00     0.201 C 
HETATM   20  C18 UNL     1      30.507   0.010  19.750  1.00  0.00     0.348 C 
BRANCH  17  21
HETATM   21  N2  UNL     1      27.122  -1.886  17.448  1.00  0.00    -0.136 NA
BRANCH  21  22
HETATM   22  N3  UNL     1      26.328  -2.815  18.147  1.00  0.00    -0.348 N 
ATOM     23  H32 UNL     1      26.686  -3.426  18.882  1.00  0.00     0.172 HD
ATOM     24  H31 UNL     1      25.363  -2.789  17.819  1.00  0.00     0.172 HD
ENDBRANCH  21  22
ENDBRANCH  17  21
BRANCH  18  25
HETATM   25  O1  UNL     1      27.821  -0.224  19.420  1.00  0.00    -0.391 OA
ATOM     26  H1  UNL     1      27.808   0.222  18.581  1.00  0.00     0.210 HD
ENDBRANCH  18  25
BRANCH  19  27
HETATM   27  O2  UNL     1      30.618  -2.351  19.246  1.00  0.00    -0.389 OA
ATOM     28  H2  UNL     1      31.485  -2.332  19.634  1.00  0.00     0.210 HD
ENDBRANCH  19  27
BRANCH  20  29
HETATM   29  N4  UNL     1      31.239   0.485  20.840  1.00  0.00    -0.039 N 
HETATM   30  C19 UNL     1      30.571   0.017  22.074  1.00  0.00     0.276 C 
HETATM   31  C20 UNL     1      32.529  -0.233  20.858  1.00  0.00     0.276 C 
BRANCH  29  32
HETATM   32  C21 UNL     1      31.537   1.840  21.043  1.00  0.00     0.331 C 
HETATM   33  C22 UNL     1      30.369   2.745  21.048  1.00  0.00    -0.089 C 
HETATM   34  C23 UNL     1      29.433   3.496  21.053  1.00  0.00     0.013 C 
ENDBRANCH  29  32
ENDBRANCH  20  29
BRANCH  15  35
HETATM   35  O3  UNL     1      32.339   0.511  18.255  1.00  0.00    -0.285 OA
ATOM     36  H3  UNL     1      32.843   0.520  19.060  1.00  0.00     0.245 HD
ENDBRANCH  15  35
ENDBRANCH   9  10
ENDBRANCH   8   9
ENDBRANCH   6   7
ENDBRANCH   5   6
ENDBRANCH   4   5
ENDBRANCH   3   4
TORSDOF 13
ENDMDL
