MODEL 1
REMARK VINA RESULT: -6.341071997      0.000      0.000
REMARK  11 active torsions:
REMARK  status: ('A' for Active; 'I' for Inactive)
REMARK    1  A    between atoms: C1_2  and  C2_4 
REMARK    2  A    between atoms: C2_4  and  N1_5 
REMARK    3  A    between atoms: N2_8  and  C5_9 
REMARK    4  A    between atoms: C5_9  and  C6_10 
REMARK    5  A    between atoms: C7_11  and  C8_12 
REMARK    6  A    between atoms: C8_12  and  N3_13 
REMARK    7  A    between atoms: N3_13  and  C9_14 
REMARK    8  A    between atoms: C9_14  and  C10_15 
REMARK    9  A    between atoms: C10_15  and  C11_16 
REMARK   10  A    between atoms: C11_16  and  O3_17 
REMARK   11  A    between atoms: C11_16  and  O4_19 
ROOT
HETATM    1  C5  UNL     1      16.768 -15.456  20.645  1.00  0.00     0.331 C 
ENDROOT
BRANCH   1   2
HETATM    2  N2  UNL     1      17.626 -14.810  21.586  1.00  0.00    -0.052 N 
HETATM    3  C4  UNL     1      17.948 -13.446  21.258  1.00  0.00     0.266 C 
HETATM    4  C3  UNL     1      19.223 -13.041  21.969  1.00  0.00     0.266 C 
HETATM    5  N1  UNL     1      19.366 -13.845  23.167  1.00  0.00    -0.053 N 
HETATM    6  C15 UNL     1      18.016 -13.913  23.756  1.00  0.00     0.266 C 
HETATM    7  C17 UNL     1      19.712 -15.198  22.817  1.00  0.00     0.266 C 
HETATM    8  C14 UNL     1      17.120 -14.823  22.943  1.00  0.00     0.266 C 
HETATM    9  C16 UNL     1      18.878 -15.583  21.618  1.00  0.00     0.266 C 
BRANCH   5  10
HETATM   10  C2  UNL     1      20.212 -13.267  24.156  1.00  0.00     0.350 C 
BRANCH  10  11
HETATM   11  C1  UNL     1      21.626 -13.619  24.064  1.00  0.00     0.199 C 
HETATM   12  O1  UNL     1      22.421 -13.264  23.156  1.00  0.00    -0.647 OA
HETATM   13  O2  UNL     1      22.162 -14.424  25.063  1.00  0.00    -0.647 OA
ENDBRANCH  10  11
ENDBRANCH   5  10
ENDBRANCH   1   2
BRANCH   1  14
HETATM   14  C6  UNL     1      15.588 -14.620  20.441  1.00  0.00    -0.077 C 
HETATM   15  C7  UNL     1      14.605 -13.942  20.258  1.00  0.00    -0.077 C 
BRANCH  15  16
HETATM   16  C8  UNL     1      13.413 -13.113  20.011  1.00  0.00     0.330 C 
BRANCH  16  17
HETATM   17  N3  UNL     1      13.377 -11.963  20.889  1.00  0.00    -0.054 N 
HETATM   18  C12 UNL     1      14.596 -11.226  21.098  1.00  0.00     0.266 A 
HETATM   19  C13 UNL     1      13.452 -10.639  20.308  1.00  0.00     0.266 A 
BRANCH  17  20
HETATM   20  C9  UNL     1      12.506 -12.057  22.042  1.00  0.00     0.243 C 
BRANCH  20  21
HETATM   21  C10 UNL     1      11.822 -10.769  22.397  1.00  0.00     0.088 C 
BRANCH  21  22
HETATM   22  C11 UNL     1      11.102 -10.825  23.712  1.00  0.00     0.255 C 
BRANCH  22  23
HETATM   23  O3  UNL     1      10.519  -9.606  24.047  1.00  0.00    -0.371 OA
ATOM     24  H3  UNL     1       9.819  -9.704  24.682  1.00  0.00     0.212 HD
ENDBRANCH  22  23
BRANCH  22  25
HETATM   25  O4  UNL     1      10.081 -11.775  23.701  1.00  0.00    -0.371 OA
ATOM     26  H4  UNL     1       9.239 -11.387  23.907  1.00  0.00     0.212 HD
ENDBRANCH  22  25
ENDBRANCH  21  22
ENDBRANCH  20  21
ENDBRANCH  17  20
ENDBRANCH  16  17
ENDBRANCH  15  16
ENDBRANCH   1  14
TORSDOF 11
ENDMDL
MODEL 2
REMARK VINA RESULT: -6.329378865      2.044      8.228
REMARK  11 active torsions:
REMARK  status: ('A' for Active; 'I' for Inactive)
REMARK    1  A    between atoms: C1_2  and  C2_4 
REMARK    2  A    between atoms: C2_4  and  N1_5 
REMARK    3  A    between atoms: N2_8  and  C5_9 
REMARK    4  A    between atoms: C5_9  and  C6_10 
REMARK    5  A    between atoms: C7_11  and  C8_12 
REMARK    6  A    between atoms: C8_12  and  N3_13 
REMARK    7  A    between atoms: N3_13  and  C9_14 
REMARK    8  A    between atoms: C9_14  and  C10_15 
REMARK    9  A    between atoms: C10_15  and  C11_16 
REMARK   10  A    between atoms: C11_16  and  O3_17 
REMARK   11  A    between atoms: C11_16  and  O4_19 
ROOT
HETATM    1  C5  UNL     1      16.855 -14.915  20.640  1.00  0.00     0.331 C 
ENDROOT
BRANCH   1   2
HETATM    2  N2  UNL     1      15.954 -13.835  20.395  1.00  0.00    -0.052 N 
HETATM    3  C4  UNL     1      16.325 -12.991  19.289  1.00  0.00     0.266 C 
HETATM    4  C3  UNL     1      15.660 -11.638  19.438  1.00  0.00     0.266 C 
HETATM    5  N1  UNL     1      14.447 -11.796  20.216  1.00  0.00    -0.053 N 
HETATM    6  C15 UNL     1      13.818 -13.032  19.715  1.00  0.00     0.266 C 
HETATM    7  C17 UNL     1      14.773 -12.051  21.596  1.00  0.00     0.266 C 
HETATM    8  C14 UNL     1      14.583 -14.252  20.183  1.00  0.00     0.266 C 
HETATM    9  C16 UNL     1      15.938 -13.012  21.615  1.00  0.00     0.266 C 
BRANCH   5  10
HETATM   10  C2  UNL     1      13.497 -10.752  20.028  1.00  0.00     0.350 C 
BRANCH  10  11
HETATM   11  C1  UNL     1      13.738  -9.531  20.791  1.00  0.00     0.199 C 
HETATM   12  O1  UNL     1      14.496  -8.585  20.455  1.00  0.00    -0.647 OA
HETATM   13  O2  UNL     1      13.079  -9.383  22.007  1.00  0.00    -0.647 OA
ENDBRANCH  10  11
ENDBRANCH   5  10
ENDBRANCH   1   2
BRANCH   1  14
HETATM   14  C6  UNL     1      18.109 -14.368  21.152  1.00  0.00    -0.077 C 
HETATM   15  C7  UNL     1      19.149 -13.934  21.587  1.00  0.00    -0.077 C 
BRANCH  15  16
HETATM   16  C8  UNL     1      20.408 -13.406  22.140  1.00  0.00     0.330 C 
BRANCH  16  17
HETATM   17  N3  UNL     1      20.576 -13.783  23.526  1.00  0.00    -0.054 N 
HETATM   18  C12 UNL     1      19.888 -13.014  24.531  1.00  0.00     0.266 A 
HETATM   19  C13 UNL     1      19.476 -14.430  24.212  1.00  0.00     0.266 A 
BRANCH  17  20
HETATM   20  C9  UNL     1      21.884 -14.272  23.911  1.00  0.00     0.243 C 
BRANCH  20  21
HETATM   21  C10 UNL     1      22.785 -13.219  24.486  1.00  0.00     0.088 C 
BRANCH  21  22
HETATM   22  C11 UNL     1      24.040 -13.015  23.689  1.00  0.00     0.255 C 
BRANCH  22  23
HETATM   23  O3  UNL     1      24.857 -12.028  24.234  1.00  0.00    -0.371 OA
ATOM     24  H3  UNL     1      24.716 -11.918  25.167  1.00  0.00     0.212 HD
ENDBRANCH  22  23
BRANCH  22  25
HETATM   25  O4  UNL     1      24.802 -14.182  23.622  1.00  0.00    -0.371 OA
ATOM     26  H4  UNL     1      25.369 -14.187  22.860  1.00  0.00     0.212 HD
ENDBRANCH  22  25
ENDBRANCH  21  22
ENDBRANCH  20  21
ENDBRANCH  17  20
ENDBRANCH  16  17
ENDBRANCH  15  16
ENDBRANCH   1  14
TORSDOF 11
ENDMDL
MODEL 3
REMARK VINA RESULT: -6.257222786      1.919      7.567
REMARK  11 active torsions:
REMARK  status: ('A' for Active; 'I' for Inactive)
REMARK    1  A    between atoms: C1_2  and  C2_4 
REMARK    2  A    between atoms: C2_4  and  N1_5 
REMARK    3  A    between atoms: N2_8  and  C5_9 
REMARK    4  A    between atoms: C5_9  and  C6_10 
REMARK    5  A    between atoms: C7_11  and  C8_12 
REMARK    6  A    between atoms: C8_12  and  N3_13 
REMARK    7  A    between atoms: N3_13  and  C9_14 
REMARK    8  A    between atoms: C9_14  and  C10_15 
REMARK    9  A    between atoms: C10_15  and  C11_16 
REMARK   10  A    between atoms: C11_16  and  O3_17 
REMARK   11  A    between atoms: C11_16  and  O4_19 
ROOT
HETATM    1  C5  UNL     1      18.220 -11.924  19.082  1.00  0.00     0.331 C 
ENDROOT
BRANCH   1   2
HETATM    2  N2  UNL     1      16.852 -12.132  19.435  1.00  0.00    -0.052 N 
HETATM    3  C4  UNL     1      15.917 -11.868  18.372  1.00  0.00     0.266 C 
HETATM    4  C3  UNL     1      14.547 -11.596  18.958  1.00  0.00     0.266 C 
HETATM    5  N1  UNL     1      14.445 -12.265  20.240  1.00  0.00    -0.053 N 
HETATM    6  C15 UNL     1      15.068 -13.586  20.044  1.00  0.00     0.266 C 
HETATM    7  C17 UNL     1      15.257 -11.588  21.218  1.00  0.00     0.266 C 
HETATM    8  C14 UNL     1      16.573 -13.461  19.940  1.00  0.00     0.266 C 
HETATM    9  C16 UNL     1      16.557 -11.212  20.545  1.00  0.00     0.266 C 
BRANCH   5  10
HETATM   10  C2  UNL     1      13.107 -12.506  20.664  1.00  0.00     0.350 C 
BRANCH  10  11
HETATM   11  C1  UNL     1      12.529 -11.493  21.543  1.00  0.00     0.199 C 
HETATM   12  O1  UNL     1      12.316 -10.289  21.247  1.00  0.00    -0.647 OA
HETATM   13  O2  UNL     1      12.177 -11.875  22.833  1.00  0.00    -0.647 OA
ENDBRANCH  10  11
ENDBRANCH   5  10
ENDBRANCH   1   2
BRANCH   1  14
HETATM   14  C6  UNL     1      19.061 -12.420  20.169  1.00  0.00    -0.077 C 
HETATM   15  C7  UNL     1      19.762 -12.847  21.055  1.00  0.00    -0.077 C 
BRANCH  15  16
HETATM   16  C8  UNL     1      20.602 -13.388  22.137  1.00  0.00     0.330 C 
BRANCH  16  17
HETATM   17  N3  UNL     1      19.818 -14.146  23.087  1.00  0.00    -0.054 N 
HETATM   18  C12 UNL     1      19.051 -15.264  22.602  1.00  0.00     0.266 A 
HETATM   19  C13 UNL     1      20.269 -15.469  23.468  1.00  0.00     0.266 A 
BRANCH  17  20
HETATM   20  C9  UNL     1      19.204 -13.397  24.164  1.00  0.00     0.243 C 
BRANCH  20  21
HETATM   21  C10 UNL     1      19.854 -13.604  25.500  1.00  0.00     0.088 C 
BRANCH  21  22
HETATM   22  C11 UNL     1      20.913 -12.586  25.806  1.00  0.00     0.255 C 
BRANCH  22  23
HETATM   23  O3  UNL     1      20.915 -12.212  27.147  1.00  0.00    -0.371 OA
ATOM     24  H3  UNL     1      21.714 -11.762  27.394  1.00  0.00     0.212 HD
ENDBRANCH  22  23
BRANCH  22  25
HETATM   25  O4  UNL     1      22.190 -13.068  25.517  1.00  0.00    -0.371 OA
ATOM     26  H4  UNL     1      22.733 -13.110  26.294  1.00  0.00     0.212 HD
ENDBRANCH  22  25
ENDBRANCH  21  22
ENDBRANCH  20  21
ENDBRANCH  17  20
ENDBRANCH  16  17
ENDBRANCH  15  16
ENDBRANCH   1  14
TORSDOF 11
ENDMDL
MODEL 4
REMARK VINA RESULT: -6.227152876      1.835      8.433
REMARK  11 active torsions:
REMARK  status: ('A' for Active; 'I' for Inactive)
REMARK    1  A    between atoms: C1_2  and  C2_4 
REMARK    2  A    between atoms: C2_4  and  N1_5 
REMARK    3  A    between atoms: N2_8  and  C5_9 
REMARK    4  A    between atoms: C5_9  and  C6_10 
REMARK    5  A    between atoms: C7_11  and  C8_12 
REMARK    6  A    between atoms: C8_12  and  N3_13 
REMARK    7  A    between atoms: N3_13  and  C9_14 
REMARK    8  A    between atoms: C9_14  and  C10_15 
REMARK    9  A    between atoms: C10_15  and  C11_16 
REMARK   10  A    between atoms: C11_16  and  O3_17 
REMARK   11  A    between atoms: C11_16  and  O4_19 
ROOT
HETATM    1  C5  UNL     1      17.068 -14.321  20.397  1.00  0.00     0.331 C 
ENDROOT
BRANCH   1   2
HETATM    2  N2  UNL     1      16.160 -13.219  20.391  1.00  0.00    -0.052 N 
HETATM    3  C4  UNL     1      15.664 -12.849  21.691  1.00  0.00     0.266 C 
HETATM    4  C3  UNL     1      14.366 -12.083  21.541  1.00  0.00     0.266 C 
HETATM    5  N1  UNL     1      14.352 -11.439  20.242  1.00  0.00    -0.053 N 
HETATM    6  C15 UNL     1      15.714 -10.905  20.054  1.00  0.00     0.266 C 
HETATM    7  C17 UNL     1      14.167 -12.420  19.204  1.00  0.00     0.266 C 
HETATM    8  C14 UNL     1      16.695 -12.023  19.774  1.00  0.00     0.266 C 
HETATM    9  C16 UNL     1      15.013 -13.620  19.559  1.00  0.00     0.266 C 
BRANCH   5  10
HETATM   10  C2  UNL     1      13.465 -10.328  20.155  1.00  0.00     0.350 C 
BRANCH  10  11
HETATM   11  C1  UNL     1      12.886  -9.880  21.418  1.00  0.00     0.199 C 
HETATM   12  O1  UNL     1      11.805 -10.281  21.922  1.00  0.00    -0.647 OA
HETATM   13  O2  UNL     1      13.579  -8.919  22.147  1.00  0.00    -0.647 OA
ENDBRANCH  10  11
ENDBRANCH   5  10
ENDBRANCH   1   2
BRANCH   1  14
HETATM   14  C6  UNL     1      18.300 -13.905  21.062  1.00  0.00    -0.077 C 
HETATM   15  C7  UNL     1      19.330 -13.564  21.595  1.00  0.00    -0.077 C 
BRANCH  15  16
HETATM   16  C8  UNL     1      20.594 -13.172  22.241  1.00  0.00     0.330 C 
BRANCH  16  17
HETATM   17  N3  UNL     1      20.677 -13.681  23.593  1.00  0.00    -0.054 N 
HETATM   18  C12 UNL     1      19.992 -12.963  24.636  1.00  0.00     0.266 A 
HETATM   19  C13 UNL     1      19.511 -14.316  24.172  1.00  0.00     0.266 A 
BRANCH  17  20
HETATM   20  C9  UNL     1      21.935 -14.284  23.982  1.00  0.00     0.243 C 
BRANCH  20  21
HETATM   21  C10 UNL     1      22.910 -13.322  24.596  1.00  0.00     0.088 C 
BRANCH  21  22
HETATM   22  C11 UNL     1      24.086 -13.029  23.712  1.00  0.00     0.255 C 
BRANCH  22  23
HETATM   23  O3  UNL     1      24.891 -12.015  24.224  1.00  0.00    -0.371 OA
ATOM     24  H3  UNL     1      24.475 -11.553  24.943  1.00  0.00     0.212 HD
ENDBRANCH  22  23
BRANCH  22  25
HETATM   25  O4  UNL     1      24.900 -14.150  23.549  1.00  0.00    -0.371 OA
ATOM     26  H4  UNL     1      24.868 -14.480  22.660  1.00  0.00     0.212 HD
ENDBRANCH  22  25
ENDBRANCH  21  22
ENDBRANCH  20  21
ENDBRANCH  17  20
ENDBRANCH  16  17
ENDBRANCH  15  16
ENDBRANCH   1  14
TORSDOF 11
ENDMDL
MODEL 5
REMARK VINA RESULT: -6.196189484      1.379      2.019
REMARK  11 active torsions:
REMARK  status: ('A' for Active; 'I' for Inactive)
REMARK    1  A    between atoms: C1_2  and  C2_4 
REMARK    2  A    between atoms: C2_4  and  N1_5 
REMARK    3  A    between atoms: N2_8  and  C5_9 
REMARK    4  A    between atoms: C5_9  and  C6_10 
REMARK    5  A    between atoms: C7_11  and  C8_12 
REMARK    6  A    between atoms: C8_12  and  N3_13 
REMARK    7  A    between atoms: N3_13  and  C9_14 
REMARK    8  A    between atoms: C9_14  and  C10_15 
REMARK    9  A    between atoms: C10_15  and  C11_16 
REMARK   10  A    between atoms: C11_16  and  O3_17 
REMARK   11  A    between atoms: C11_16  and  O4_19 
ROOT
HETATM    1  C5  UNL     1      17.259 -14.596  21.503  1.00  0.00     0.331 C 
ENDROOT
BRANCH   1   2
HETATM    2  N2  UNL     1      18.400 -14.293  22.307  1.00  0.00    -0.052 N 
HETATM    3  C4  UNL     1      19.260 -13.276  21.759  1.00  0.00     0.266 C 
HETATM    4  C3  UNL     1      20.644 -13.403  22.361  1.00  0.00     0.266 C 
HETATM    5  N1  UNL     1      20.531 -14.025  23.666  1.00  0.00    -0.053 N 
HETATM    6  C15 UNL     1      19.354 -13.401  24.297  1.00  0.00     0.266 C 
HETATM    7  C17 UNL     1      20.207 -15.421  23.523  1.00  0.00     0.266 C 
HETATM    8  C14 UNL     1      18.074 -13.904  23.663  1.00  0.00     0.266 C 
HETATM    9  C16 UNL     1      19.178 -15.537  22.423  1.00  0.00     0.266 C 
BRANCH   5  10
HETATM   10  C2  UNL     1      21.637 -13.771  24.527  1.00  0.00     0.350 C 
BRANCH  10  11
HETATM   11  C1  UNL     1      22.952 -14.093  23.980  1.00  0.00     0.199 C 
HETATM   12  O1  UNL     1      23.437 -15.245  23.845  1.00  0.00    -0.647 OA
HETATM   13  O2  UNL     1      23.759 -13.039  23.565  1.00  0.00    -0.647 OA
ENDBRANCH  10  11
ENDBRANCH   5  10
ENDBRANCH   1   2
BRANCH   1  14
HETATM   14  C6  UNL     1      16.395 -13.419  21.460  1.00  0.00    -0.077 C 
HETATM   15  C7  UNL     1      15.665 -12.458  21.418  1.00  0.00    -0.077 C 
BRANCH  15  16
HETATM   16  C8  UNL     1      14.771 -11.289  21.342  1.00  0.00     0.330 C 
BRANCH  16  17
HETATM   17  N3  UNL     1      13.380 -11.687  21.328  1.00  0.00    -0.054 N 
HETATM   18  C12 UNL     1      12.960 -12.667  20.360  1.00  0.00     0.266 A 
HETATM   19  C13 UNL     1      13.024 -12.997  21.832  1.00  0.00     0.266 A 
BRANCH  17  20
HETATM   20  C9  UNL     1      12.408 -10.654  21.623  1.00  0.00     0.243 C 
BRANCH  20  21
HETATM   21  C10 UNL     1      13.011  -9.369  22.110  1.00  0.00     0.088 C 
BRANCH  21  22
HETATM   22  C11 UNL     1      12.262  -8.765  23.261  1.00  0.00     0.255 C 
BRANCH  22  23
HETATM   23  O3  UNL     1      11.874  -9.719  24.198  1.00  0.00    -0.371 OA
ATOM     24  H3  UNL     1      11.838  -9.365  25.078  1.00  0.00     0.212 HD
ENDBRANCH  22  23
BRANCH  22  25
HETATM   25  O4  UNL     1      13.034  -7.821  23.940  1.00  0.00    -0.371 OA
ATOM     26  H4  UNL     1      13.335  -8.151  24.778  1.00  0.00     0.212 HD
ENDBRANCH  22  25
ENDBRANCH  21  22
ENDBRANCH  20  21
ENDBRANCH  17  20
ENDBRANCH  16  17
ENDBRANCH  15  16
ENDBRANCH   1  14
TORSDOF 11
ENDMDL
