MODEL 1
REMARK VINA RESULT: -7.368295000      0.000      0.000
REMARK  8 active torsions:
REMARK  status: ('A' for Active; 'I' for Inactive)
REMARK    1  A    between atoms: N2_6  and  C4_7 
REMARK    2  A    between atoms: C4_7  and  C5_8 
REMARK    3  A    between atoms: C5_8  and  C6_9 
REMARK    4  A    between atoms: C6_9  and  C7_10 
REMARK    5  A    between atoms: C7_10  and  N3_11 
REMARK    6  A    between atoms: C12_16  and  C13_17 
REMARK    7  A    between atoms: C13_17  and  C14_18 
REMARK    8  A    between atoms: C15_23  and  N5_24 
ROOT
HETATM    1  N3  UNL     1      13.153 -12.832  20.300  1.00  0.00    -0.354 N 
HETATM    2  C8  UNL     1      12.406 -12.439  21.344  1.00  0.00     0.123 A 
HETATM    3  C9  UNL     1      12.462 -11.192  21.919  1.00  0.00     0.094 A 
HETATM    4  C10 UNL     1      13.351 -10.291  21.382  1.00  0.00     0.080 A 
HETATM    5  C11 UNL     1      14.130 -10.716  20.285  1.00  0.00     0.062 A 
HETATM    6  C12 UNL     1      14.043 -11.962  19.744  1.00  0.00     0.043 A 
HETATM    7  N4  UNL     1      13.243  -9.095  22.119  1.00  0.00    -0.190 N 
ATOM      8  H4  UNL     1      13.770  -8.235  21.967  1.00  0.00     0.184 HD
HETATM    9  C15 UNL     1      12.258  -9.320  23.111  1.00  0.00     0.678 A 
HETATM   10  N6  UNL     1      11.822 -10.660  22.915  1.00  0.00    -0.184 N 
HETATM   11  C16 UNL     1      10.809 -11.297  23.729  1.00  0.00     0.175 C 
ENDROOT
BRANCH   1  12
HETATM   12  C7  UNL     1      12.984 -14.177  19.840  1.00  0.00     0.129 C 
BRANCH  12  13
HETATM   13  C6  UNL     1      13.378 -15.118  20.954  1.00  0.00     0.022 C 
BRANCH  13  14
HETATM   14  C5  UNL     1      14.622 -15.915  20.617  1.00  0.00     0.023 C 
BRANCH  14  15
HETATM   15  C4  UNL     1      15.596 -15.678  21.745  1.00  0.00     0.148 C 
BRANCH  15  16
HETATM   16  N2  UNL     1      16.395 -14.490  21.525  1.00  0.00    -0.303 N 
HETATM   17  N1  UNL     1      16.214 -13.362  22.195  1.00  0.00    -0.310 N 
HETATM   18  C3  UNL     1      17.099 -12.434  21.778  1.00  0.00     0.115 A 
ATOM     19  H1  UNL     1      15.509 -13.217  22.918  1.00  0.00     0.186 HD
HETATM   20  C2  UNL     1      17.884 -13.001  20.794  1.00  0.00    -0.028 A 
HETATM   21  C1  UNL     1      18.990 -12.334  20.057  1.00  0.00     0.051 C 
HETATM   22  C17 UNL     1      17.401 -14.296  20.671  1.00  0.00     0.118 A 
ENDBRANCH  15  16
ENDBRANCH  14  15
ENDBRANCH  13  14
ENDBRANCH  12  13
ENDBRANCH   1  12
BRANCH   6  23
HETATM   23  C13 UNL     1      14.740 -12.358  18.716  1.00  0.00     0.114 C 
BRANCH  23  24
HETATM   24  C14 UNL     1      15.331 -11.540  17.697  1.00  0.00     0.200 C 
HETATM   25  O1  UNL     1      16.569 -11.158  17.861  1.00  0.00    -0.644 OA
HETATM   26  O2  UNL     1      14.699 -11.127  16.561  1.00  0.00    -0.644 OA
ENDBRANCH  23  24
ENDBRANCH   6  23
BRANCH   9  27
HETATM   27  N5  UNL     1      11.823  -8.496  24.023  1.00  0.00    -0.234 N 
ATOM     28  H52 UNL     1      11.036  -8.656  24.652  1.00  0.00     0.174 HD
ATOM     29  H51 UNL     1      12.181  -7.572  24.264  1.00  0.00     0.174 HD
ENDBRANCH   9  27
TORSDOF 8
ENDMDL
MODEL 2
REMARK VINA RESULT: -7.201341505      2.294      3.348
REMARK  8 active torsions:
REMARK  status: ('A' for Active; 'I' for Inactive)
REMARK    1  A    between atoms: N2_6  and  C4_7 
REMARK    2  A    between atoms: C4_7  and  C5_8 
REMARK    3  A    between atoms: C5_8  and  C6_9 
REMARK    4  A    between atoms: C6_9  and  C7_10 
REMARK    5  A    between atoms: C7_10  and  N3_11 
REMARK    6  A    between atoms: C12_16  and  C13_17 
REMARK    7  A    between atoms: C13_17  and  C14_18 
REMARK    8  A    between atoms: C15_23  and  N5_24 
ROOT
HETATM    1  N3  UNL     1      14.108 -11.889  20.172  1.00  0.00    -0.354 N 
HETATM    2  C8  UNL     1      13.758 -10.852  20.948  1.00  0.00     0.123 A 
HETATM    3  C9  UNL     1      12.739 -10.875  21.871  1.00  0.00     0.094 A 
HETATM    4  C10 UNL     1      12.033 -12.049  22.000  1.00  0.00     0.080 A 
HETATM    5  C11 UNL     1      12.412 -13.132  21.179  1.00  0.00     0.062 A 
HETATM    6  C12 UNL     1      13.430 -13.067  20.277  1.00  0.00     0.043 A 
HETATM    7  N4  UNL     1      11.049 -11.848  22.987  1.00  0.00    -0.190 N 
ATOM      8  H4  UNL     1      10.364 -12.530  23.313  1.00  0.00     0.184 HD
HETATM    9  C15 UNL     1      11.197 -10.514  23.439  1.00  0.00     0.678 A 
HETATM   10  N6  UNL     1      12.278  -9.976  22.686  1.00  0.00    -0.184 N 
HETATM   11  C16 UNL     1      12.761  -8.620  22.839  1.00  0.00     0.175 C 
ENDROOT
BRANCH   1  12
HETATM   12  C7  UNL     1      15.180 -11.685  19.246  1.00  0.00     0.129 C 
BRANCH  12  13
HETATM   13  C6  UNL     1      16.388 -11.201  20.012  1.00  0.00     0.022 C 
BRANCH  13  14
HETATM   14  C5  UNL     1      17.620 -12.035  19.725  1.00  0.00     0.023 C 
BRANCH  14  15
HETATM   15  C4  UNL     1      17.347 -13.405  20.293  1.00  0.00     0.148 C 
BRANCH  15  16
HETATM   16  N2  UNL     1      17.741 -13.500  21.683  1.00  0.00    -0.303 N 
HETATM   17  N1  UNL     1      16.939 -13.958  22.633  1.00  0.00    -0.310 N 
HETATM   18  C3  UNL     1      17.574 -13.929  23.822  1.00  0.00     0.115 A 
ATOM     19  H1  UNL     1      15.985 -14.284  22.487  1.00  0.00     0.186 HD
HETATM   20  C2  UNL     1      18.844 -13.427  23.619  1.00  0.00    -0.028 A 
HETATM   21  C1  UNL     1      19.888 -13.223  24.658  1.00  0.00     0.051 C 
HETATM   22  C17 UNL     1      18.900 -13.173  22.256  1.00  0.00     0.118 A 
ENDBRANCH  15  16
ENDBRANCH  14  15
ENDBRANCH  13  14
ENDBRANCH  12  13
ENDBRANCH   1  12
BRANCH   6  23
HETATM   23  C13 UNL     1      13.803 -14.069  19.530  1.00  0.00     0.114 C 
BRANCH  23  24
HETATM   24  C14 UNL     1      14.133 -15.397  19.957  1.00  0.00     0.200 C 
HETATM   25  O1  UNL     1      13.716 -16.396  19.227  1.00  0.00    -0.644 OA
HETATM   26  O2  UNL     1      14.857 -15.704  21.073  1.00  0.00    -0.644 OA
ENDBRANCH  23  24
ENDBRANCH   6  23
BRANCH   9  27
HETATM   27  N5  UNL     1      10.506  -9.885  24.348  1.00  0.00    -0.234 N 
ATOM     28  H52 UNL     1       9.945 -10.316  25.082  1.00  0.00     0.174 HD
ATOM     29  H51 UNL     1      10.406  -8.879  24.484  1.00  0.00     0.174 HD
ENDBRANCH   9  27
TORSDOF 8
ENDMDL
MODEL 3
REMARK VINA RESULT: -7.116315060      2.541      3.544
REMARK  8 active torsions:
REMARK  status: ('A' for Active; 'I' for Inactive)
REMARK    1  A    between atoms: N2_6  and  C4_7 
REMARK    2  A    between atoms: C4_7  and  C5_8 
REMARK    3  A    between atoms: C5_8  and  C6_9 
REMARK    4  A    between atoms: C6_9  and  C7_10 
REMARK    5  A    between atoms: C7_10  and  N3_11 
REMARK    6  A    between atoms: C12_16  and  C13_17 
REMARK    7  A    between atoms: C13_17  and  C14_18 
REMARK    8  A    between atoms: C15_23  and  N5_24 
ROOT
HETATM    1  N3  UNL     1      14.162 -11.886  20.087  1.00  0.00    -0.354 N 
HETATM    2  C8  UNL     1      13.777 -10.878  20.886  1.00  0.00     0.123 A 
HETATM    3  C9  UNL     1      12.774 -10.961  21.821  1.00  0.00     0.094 A 
HETATM    4  C10 UNL     1      12.124 -12.168  21.941  1.00  0.00     0.080 A 
HETATM    5  C11 UNL     1      12.539 -13.220  21.097  1.00  0.00     0.062 A 
HETATM    6  C12 UNL     1      13.539 -13.095  20.182  1.00  0.00     0.043 A 
HETATM    7  N4  UNL     1      11.146 -12.027  22.945  1.00  0.00    -0.190 N 
ATOM      8  H4  UNL     1      10.497 -12.744  23.269  1.00  0.00     0.184 HD
HETATM    9  C15 UNL     1      11.241 -10.695  23.416  1.00  0.00     0.678 A 
HETATM   10  N6  UNL     1      12.285 -10.098  22.657  1.00  0.00    -0.184 N 
HETATM   11  C16 UNL     1      12.709  -8.724  22.826  1.00  0.00     0.175 C 
ENDROOT
BRANCH   1  12
HETATM   12  C7  UNL     1      15.211 -11.618  19.150  1.00  0.00     0.129 C 
BRANCH  12  13
HETATM   13  C6  UNL     1      16.506 -11.468  19.911  1.00  0.00     0.022 C 
BRANCH  13  14
HETATM   14  C5  UNL     1      17.302 -12.757  19.948  1.00  0.00     0.023 C 
BRANCH  14  15
HETATM   15  C4  UNL     1      18.751 -12.357  20.077  1.00  0.00     0.148 C 
BRANCH  15  16
HETATM   16  N2  UNL     1      19.319 -12.791  21.337  1.00  0.00    -0.303 N 
HETATM   17  N1  UNL     1      20.589 -13.139  21.477  1.00  0.00    -0.310 N 
HETATM   18  C3  UNL     1      20.828 -13.496  22.755  1.00  0.00     0.115 A 
ATOM     19  H1  UNL     1      21.282 -13.137  20.730  1.00  0.00     0.186 HD
HETATM   20  C2  UNL     1      19.650 -13.368  23.464  1.00  0.00    -0.028 A 
HETATM   21  C1  UNL     1      19.457 -13.656  24.910  1.00  0.00     0.051 C 
HETATM   22  C17 UNL     1      18.730 -12.921  22.527  1.00  0.00     0.118 A 
ENDBRANCH  15  16
ENDBRANCH  14  15
ENDBRANCH  13  14
ENDBRANCH  12  13
ENDBRANCH   1  12
BRANCH   6  23
HETATM   23  C13 UNL     1      13.947 -14.066  19.414  1.00  0.00     0.114 C 
BRANCH  23  24
HETATM   24  C14 UNL     1      14.367 -15.377  19.816  1.00  0.00     0.200 C 
HETATM   25  O1  UNL     1      15.251 -15.469  20.773  1.00  0.00    -0.644 OA
HETATM   26  O2  UNL     1      13.911 -16.545  19.277  1.00  0.00    -0.644 OA
ENDBRANCH  23  24
ENDBRANCH   6  23
BRANCH   9  27
HETATM   27  N5  UNL     1      10.535 -10.113  24.345  1.00  0.00    -0.234 N 
ATOM     28  H52 UNL     1      10.901  -9.565  25.124  1.00  0.00     0.174 HD
ATOM     29  H51 UNL     1       9.521 -10.099  24.456  1.00  0.00     0.174 HD
ENDBRANCH   9  27
TORSDOF 8
ENDMDL
MODEL 4
REMARK VINA RESULT: -7.107690551      3.111      4.321
REMARK  8 active torsions:
REMARK  status: ('A' for Active; 'I' for Inactive)
REMARK    1  A    between atoms: N2_6  and  C4_7 
REMARK    2  A    between atoms: C4_7  and  C5_8 
REMARK    3  A    between atoms: C5_8  and  C6_9 
REMARK    4  A    between atoms: C6_9  and  C7_10 
REMARK    5  A    between atoms: C7_10  and  N3_11 
REMARK    6  A    between atoms: C12_16  and  C13_17 
REMARK    7  A    between atoms: C13_17  and  C14_18 
REMARK    8  A    between atoms: C15_23  and  N5_24 
ROOT
HETATM    1  N3  UNL     1      15.766 -12.407  20.254  1.00  0.00    -0.354 N 
HETATM    2  C8  UNL     1      14.994 -11.448  20.789  1.00  0.00     0.123 A 
HETATM    3  C9  UNL     1      13.800 -11.674  21.432  1.00  0.00     0.094 A 
HETATM    4  C10 UNL     1      13.374 -12.978  21.527  1.00  0.00     0.080 A 
HETATM    5  C11 UNL     1      14.195 -13.977  20.962  1.00  0.00     0.062 A 
HETATM    6  C12 UNL     1      15.373 -13.710  20.334  1.00  0.00     0.043 A 
HETATM    7  N4  UNL     1      12.144 -12.976  22.213  1.00  0.00    -0.190 N 
ATOM      8  H4  UNL     1      11.572 -13.788  22.443  1.00  0.00     0.184 HD
HETATM    9  C15 UNL     1      11.856 -11.623  22.520  1.00  0.00     0.678 A 
HETATM   10  N6  UNL     1      12.945 -10.875  21.994  1.00  0.00    -0.184 N 
HETATM   11  C16 UNL     1      13.046  -9.434  22.093  1.00  0.00     0.175 C 
ENDROOT
BRANCH   1  12
HETATM   12  C7  UNL     1      16.970 -11.992  19.600  1.00  0.00     0.129 C 
BRANCH  12  13
HETATM   13  C6  UNL     1      17.968 -11.573  20.653  1.00  0.00     0.022 C 
BRANCH  13  14
HETATM   14  C5  UNL     1      19.315 -12.240  20.462  1.00  0.00     0.023 C 
BRANCH  14  15
HETATM   15  C4  UNL     1      19.272 -13.520  21.260  1.00  0.00     0.148 C 
BRANCH  15  16
HETATM   16  N2  UNL     1      20.006 -13.404  22.503  1.00  0.00    -0.303 N 
HETATM   17  N1  UNL     1      21.320 -13.550  22.584  1.00  0.00    -0.310 N 
HETATM   18  C3  UNL     1      21.722 -13.389  23.861  1.00  0.00     0.115 A 
ATOM     19  H1  UNL     1      21.936 -13.754  21.797  1.00  0.00     0.186 HD
HETATM   20  C2  UNL     1      20.607 -13.127  24.632  1.00  0.00    -0.028 A 
HETATM   21  C1  UNL     1      20.587 -12.883  26.098  1.00  0.00     0.051 C 
HETATM   22  C17 UNL     1      19.551 -13.147  23.730  1.00  0.00     0.118 A 
ENDBRANCH  15  16
ENDBRANCH  14  15
ENDBRANCH  13  14
ENDBRANCH  12  13
ENDBRANCH   1  12
BRANCH   6  23
HETATM   23  C13 UNL     1      16.152 -14.626  19.830  1.00  0.00     0.114 C 
BRANCH  23  24
HETATM   24  C14 UNL     1      16.447 -15.917  20.379  1.00  0.00     0.200 C 
HETATM   25  O1  UNL     1      16.278 -16.961  19.613  1.00  0.00    -0.644 OA
HETATM   26  O2  UNL     1      16.895 -16.144  21.648  1.00  0.00    -0.644 OA
ENDBRANCH  23  24
ENDBRANCH   6  23
BRANCH   9  27
HETATM   27  N5  UNL     1      10.823 -11.137  23.150  1.00  0.00    -0.234 N 
ATOM     28  H52 UNL     1       9.844 -11.329  22.937  1.00  0.00     0.174 HD
ATOM     29  H51 UNL     1      10.809 -10.498  23.945  1.00  0.00     0.174 HD
ENDBRANCH   9  27
TORSDOF 8
ENDMDL
MODEL 5
REMARK VINA RESULT: -7.095135759      2.188      6.275
REMARK  8 active torsions:
REMARK  status: ('A' for Active; 'I' for Inactive)
REMARK    1  A    between atoms: N2_6  and  C4_7 
REMARK    2  A    between atoms: C4_7  and  C5_8 
REMARK    3  A    between atoms: C5_8  and  C6_9 
REMARK    4  A    between atoms: C6_9  and  C7_10 
REMARK    5  A    between atoms: C7_10  and  N3_11 
REMARK    6  A    between atoms: C12_16  and  C13_17 
REMARK    7  A    between atoms: C13_17  and  C14_18 
REMARK    8  A    between atoms: C15_23  and  N5_24 
ROOT
HETATM    1  N3  UNL     1      16.398 -12.854  20.417  1.00  0.00    -0.354 N 
HETATM    2  C8  UNL     1      17.126 -13.387  21.411  1.00  0.00     0.123 A 
HETATM    3  C9  UNL     1      18.488 -13.254  21.541  1.00  0.00     0.094 A 
HETATM    4  C10 UNL     1      19.143 -12.521  20.580  1.00  0.00     0.080 A 
HETATM    5  C11 UNL     1      18.367 -11.964  19.541  1.00  0.00     0.062 A 
HETATM    6  C12 UNL     1      17.017 -12.120  19.449  1.00  0.00     0.043 A 
HETATM    7  N4  UNL     1      20.513 -12.517  20.907  1.00  0.00    -0.190 N 
ATOM      8  H4  UNL     1      21.263 -12.059  20.389  1.00  0.00     0.184 HD
HETATM    9  C15 UNL     1      20.646 -13.273  22.096  1.00  0.00     0.678 A 
HETATM   10  N6  UNL     1      19.329 -13.699  22.424  1.00  0.00    -0.184 N 
HETATM   11  C16 UNL     1      19.016 -14.508  23.583  1.00  0.00     0.175 C 
ENDROOT
BRANCH   1  12
HETATM   12  C7  UNL     1      14.990 -13.111  20.422  1.00  0.00     0.129 C 
BRANCH  12  13
HETATM   13  C6  UNL     1      14.338 -12.187  21.422  1.00  0.00     0.022 C 
BRANCH  13  14
HETATM   14  C5  UNL     1      13.145 -11.459  20.836  1.00  0.00     0.023 C 
BRANCH  14  15
HETATM   15  C4  UNL     1      11.962 -11.819  21.701  1.00  0.00     0.148 C 
BRANCH  15  16
HETATM   16  N2  UNL     1      11.686 -10.797  22.688  1.00  0.00    -0.303 N 
HETATM   17  N1  UNL     1      10.864 -10.981  23.710  1.00  0.00    -0.310 N 
HETATM   18  C3  UNL     1      10.804  -9.860  24.458  1.00  0.00     0.115 A 
ATOM     19  H1  UNL     1      10.352 -11.841  23.903  1.00  0.00     0.186 HD
HETATM   20  C2  UNL     1      11.631  -8.916  23.883  1.00  0.00    -0.028 A 
HETATM   21  C1  UNL     1      11.869  -7.535  24.379  1.00  0.00     0.051 C 
HETATM   22  C17 UNL     1      12.164  -9.554  22.772  1.00  0.00     0.118 A 
ENDBRANCH  15  16
ENDBRANCH  14  15
ENDBRANCH  13  14
ENDBRANCH  12  13
ENDBRANCH   1  12
BRANCH   6  23
HETATM   23  C13 UNL     1      16.287 -11.590  18.508  1.00  0.00     0.114 C 
BRANCH  23  24
HETATM   24  C14 UNL     1      16.518 -11.641  17.094  1.00  0.00     0.200 C 
HETATM   25  O1  UNL     1      16.123 -12.705  16.447  1.00  0.00    -0.644 OA
HETATM   26  O2  UNL     1      17.121 -10.659  16.363  1.00  0.00    -0.644 OA
ENDBRANCH  23  24
ENDBRANCH   6  23
BRANCH   9  27
HETATM   27  N5  UNL     1      21.729 -13.540  22.770  1.00  0.00    -0.234 N 
ATOM     28  H52 UNL     1      22.281 -12.874  23.311  1.00  0.00     0.174 HD
ATOM     29  H51 UNL     1      22.206 -14.437  22.875  1.00  0.00     0.174 HD
ENDBRANCH   9  27
TORSDOF 8
ENDMDL
