MODEL 1
REMARK VINA RESULT: -7.646136078      0.000      0.000
REMARK  10 active torsions:
REMARK  status: ('A' for Active; 'I' for Inactive)
REMARK    1  A    between atoms: C2_2  and  C3_3 
REMARK    2  A    between atoms: C3_3  and  N1_4 
REMARK    3  A    between atoms: C5_6  and  C6_7 
REMARK    4  A    between atoms: C6_7  and  C7_8 
REMARK    5  A    between atoms: C7_8  and  N2_9 
REMARK    6  A    between atoms: N2_9  and  N3_11 
REMARK    7  A    between atoms: N3_11  and  N4_13 
REMARK    8  A    between atoms: C10_19  and  C11_20 
REMARK       I    between atoms: C11_20  and  N6_22 
REMARK    9  A    between atoms: N6_22  and  C12_24 
REMARK   10  A    between atoms: C13_29  and  N9_30 
ROOT
HETATM    1  N1  UNL     1      18.659 -12.728  21.472  1.00  0.00    -0.349 N 
HETATM    2  C4  UNL     1      19.739 -12.808  22.320  1.00  0.00     0.116 A 
HETATM    3  C5  UNL     1      19.671 -13.419  23.545  1.00  0.00     0.028 A 
HETATM    4  N5  UNL     1      18.511 -13.961  23.940  1.00  0.00    -0.361 N 
HETATM    5  C8  UNL     1      18.397 -14.621  25.247  1.00  0.00     0.155 C 
HETATM    6  C9  UNL     1      17.447 -13.899  23.140  1.00  0.00     0.126 A 
HETATM    7  C10 UNL     1      17.513 -13.270  21.876  1.00  0.00     0.119 A 
ENDROOT
BRANCH   7   8
HETATM    8  C11 UNL     1      16.325 -13.228  21.069  1.00  0.00     0.288 C 
HETATM    9  O1  UNL     1      15.922 -14.093  20.278  1.00  0.00    -0.265 OA
HETATM   10  N6  UNL     1      15.448 -12.062  21.140  1.00  0.00    -0.152 N 
ATOM     11  H6  UNL     1      15.779 -11.133  20.876  1.00  0.00     0.187 HD
BRANCH  10  12
HETATM   12  C12 UNL     1      14.246 -12.252  21.547  1.00  0.00     0.714 A 
HETATM   13  N7  UNL     1      13.673 -13.445  21.758  1.00  0.00    -0.117 N 
HETATM   14  N8  UNL     1      12.419 -13.247  22.175  1.00  0.00    -0.118 N 
ATOM     15  H7  UNL     1      14.120 -14.352  21.625  1.00  0.00     0.206 HD
HETATM   16  C13 UNL     1      12.175 -11.945  22.233  1.00  0.00     0.705 A 
ATOM     17  H8  UNL     1      11.752 -13.984  22.411  1.00  0.00     0.206 HD
HETATM   18  N10 UNL     1      13.312 -11.339  21.843  1.00  0.00    -0.020 N 
ATOM     19  H10 UNL     1      13.443 -10.330  21.782  1.00  0.00     0.203 HD
BRANCH  16  20
HETATM   20  N9  UNL     1      11.089 -11.354  22.587  1.00  0.00    -0.233 N 
ATOM     21  H92 UNL     1      10.618 -11.457  23.486  1.00  0.00     0.174 HD
ATOM     22  H91 UNL     1      10.523 -10.700  22.047  1.00  0.00     0.174 HD
ENDBRANCH  16  20
ENDBRANCH  10  12
ENDBRANCH   7   8
BRANCH   1  23
HETATM   23  C3  UNL     1      18.868 -12.054  20.212  1.00  0.00     0.128 C 
BRANCH  23  24
HETATM   24  C2  UNL     1      20.328 -11.881  19.884  1.00  0.00     0.016 C 
HETATM   25  C1  UNL     1      20.505 -11.830  18.378  1.00  0.00     0.006 C 
ENDBRANCH  23  24
ENDBRANCH   1  23
BRANCH   3  26
HETATM   26  C6  UNL     1      20.864 -13.483  24.434  1.00  0.00     0.080 C 
BRANCH  26  27
HETATM   27  C7  UNL     1      22.073 -14.042  23.719  1.00  0.00     0.147 C 
BRANCH  27  28
HETATM   28  N2  UNL     1      23.277 -13.329  24.032  1.00  0.00    -0.322 N 
ATOM     29  H2  UNL     1      23.253 -12.456  24.559  1.00  0.00     0.181 HD
BRANCH  28  30
HETATM   30  N3  UNL     1      24.355 -13.815  23.635  1.00  0.00    -0.254 N 
ATOM     31  H3  UNL     1      24.533 -13.252  22.804  1.00  0.00     0.207 HD
BRANCH  30  32
HETATM   32  N4  UNL     1      25.349 -14.572  23.636  1.00  0.00    -0.331 N 
ATOM     33  H42 UNL     1      25.065 -15.192  22.877  1.00  0.00     0.178 HD
ATOM     34  H41 UNL     1      26.255 -14.937  23.930  1.00  0.00     0.178 HD
ENDBRANCH  30  32
ENDBRANCH  28  30
ENDBRANCH  27  28
ENDBRANCH  26  27
ENDBRANCH   3  26
TORSDOF 10
ENDMDL
MODEL 2
REMARK VINA RESULT: -7.381215500      0.926      1.339
REMARK  10 active torsions:
REMARK  status: ('A' for Active; 'I' for Inactive)
REMARK    1  A    between atoms: C2_2  and  C3_3 
REMARK    2  A    between atoms: C3_3  and  N1_4 
REMARK    3  A    between atoms: C5_6  and  C6_7 
REMARK    4  A    between atoms: C6_7  and  C7_8 
REMARK    5  A    between atoms: C7_8  and  N2_9 
REMARK    6  A    between atoms: N2_9  and  N3_11 
REMARK    7  A    between atoms: N3_11  and  N4_13 
REMARK    8  A    between atoms: C10_19  and  C11_20 
REMARK       I    between atoms: C11_20  and  N6_22 
REMARK    9  A    between atoms: N6_22  and  C12_24 
REMARK   10  A    between atoms: C13_29  and  N9_30 
ROOT
HETATM    1  N1  UNL     1      18.488 -12.532  21.396  1.00  0.00    -0.349 N 
HETATM    2  C4  UNL     1      19.471 -12.964  22.255  1.00  0.00     0.116 A 
HETATM    3  C5  UNL     1      19.199 -13.701  23.378  1.00  0.00     0.028 A 
HETATM    4  N5  UNL     1      17.927 -14.016  23.657  1.00  0.00    -0.361 N 
HETATM    5  C8  UNL     1      17.593 -14.801  24.853  1.00  0.00     0.155 C 
HETATM    6  C9  UNL     1      16.952 -13.611  22.844  1.00  0.00     0.126 A 
HETATM    7  C10 UNL     1      17.229 -12.851  21.685  1.00  0.00     0.119 A 
ENDROOT
BRANCH   7   8
HETATM    8  C11 UNL     1      16.130 -12.437  20.858  1.00  0.00     0.288 C 
HETATM    9  O1  UNL     1      15.531 -13.112  20.008  1.00  0.00    -0.265 OA
HETATM   10  N6  UNL     1      15.610 -11.077  20.981  1.00  0.00    -0.152 N 
ATOM     11  H6  UNL     1      16.196 -10.266  20.780  1.00  0.00     0.187 HD
BRANCH  10  12
HETATM   12  C12 UNL     1      14.388 -10.944  21.351  1.00  0.00     0.714 A 
HETATM   13  N7  UNL     1      13.693  -9.797  21.350  1.00  0.00    -0.117 N 
HETATM   14  N8  UNL     1      12.460 -10.047  21.801  1.00  0.00    -0.118 N 
ATOM     15  H7  UNL     1      14.046  -8.888  21.054  1.00  0.00     0.206 HD
HETATM   16  C13 UNL     1      12.351 -11.336  22.093  1.00  0.00     0.705 A 
ATOM     17  H8  UNL     1      11.718  -9.354  21.904  1.00  0.00     0.206 HD
HETATM   18  N10 UNL     1      13.550 -11.881  21.811  1.00  0.00    -0.020 N 
ATOM     19  H10 UNL     1      13.785 -12.866  21.930  1.00  0.00     0.203 HD
BRANCH  16  20
HETATM   20  N9  UNL     1      11.327 -11.964  22.551  1.00  0.00    -0.233 N 
ATOM     21  H92 UNL     1      11.125 -12.142  23.536  1.00  0.00     0.174 HD
ATOM     22  H91 UNL     1      10.558 -12.383  22.028  1.00  0.00     0.174 HD
ENDBRANCH  16  20
ENDBRANCH  10  12
ENDBRANCH   7   8
BRANCH   1  23
HETATM   23  C3  UNL     1      18.915 -11.761  20.251  1.00  0.00     0.128 C 
BRANCH  23  24
HETATM   24  C2  UNL     1      20.353 -12.018  19.884  1.00  0.00     0.016 C 
HETATM   25  C1  UNL     1      20.540 -11.804  18.394  1.00  0.00     0.006 C 
ENDBRANCH  23  24
ENDBRANCH   1  23
BRANCH   3  26
HETATM   26  C6  UNL     1      20.293 -14.149  24.283  1.00  0.00     0.080 C 
BRANCH  26  27
HETATM   27  C7  UNL     1      21.107 -12.985  24.805  1.00  0.00     0.147 C 
BRANCH  27  28
HETATM   28  N2  UNL     1      22.435 -13.369  25.187  1.00  0.00    -0.322 N 
ATOM     29  H2  UNL     1      22.616 -13.839  26.073  1.00  0.00     0.181 HD
BRANCH  28  30
HETATM   30  N3  UNL     1      23.361 -13.106  24.393  1.00  0.00    -0.254 N 
ATOM     31  H3  UNL     1      23.240 -12.101  24.273  1.00  0.00     0.207 HD
BRANCH  30  32
HETATM   32  N4  UNL     1      24.345 -13.324  23.657  1.00  0.00    -0.331 N 
ATOM     33  H42 UNL     1      25.068 -13.349  24.377  1.00  0.00     0.178 HD
ATOM     34  H41 UNL     1      24.854 -13.488  22.788  1.00  0.00     0.178 HD
ENDBRANCH  30  32
ENDBRANCH  28  30
ENDBRANCH  27  28
ENDBRANCH  26  27
ENDBRANCH   3  26
TORSDOF 10
ENDMDL
MODEL 3
REMARK VINA RESULT: -7.379956842      1.894      3.564
REMARK  10 active torsions:
REMARK  status: ('A' for Active; 'I' for Inactive)
REMARK    1  A    between atoms: C2_2  and  C3_3 
REMARK    2  A    between atoms: C3_3  and  N1_4 
REMARK    3  A    between atoms: C5_6  and  C6_7 
REMARK    4  A    between atoms: C6_7  and  C7_8 
REMARK    5  A    between atoms: C7_8  and  N2_9 
REMARK    6  A    between atoms: N2_9  and  N3_11 
REMARK    7  A    between atoms: N3_11  and  N4_13 
REMARK    8  A    between atoms: C10_19  and  C11_20 
REMARK       I    between atoms: C11_20  and  N6_22 
REMARK    9  A    between atoms: N6_22  and  C12_24 
REMARK   10  A    between atoms: C13_29  and  N9_30 
ROOT
HETATM    1  N1  UNL     1      16.691 -12.965  20.879  1.00  0.00    -0.349 N 
HETATM    2  C4  UNL     1      17.796 -13.643  21.339  1.00  0.00     0.116 A 
HETATM    3  C5  UNL     1      19.074 -13.296  20.988  1.00  0.00     0.028 A 
HETATM    4  N5  UNL     1      19.264 -12.257  20.164  1.00  0.00    -0.361 N 
HETATM    5  C8  UNL     1      20.618 -11.855  19.762  1.00  0.00     0.155 C 
HETATM    6  C9  UNL     1      18.213 -11.580  19.702  1.00  0.00     0.126 A 
HETATM    7  C10 UNL     1      16.893 -11.935  20.061  1.00  0.00     0.119 A 
ENDROOT
BRANCH   7   8
HETATM    8  C11 UNL     1      15.806 -11.171  19.518  1.00  0.00     0.288 C 
HETATM    9  O1  UNL     1      15.129 -11.434  18.512  1.00  0.00    -0.265 OA
HETATM   10  N6  UNL     1      15.400  -9.931  20.174  1.00  0.00    -0.152 N 
ATOM     11  H6  UNL     1      16.041  -9.142  20.261  1.00  0.00     0.187 HD
BRANCH  10  12
HETATM   12  C12 UNL     1      14.204  -9.873  20.638  1.00  0.00     0.714 A 
HETATM   13  N7  UNL     1      13.184  -9.203  20.084  1.00  0.00    -0.117 N 
HETATM   14  N8  UNL     1      12.099  -9.373  20.847  1.00  0.00    -0.118 N 
ATOM     15  H7  UNL     1      13.227  -8.656  19.224  1.00  0.00     0.206 HD
HETATM   16  C13 UNL     1      12.406 -10.141  21.883  1.00  0.00     0.705 A 
ATOM     17  H8  UNL     1      11.179  -8.973  20.660  1.00  0.00     0.206 HD
HETATM   18  N10 UNL     1      13.711 -10.444  21.744  1.00  0.00    -0.020 N 
ATOM     19  H10 UNL     1      14.246 -11.026  22.388  1.00  0.00     0.203 HD
BRANCH  16  20
HETATM   20  N9  UNL     1      11.639 -10.532  22.838  1.00  0.00    -0.233 N 
ATOM     21  H92 UNL     1      11.618 -10.148  23.784  1.00  0.00     0.174 HD
ATOM     22  H91 UNL     1      10.938 -11.272  22.821  1.00  0.00     0.174 HD
ENDBRANCH  16  20
ENDBRANCH  10  12
ENDBRANCH   7   8
BRANCH   1  23
HETATM   23  C3  UNL     1      15.402 -13.440  21.326  1.00  0.00     0.128 C 
BRANCH  23  24
HETATM   24  C2  UNL     1      14.840 -14.515  20.434  1.00  0.00     0.016 C 
HETATM   25  C1  UNL     1      13.437 -14.130  20.003  1.00  0.00     0.006 C 
ENDBRANCH  23  24
ENDBRANCH   1  23
BRANCH   3  26
HETATM   26  C6  UNL     1      20.243 -14.058  21.508  1.00  0.00     0.080 C 
BRANCH  26  27
HETATM   27  C7  UNL     1      20.680 -13.566  22.870  1.00  0.00     0.147 C 
BRANCH  27  28
HETATM   28  N2  UNL     1      21.895 -14.183  23.315  1.00  0.00    -0.322 N 
ATOM     29  H2  UNL     1      21.941 -15.183  23.506  1.00  0.00     0.181 HD
BRANCH  28  30
HETATM   30  N3  UNL     1      22.894 -13.450  23.461  1.00  0.00    -0.254 N 
ATOM     31  H3  UNL     1      22.468 -12.524  23.424  1.00  0.00     0.207 HD
BRANCH  30  32
HETATM   32  N4  UNL     1      24.097 -13.159  23.625  1.00  0.00    -0.331 N 
ATOM     33  H42 UNL     1      24.332 -13.874  24.314  1.00  0.00     0.178 HD
ATOM     34  H41 UNL     1      24.970 -12.648  23.490  1.00  0.00     0.178 HD
ENDBRANCH  30  32
ENDBRANCH  28  30
ENDBRANCH  27  28
ENDBRANCH  26  27
ENDBRANCH   3  26
TORSDOF 10
ENDMDL
MODEL 4
REMARK VINA RESULT: -7.326031067      2.874      8.259
REMARK  10 active torsions:
REMARK  status: ('A' for Active; 'I' for Inactive)
REMARK    1  A    between atoms: C2_2  and  C3_3 
REMARK    2  A    between atoms: C3_3  and  N1_4 
REMARK    3  A    between atoms: C5_6  and  C6_7 
REMARK    4  A    between atoms: C6_7  and  C7_8 
REMARK    5  A    between atoms: C7_8  and  N2_9 
REMARK    6  A    between atoms: N2_9  and  N3_11 
REMARK    7  A    between atoms: N3_11  and  N4_13 
REMARK    8  A    between atoms: C10_19  and  C11_20 
REMARK       I    between atoms: C11_20  and  N6_22 
REMARK    9  A    between atoms: N6_22  and  C12_24 
REMARK   10  A    between atoms: C13_29  and  N9_30 
ROOT
HETATM    1  N1  UNL     1      13.608 -12.871  21.127  1.00  0.00    -0.349 N 
HETATM    2  C4  UNL     1      12.700 -11.907  21.504  1.00  0.00     0.116 A 
HETATM    3  C5  UNL     1      12.938 -10.567  21.346  1.00  0.00     0.028 A 
HETATM    4  N5  UNL     1      14.098 -10.171  20.804  1.00  0.00    -0.361 N 
HETATM    5  C8  UNL     1      14.392  -8.744  20.621  1.00  0.00     0.155 C 
HETATM    6  C9  UNL     1      14.997 -11.080  20.430  1.00  0.00     0.126 A 
HETATM    7  C10 UNL     1      14.755 -12.463  20.591  1.00  0.00     0.119 A 
ENDROOT
BRANCH   7   8
HETATM    8  C11 UNL     1      15.772 -13.389  20.177  1.00  0.00     0.288 C 
HETATM    9  O1  UNL     1      15.910 -13.904  19.057  1.00  0.00    -0.265 OA
HETATM   10  N6  UNL     1      16.789 -13.816  21.134  1.00  0.00    -0.152 N 
ATOM     11  H6  UNL     1      16.538 -14.320  21.985  1.00  0.00     0.187 HD
BRANCH  10  12
HETATM   12  C12 UNL     1      18.012 -13.532  20.862  1.00  0.00     0.714 A 
HETATM   13  N7  UNL     1      19.084 -14.217  21.284  1.00  0.00    -0.117 N 
HETATM   14  N8  UNL     1      20.182 -13.625  20.804  1.00  0.00    -0.118 N 
ATOM     15  H7  UNL     1      19.066 -15.049  21.872  1.00  0.00     0.206 HD
HETATM   16  C13 UNL     1      19.833 -12.570  20.080  1.00  0.00     0.705 A 
ATOM     17  H8  UNL     1      21.140 -13.937  20.968  1.00  0.00     0.206 HD
HETATM   18  N10 UNL     1      18.488 -12.522  20.123  1.00  0.00    -0.020 N 
ATOM     19  H10 UNL     1      17.914 -11.818  19.659  1.00  0.00     0.203 HD
BRANCH  16  20
HETATM   20  N9  UNL     1      20.597 -11.746  19.454  1.00  0.00    -0.233 N 
ATOM     21  H92 UNL     1      21.617 -11.735  19.486  1.00  0.00     0.174 HD
ATOM     22  H91 UNL     1      20.327 -10.982  18.836  1.00  0.00     0.174 HD
ENDBRANCH  16  20
ENDBRANCH  10  12
ENDBRANCH   7   8
BRANCH   1  23
HETATM   23  C3  UNL     1      13.230 -14.246  21.354  1.00  0.00     0.128 C 
BRANCH  23  24
HETATM   24  C2  UNL     1      12.346 -14.791  20.263  1.00  0.00     0.016 C 
HETATM   25  C1  UNL     1      11.923 -16.205  20.614  1.00  0.00     0.006 C 
ENDBRANCH  23  24
ENDBRANCH   1  23
BRANCH   3  26
HETATM   26  C6  UNL     1      11.929  -9.557  21.768  1.00  0.00     0.080 C 
BRANCH  26  27
HETATM   27  C7  UNL     1      12.029  -9.241  23.244  1.00  0.00     0.147 C 
BRANCH  27  28
HETATM   28  N2  UNL     1      10.809  -9.511  23.949  1.00  0.00    -0.322 N 
ATOM     29  H2  UNL     1      10.192  -8.756  24.247  1.00  0.00     0.181 HD
BRANCH  28  30
HETATM   30  N3  UNL     1      10.532 -10.704  24.185  1.00  0.00    -0.254 N 
ATOM     31  H3  UNL     1      10.731 -10.761  25.184  1.00  0.00     0.207 HD
BRANCH  30  32
HETATM   32  N4  UNL     1      10.160 -11.872  23.944  1.00  0.00    -0.331 N 
ATOM     33  H42 UNL     1       9.397 -11.928  24.619  1.00  0.00     0.178 HD
ATOM     34  H41 UNL     1      10.158 -12.785  23.489  1.00  0.00     0.178 HD
ENDBRANCH  30  32
ENDBRANCH  28  30
ENDBRANCH  27  28
ENDBRANCH  26  27
ENDBRANCH   3  26
TORSDOF 10
ENDMDL
MODEL 5
REMARK VINA RESULT: -7.197922435      2.103      3.007
REMARK  10 active torsions:
REMARK  status: ('A' for Active; 'I' for Inactive)
REMARK    1  A    between atoms: C2_2  and  C3_3 
REMARK    2  A    between atoms: C3_3  and  N1_4 
REMARK    3  A    between atoms: C5_6  and  C6_7 
REMARK    4  A    between atoms: C6_7  and  C7_8 
REMARK    5  A    between atoms: C7_8  and  N2_9 
REMARK    6  A    between atoms: N2_9  and  N3_11 
REMARK    7  A    between atoms: N3_11  and  N4_13 
REMARK    8  A    between atoms: C10_19  and  C11_20 
REMARK       I    between atoms: C11_20  and  N6_22 
REMARK    9  A    between atoms: N6_22  and  C12_24 
REMARK   10  A    between atoms: C13_29  and  N9_30 
ROOT
HETATM    1  N1  UNL     1      16.630 -12.221  19.636  1.00  0.00    -0.349 N 
HETATM    2  C4  UNL     1      17.831 -12.827  19.927  1.00  0.00     0.116 A 
HETATM    3  C5  UNL     1      18.082 -13.427  21.134  1.00  0.00     0.028 A 
HETATM    4  N5  UNL     1      17.126 -13.426  22.073  1.00  0.00    -0.361 N 
HETATM    5  C8  UNL     1      17.357 -14.055  23.380  1.00  0.00     0.155 C 
HETATM    6  C9  UNL     1      15.953 -12.847  21.820  1.00  0.00     0.126 A 
HETATM    7  C10 UNL     1      15.690 -12.228  20.577  1.00  0.00     0.119 A 
ENDROOT
BRANCH   7   8
HETATM    8  C11 UNL     1      14.408 -11.612  20.376  1.00  0.00     0.288 C 
HETATM    9  O1  UNL     1      13.470 -12.035  19.684  1.00  0.00    -0.265 OA
HETATM   10  N6  UNL     1      14.111 -10.340  21.031  1.00  0.00    -0.152 N 
ATOM     11  H6  UNL     1      14.656  -9.501  20.831  1.00  0.00     0.187 HD
BRANCH  10  12
HETATM   12  C12 UNL     1      13.137 -10.321  21.867  1.00  0.00     0.714 A 
HETATM   13  N7  UNL     1      12.755  -9.262  22.596  1.00  0.00    -0.117 N 
HETATM   14  N8  UNL     1      11.711  -9.619  23.349  1.00  0.00    -0.118 N 
ATOM     15  H7  UNL     1      13.189  -8.340  22.578  1.00  0.00     0.206 HD
HETATM   16  C13 UNL     1      11.415 -10.891  23.117  1.00  0.00     0.705 A 
ATOM     17  H8  UNL     1      11.218  -9.008  24.002  1.00  0.00     0.206 HD
HETATM   18  N10 UNL     1      12.303 -11.315  22.199  1.00  0.00    -0.020 N 
ATOM     19  H10 UNL     1      12.336 -12.257  21.811  1.00  0.00     0.203 HD
BRANCH  16  20
HETATM   20  N9  UNL     1      10.480 -11.599  23.644  1.00  0.00    -0.233 N 
ATOM     21  H92 UNL     1       9.479 -11.409  23.582  1.00  0.00     0.174 HD
ATOM     22  H91 UNL     1      10.569 -12.449  24.201  1.00  0.00     0.174 HD
ENDBRANCH  16  20
ENDBRANCH  10  12
ENDBRANCH   7   8
BRANCH   1  23
HETATM   23  C3  UNL     1      16.502 -11.626  18.327  1.00  0.00     0.128 C 
BRANCH  23  24
HETATM   24  C2  UNL     1      16.011 -12.604  17.292  1.00  0.00     0.016 C 
HETATM   25  C1  UNL     1      15.123 -11.881  16.296  1.00  0.00     0.006 C 
ENDBRANCH  23  24
ENDBRANCH   1  23
BRANCH   3  26
HETATM   26  C6  UNL     1      19.396 -14.070  21.409  1.00  0.00     0.080 C 
BRANCH  26  27
HETATM   27  C7  UNL     1      20.438 -13.065  21.844  1.00  0.00     0.147 C 
BRANCH  27  28
HETATM   28  N2  UNL     1      21.007 -13.379  23.123  1.00  0.00    -0.322 N 
ATOM     29  H2  UNL     1      20.417 -13.575  23.931  1.00  0.00     0.181 HD
BRANCH  28  30
HETATM   30  N3  UNL     1      22.251 -13.402  23.210  1.00  0.00    -0.254 N 
ATOM     31  H3  UNL     1      22.519 -13.442  22.227  1.00  0.00     0.207 HD
BRANCH  30  32
HETATM   32  N4  UNL     1      23.369 -13.406  23.767  1.00  0.00    -0.331 N 
ATOM     33  H42 UNL     1      23.568 -12.407  23.712  1.00  0.00     0.178 HD
ATOM     34  H41 UNL     1      24.187 -13.797  24.235  1.00  0.00     0.178 HD
ENDBRANCH  30  32
ENDBRANCH  28  30
ENDBRANCH  27  28
ENDBRANCH  26  27
ENDBRANCH   3  26
TORSDOF 10
ENDMDL
