MODEL 1
REMARK VINA RESULT: -8.846981377      0.000      0.000
REMARK  5 active torsions:
REMARK  status: ('A' for Active; 'I' for Inactive)
REMARK    1  A    between atoms: O1_2  and  C2_3 
REMARK    2  A    between atoms: C2_3  and  N2_7 
REMARK    3  A    between atoms: C5_12  and  C6_13 
REMARK    4  A    between atoms: C6_13  and  O3_14 
REMARK    5  A    between atoms: C6_13  and  N4_16 
REMARK       I    between atoms: N4_16  and  C7_17 
ROOT
HETATM    1  N2  UNL     1      53.810  -7.974  43.406  1.00  0.00    -0.009 N 
HETATM    2  O2  UNL     1      52.439  -8.029  43.546  1.00  0.00    -0.255 OA
HETATM    3  C3  UNL     1      51.790  -6.918  43.095  1.00  0.00     0.223 C 
HETATM    4  C4  UNL     1      52.677  -5.907  42.414  1.00  0.00     0.178 C 
HETATM    5  N3  UNL     1      53.834  -5.604  43.228  1.00  0.00    -0.159 N 
HETATM    6  C5  UNL     1      54.554  -4.619  43.665  1.00  0.00     0.177 A 
HETATM    7  N5  UNL     1      55.578  -5.105  44.432  1.00  0.00    -0.269 N 
ATOM      8  H5  UNL     1      56.291  -4.541  44.896  1.00  0.00     0.189 HD
HETATM    9  N6  UNL     1      55.491  -6.428  44.473  1.00  0.00    -0.128 N 
ATOM     10  H6  UNL     1      56.112  -7.071  44.965  1.00  0.00     0.205 HD
HETATM   11  C9  UNL     1      54.423  -6.743  43.738  1.00  0.00     0.730 A 
ENDROOT
BRANCH   6  12
HETATM   12  C6  UNL     1      54.296  -3.153  43.372  1.00  0.00     0.372 C 
BRANCH  12  13
HETATM   13  O3  UNL     1      53.344  -2.651  44.303  1.00  0.00    -0.359 OA
ATOM     14  H3  UNL     1      53.530  -3.006  45.164  1.00  0.00     0.213 HD
ENDBRANCH  12  13
BRANCH  12  15
HETATM   15  N4  UNL     1      55.431  -2.375  43.317  1.00  0.00    -0.375 NA
HETATM   16  C7  UNL     1      56.537  -1.617  43.262  1.00  0.00     0.285 C 
HETATM   17  C8  UNL     1      56.386  -0.169  42.863  1.00  0.00     0.134 C 
HETATM   18  O4  UNL     1      57.754  -1.932  43.505  1.00  0.00    -0.258 OA
ENDBRANCH  12  15
ENDBRANCH   6  12
BRANCH   1  19
HETATM   19  C2  UNL     1      54.474  -9.141  42.952  1.00  0.00     0.261 C 
HETATM   20  N1  UNL     1      54.898  -9.343  41.752  1.00  0.00    -0.363 N 
ATOM     21  H12 UNL     1      55.376 -10.183  41.425  1.00  0.00     0.159 HD
ATOM     22  H11 UNL     1      54.732  -8.596  41.078  1.00  0.00     0.159 HD
BRANCH  19  23
HETATM   23  O1  UNL     1      54.702 -10.170  43.881  1.00  0.00    -0.325 OA
HETATM   24  C1  UNL     1      53.741 -11.187  44.046  1.00  0.00     0.213 C 
ENDBRANCH  19  23
ENDBRANCH   1  19
TORSDOF 5
ENDMDL
MODEL 2
REMARK VINA RESULT: -8.753870477      1.961      6.633
REMARK  5 active torsions:
REMARK  status: ('A' for Active; 'I' for Inactive)
REMARK    1  A    between atoms: O1_2  and  C2_3 
REMARK    2  A    between atoms: C2_3  and  N2_7 
REMARK    3  A    between atoms: C5_12  and  C6_13 
REMARK    4  A    between atoms: C6_13  and  O3_14 
REMARK    5  A    between atoms: C6_13  and  N4_16 
REMARK       I    between atoms: N4_16  and  C7_17 
ROOT
HETATM    1  N2  UNL     1      53.349  -4.703  42.560  1.00  0.00    -0.009 N 
HETATM    2  O2  UNL     1      52.015  -4.726  42.911  1.00  0.00    -0.255 OA
HETATM    3  C3  UNL     1      51.656  -5.811  43.654  1.00  0.00     0.223 C 
HETATM    4  C4  UNL     1      52.803  -6.701  44.060  1.00  0.00     0.178 C 
HETATM    5  N3  UNL     1      53.625  -7.036  42.917  1.00  0.00    -0.159 N 
HETATM    6  C5  UNL     1      54.225  -8.029  42.338  1.00  0.00     0.177 A 
HETATM    7  N5  UNL     1      54.876  -7.581  41.221  1.00  0.00    -0.269 N 
ATOM      8  H5  UNL     1      55.426  -8.158  40.584  1.00  0.00     0.189 HD
HETATM    9  N6  UNL     1      54.674  -6.275  41.101  1.00  0.00    -0.128 N 
ATOM     10  H6  UNL     1      55.031  -5.661  40.369  1.00  0.00     0.205 HD
HETATM   11  C9  UNL     1      53.906  -5.932  42.138  1.00  0.00     0.730 A 
ENDROOT
BRANCH   6  12
HETATM   12  C6  UNL     1      54.204  -9.465  42.826  1.00  0.00     0.372 C 
BRANCH  12  13
HETATM   13  O3  UNL     1      55.057  -9.586  43.959  1.00  0.00    -0.359 OA
ATOM     14  H3  UNL     1      55.604 -10.356  43.857  1.00  0.00     0.213 HD
ENDBRANCH  12  13
BRANCH  12  15
HETATM   15  N4  UNL     1      52.944  -9.966  43.067  1.00  0.00    -0.375 NA
HETATM   16  C7  UNL     1      51.716 -10.456  43.301  1.00  0.00     0.285 C 
HETATM   17  C8  UNL     1      51.605 -11.828  43.920  1.00  0.00     0.134 C 
HETATM   18  O4  UNL     1      50.572  -9.927  43.076  1.00  0.00    -0.258 OA
ENDBRANCH  12  15
ENDBRANCH   6  12
BRANCH   1  19
HETATM   19  C2  UNL     1      54.033  -3.465  42.650  1.00  0.00     0.261 C 
HETATM   20  N1  UNL     1      53.624  -2.427  43.296  1.00  0.00    -0.363 N 
ATOM     21  H12 UNL     1      54.117  -1.536  43.361  1.00  0.00     0.159 HD
ATOM     22  H11 UNL     1      52.728  -2.512  43.775  1.00  0.00     0.159 HD
BRANCH  19  23
HETATM   23  O1  UNL     1      55.268  -3.348  41.991  1.00  0.00    -0.325 OA
HETATM   24  C1  UNL     1      55.783  -2.070  41.695  1.00  0.00     0.213 C 
ENDBRANCH  19  23
ENDBRANCH   1  19
TORSDOF 5
ENDMDL
MODEL 3
REMARK VINA RESULT: -8.733861230      1.804      6.582
REMARK  5 active torsions:
REMARK  status: ('A' for Active; 'I' for Inactive)
REMARK    1  A    between atoms: O1_2  and  C2_3 
REMARK    2  A    between atoms: C2_3  and  N2_7 
REMARK    3  A    between atoms: C5_12  and  C6_13 
REMARK    4  A    between atoms: C6_13  and  O3_14 
REMARK    5  A    between atoms: C6_13  and  N4_16 
REMARK       I    between atoms: N4_16  and  C7_17 
ROOT
HETATM    1  N2  UNL     1      54.462  -4.514  42.868  1.00  0.00    -0.009 N 
HETATM    2  O2  UNL     1      54.528  -4.322  41.503  1.00  0.00    -0.255 OA
HETATM    3  C3  UNL     1      54.007  -5.349  40.774  1.00  0.00     0.223 C 
HETATM    4  C4  UNL     1      53.342  -6.426  41.593  1.00  0.00     0.178 C 
HETATM    5  N3  UNL     1      54.208  -6.868  42.664  1.00  0.00    -0.159 N 
HETATM    6  C5  UNL     1      54.651  -7.933  43.254  1.00  0.00     0.177 A 
HETATM    7  N5  UNL     1      55.488  -7.575  44.276  1.00  0.00    -0.269 N 
ATOM      8  H5  UNL     1      55.972  -8.221  44.901  1.00  0.00     0.189 HD
HETATM    9  N6  UNL     1      55.568  -6.252  44.321  1.00  0.00    -0.128 N 
ATOM     10  H6  UNL     1      56.114  -5.689  44.974  1.00  0.00     0.205 HD
HETATM   11  C9  UNL     1      54.786  -5.809  43.334  1.00  0.00     0.730 A 
ENDROOT
BRANCH   6  12
HETATM   12  C6  UNL     1      54.296  -9.356  42.868  1.00  0.00     0.372 C 
BRANCH  12  13
HETATM   13  O3  UNL     1      55.142 -10.257  43.573  1.00  0.00    -0.359 OA
ATOM     14  H3  UNL     1      55.054 -11.126  43.200  1.00  0.00     0.213 HD
ENDBRANCH  12  13
BRANCH  12  15
HETATM   15  N4  UNL     1      52.963  -9.670  43.015  1.00  0.00    -0.375 NA
HETATM   16  C7  UNL     1      51.664  -9.977  43.157  1.00  0.00     0.285 C 
HETATM   17  C8  UNL     1      51.310 -11.364  43.636  1.00  0.00     0.134 C 
HETATM   18  O4  UNL     1      50.628  -9.254  42.946  1.00  0.00    -0.258 OA
ENDBRANCH  12  15
ENDBRANCH   6  12
BRANCH   1  19
HETATM   19  C2  UNL     1      54.084  -3.409  43.670  1.00  0.00     0.261 C 
HETATM   20  N1  UNL     1      53.012  -3.331  44.382  1.00  0.00    -0.363 N 
ATOM     21  H12 UNL     1      52.739  -2.535  44.960  1.00  0.00     0.159 HD
ATOM     22  H11 UNL     1      52.386  -4.136  44.353  1.00  0.00     0.159 HD
BRANCH  19  23
HETATM   23  O1  UNL     1      54.945  -2.300  43.710  1.00  0.00    -0.325 OA
HETATM   24  C1  UNL     1      54.778  -1.252  42.782  1.00  0.00     0.213 C 
ENDBRANCH  19  23
ENDBRANCH   1  19
TORSDOF 5
ENDMDL
MODEL 4
REMARK VINA RESULT: -8.539867015      1.825      6.593
REMARK  5 active torsions:
REMARK  status: ('A' for Active; 'I' for Inactive)
REMARK    1  A    between atoms: O1_2  and  C2_3 
REMARK    2  A    between atoms: C2_3  and  N2_7 
REMARK    3  A    between atoms: C5_12  and  C6_13 
REMARK    4  A    between atoms: C6_13  and  O3_14 
REMARK    5  A    between atoms: C6_13  and  N4_16 
REMARK       I    between atoms: N4_16  and  C7_17 
ROOT
HETATM    1  N2  UNL     1      53.696  -4.445  43.028  1.00  0.00    -0.009 N 
HETATM    2  O2  UNL     1      52.338  -4.332  43.243  1.00  0.00    -0.255 OA
HETATM    3  C3  UNL     1      51.748  -5.482  43.675  1.00  0.00     0.223 C 
HETATM    4  C4  UNL     1      52.706  -6.610  43.962  1.00  0.00     0.178 C 
HETATM    5  N3  UNL     1      53.610  -6.814  42.851  1.00  0.00    -0.159 N 
HETATM    6  C5  UNL     1      54.138  -7.738  42.112  1.00  0.00     0.177 A 
HETATM    7  N5  UNL     1      54.976  -7.167  41.193  1.00  0.00    -0.269 N 
ATOM      8  H5  UNL     1      55.518  -7.670  40.490  1.00  0.00     0.189 HD
HETATM    9  N6  UNL     1      54.968  -5.851  41.365  1.00  0.00    -0.128 N 
ATOM     10  H6  UNL     1      55.491  -5.156  40.833  1.00  0.00     0.205 HD
HETATM   11  C9  UNL     1      54.131  -5.625  42.381  1.00  0.00     0.730 A 
ENDROOT
BRANCH   6  12
HETATM   12  C6  UNL     1      53.864  -9.224  42.245  1.00  0.00     0.372 C 
BRANCH  12  13
HETATM   13  O3  UNL     1      54.837  -9.803  43.107  1.00  0.00    -0.359 OA
ATOM     14  H3  UNL     1      55.631  -9.282  43.078  1.00  0.00     0.213 HD
ENDBRANCH  12  13
BRANCH  12  15
HETATM   15  N4  UNL     1      52.578  -9.534  42.628  1.00  0.00    -0.375 NA
HETATM   16  C7  UNL     1      51.325  -9.837  43.001  1.00  0.00     0.285 C 
HETATM   17  C8  UNL     1      51.040 -11.248  43.455  1.00  0.00     0.134 C 
HETATM   18  O4  UNL     1      50.283  -9.092  43.039  1.00  0.00    -0.258 OA
ENDBRANCH  12  15
ENDBRANCH   6  12
BRANCH   1  19
HETATM   19  C2  UNL     1      54.524  -3.382  43.467  1.00  0.00     0.261 C 
HETATM   20  N1  UNL     1      55.647  -3.511  44.086  1.00  0.00    -0.363 N 
ATOM     21  H12 UNL     1      56.243  -2.745  44.402  1.00  0.00     0.159 HD
ATOM     22  H11 UNL     1      55.955  -4.465  44.277  1.00  0.00     0.159 HD
BRANCH  19  23
HETATM   23  O1  UNL     1      54.100  -2.068  43.204  1.00  0.00    -0.325 OA
HETATM   24  C1  UNL     1      55.046  -1.088  42.844  1.00  0.00     0.213 C 
ENDBRANCH  19  23
ENDBRANCH   1  19
TORSDOF 5
ENDMDL
MODEL 5
REMARK VINA RESULT: -8.480708529      1.575      2.202
REMARK  5 active torsions:
REMARK  status: ('A' for Active; 'I' for Inactive)
REMARK    1  A    between atoms: O1_2  and  C2_3 
REMARK    2  A    between atoms: C2_3  and  N2_7 
REMARK    3  A    between atoms: C5_12  and  C6_13 
REMARK    4  A    between atoms: C6_13  and  O3_14 
REMARK    5  A    between atoms: C6_13  and  N4_16 
REMARK       I    between atoms: N4_16  and  C7_17 
ROOT
HETATM    1  N2  UNL     1      54.528  -7.367  42.624  1.00  0.00    -0.009 N 
HETATM    2  O2  UNL     1      55.291  -7.485  43.767  1.00  0.00    -0.255 OA
HETATM    3  C3  UNL     1      55.201  -6.415  44.607  1.00  0.00     0.223 C 
HETATM    4  C4  UNL     1      54.191  -5.375  44.192  1.00  0.00     0.178 C 
HETATM    5  N3  UNL     1      54.374  -5.002  42.807  1.00  0.00    -0.159 N 
HETATM    6  C5  UNL     1      54.431  -3.976  42.018  1.00  0.00     0.177 A 
HETATM    7  N5  UNL     1      54.630  -4.397  40.731  1.00  0.00    -0.269 N 
ATOM      8  H5  UNL     1      54.712  -3.791  39.914  1.00  0.00     0.189 HD
HETATM    9  N6  UNL     1      54.698  -5.722  40.720  1.00  0.00    -0.128 N 
ATOM     10  H6  UNL     1      54.840  -6.325  39.910  1.00  0.00     0.205 HD
HETATM   11  C9  UNL     1      54.544  -6.102  41.991  1.00  0.00     0.730 A 
ENDROOT
BRANCH   6  12
HETATM   12  C6  UNL     1      54.301  -2.530  42.457  1.00  0.00     0.372 C 
BRANCH  12  13
HETATM   13  O3  UNL     1      53.422  -2.458  43.574  1.00  0.00    -0.359 OA
ATOM     14  H3  UNL     1      52.601  -2.066  43.300  1.00  0.00     0.213 HD
ENDBRANCH  12  13
BRANCH  12  15
HETATM   15  N4  UNL     1      55.501  -1.897  42.698  1.00  0.00    -0.375 NA
HETATM   16  C7  UNL     1      56.670  -1.281  42.932  1.00  0.00     0.285 C 
HETATM   17  C8  UNL     1      56.762   0.199  42.649  1.00  0.00     0.134 C 
HETATM   18  O4  UNL     1      57.771  -1.762  43.378  1.00  0.00    -0.258 OA
ENDBRANCH  12  15
ENDBRANCH   6  12
BRANCH   1  19
HETATM   19  C2  UNL     1      53.810  -8.508  42.189  1.00  0.00     0.261 C 
HETATM   20  N1  UNL     1      54.332  -9.612  41.777  1.00  0.00    -0.363 N 
ATOM     21  H12 UNL     1      53.814 -10.434  41.464  1.00  0.00     0.159 HD
ATOM     22  H11 UNL     1      55.351  -9.655  41.760  1.00  0.00     0.159 HD
BRANCH  19  23
HETATM   23  O1  UNL     1      52.406  -8.448  42.213  1.00  0.00    -0.325 OA
HETATM   24  C1  UNL     1      51.677  -9.430  42.914  1.00  0.00     0.213 C 
ENDBRANCH  19  23
ENDBRANCH   1  19
TORSDOF 5
ENDMDL
