MODEL 1
REMARK VINA RESULT: -8.491416707      0.000      0.000
REMARK  5 active torsions:
REMARK  status: ('A' for Active; 'I' for Inactive)
REMARK    1  A    between atoms: O1_2  and  C2_3 
REMARK    2  A    between atoms: N1_8  and  O2_10 
REMARK    3  A    between atoms: C8_13  and  O3_14 
REMARK    4  A    between atoms: C8_13  and  O4_16 
REMARK    5  A    between atoms: C10_19  and  O6_20 
ROOT
HETATM    1  C2  UNL     1      52.374 -10.071  42.831  1.00  0.00     0.265 C 
HETATM    2  C3  UNL     1      52.445  -9.078  43.975  1.00  0.00     0.104 C 
HETATM    3  C4  UNL     1      53.040  -7.835  43.287  1.00  0.00     0.125 C 
HETATM    4  C5  UNL     1      53.936  -7.135  44.230  1.00  0.00     0.098 C 
HETATM    5  C6  UNL     1      53.809  -5.664  44.236  1.00  0.00     0.020 C 
HETATM    6  N1  UNL     1      54.759  -4.855  44.569  1.00  0.00    -0.277 N 
ATOM      7  H1  UNL     1      54.631  -3.844  44.560  1.00  0.00     0.193 HD
HETATM    8  C7  UNL     1      52.498  -5.088  43.829  1.00  0.00     0.156 C 
HETATM    9  C8  UNL     1      52.179  -5.819  42.517  1.00  0.00     0.285 C 
HETATM   10  O5  UNL     1      51.984  -7.125  42.803  1.00  0.00    -0.316 OA
HETATM   11  C10 UNL     1      53.740  -8.511  42.133  1.00  0.00     0.295 C 
HETATM   12  O7  UNL     1      52.737  -9.372  41.682  1.00  0.00    -0.329 OA
ENDROOT
BRANCH  11  13
HETATM   13  O6  UNL     1      54.806  -9.304  42.525  1.00  0.00    -0.368 OA
ATOM     14  H6  UNL     1      55.295  -9.667  41.795  1.00  0.00     0.212 HD
ENDBRANCH  11  13
BRANCH   1  15
HETATM   15  O1  UNL     1      51.060 -10.526  42.774  1.00  0.00    -0.366 OA
HETATM   16  C1  UNL     1      50.881 -11.706  43.482  1.00  0.00     0.204 C 
ENDBRANCH   1  15
BRANCH   9  17
HETATM   17  O3  UNL     1      53.232  -5.538  41.664  1.00  0.00    -0.343 OA
ATOM     18  H3  UNL     1      53.177  -6.180  40.967  1.00  0.00     0.215 HD
ENDBRANCH   9  17
BRANCH   9  19
HETATM   19  O4  UNL     1      51.025  -5.302  41.936  1.00  0.00    -0.338 OA
HETATM   20  C9  UNL     1      51.284  -3.974  41.625  1.00  0.00     0.208 C 
ENDBRANCH   9  19
BRANCH   6  21
HETATM   21  O2  UNL     1      55.955  -5.431  44.939  1.00  0.00    -0.290 OA
ATOM     22  H2  UNL     1      56.549  -4.888  45.443  1.00  0.00     0.244 HD
ENDBRANCH   6  21
TORSDOF 5
ENDMDL
MODEL 2
REMARK VINA RESULT: -8.012618925      1.540      1.867
REMARK  5 active torsions:
REMARK  status: ('A' for Active; 'I' for Inactive)
REMARK    1  A    between atoms: O1_2  and  C2_3 
REMARK    2  A    between atoms: N1_8  and  O2_10 
REMARK    3  A    between atoms: C8_13  and  O3_14 
REMARK    4  A    between atoms: C8_13  and  O4_16 
REMARK    5  A    between atoms: C10_19  and  O6_20 
ROOT
HETATM    1  C2  UNL     1      54.452  -8.918  43.179  1.00  0.00     0.265 C 
HETATM    2  C3  UNL     1      54.294  -7.752  44.135  1.00  0.00     0.104 C 
HETATM    3  C4  UNL     1      54.134  -6.562  43.170  1.00  0.00     0.125 C 
HETATM    4  C5  UNL     1      54.789  -5.371  43.748  1.00  0.00     0.098 C 
HETATM    5  C6  UNL     1      54.029  -4.112  43.613  1.00  0.00     0.020 C 
HETATM    6  N1  UNL     1      54.567  -2.939  43.581  1.00  0.00    -0.277 N 
ATOM      7  H1  UNL     1      54.005  -2.093  43.487  1.00  0.00     0.193 HD
HETATM    8  C7  UNL     1      52.547  -4.216  43.508  1.00  0.00     0.156 C 
HETATM    9  C8  UNL     1      52.340  -5.286  42.426  1.00  0.00     0.285 C 
HETATM   10  O5  UNL     1      52.802  -6.461  42.907  1.00  0.00    -0.316 OA
HETATM   11  C10 UNL     1      54.826  -7.140  41.960  1.00  0.00     0.295 C 
HETATM   12  O7  UNL     1      54.241  -8.407  41.900  1.00  0.00    -0.329 OA
ENDROOT
BRANCH  11  13
HETATM   13  O6  UNL     1      56.186  -7.330  42.142  1.00  0.00    -0.368 OA
ATOM     14  H6  UNL     1      56.608  -7.765  41.410  1.00  0.00     0.212 HD
ENDBRANCH  11  13
BRANCH   1  15
HETATM   15  O1  UNL     1      53.491  -9.860  43.530  1.00  0.00    -0.366 OA
HETATM   16  C1  UNL     1      52.388  -9.825  42.689  1.00  0.00     0.204 C 
ENDBRANCH   1  15
BRANCH   9  17
HETATM   17  O3  UNL     1      52.975  -4.804  41.295  1.00  0.00    -0.343 OA
ATOM     18  H3  UNL     1      52.952  -5.514  40.665  1.00  0.00     0.215 HD
ENDBRANCH   9  17
BRANCH   9  19
HETATM   19  O4  UNL     1      50.990  -5.417  42.119  1.00  0.00    -0.338 OA
HETATM   20  C9  UNL     1      50.538  -4.168  41.717  1.00  0.00     0.208 C 
ENDBRANCH   9  19
BRANCH   6  21
HETATM   21  O2  UNL     1      55.940  -2.890  43.682  1.00  0.00    -0.290 OA
ATOM     22  H2  UNL     1      56.322  -2.039  43.860  1.00  0.00     0.244 HD
ENDBRANCH   6  21
TORSDOF 5
ENDMDL
MODEL 3
REMARK VINA RESULT: -7.338599710      1.955      2.376
REMARK  5 active torsions:
REMARK  status: ('A' for Active; 'I' for Inactive)
REMARK    1  A    between atoms: O1_2  and  C2_3 
REMARK    2  A    between atoms: N1_8  and  O2_10 
REMARK    3  A    between atoms: C8_13  and  O3_14 
REMARK    4  A    between atoms: C8_13  and  O4_16 
REMARK    5  A    between atoms: C10_19  and  O6_20 
ROOT
HETATM    1  C2  UNL     1      54.386  -8.883  43.453  1.00  0.00     0.265 C 
HETATM    2  C3  UNL     1      54.798  -7.473  43.828  1.00  0.00     0.104 C 
HETATM    3  C4  UNL     1      54.258  -6.652  42.644  1.00  0.00     0.125 C 
HETATM    4  C5  UNL     1      55.189  -5.542  42.351  1.00  0.00     0.098 C 
HETATM    5  C6  UNL     1      54.544  -4.244  42.070  1.00  0.00     0.020 C 
HETATM    6  N1  UNL     1      55.069  -3.315  41.342  1.00  0.00    -0.277 N 
ATOM      7  H1  UNL     1      54.590  -2.432  41.172  1.00  0.00     0.193 HD
HETATM    8  C7  UNL     1      53.202  -4.002  42.667  1.00  0.00     0.156 C 
HETATM    9  C8  UNL     1      52.417  -5.273  42.310  1.00  0.00     0.285 C 
HETATM   10  O5  UNL     1      52.980  -6.311  42.967  1.00  0.00    -0.316 OA
HETATM   11  C10 UNL     1      54.220  -7.738  41.596  1.00  0.00     0.295 C 
HETATM   12  O7  UNL     1      53.602  -8.770  42.307  1.00  0.00    -0.329 OA
ENDROOT
BRANCH  11  13
HETATM   13  O6  UNL     1      55.475  -8.194  41.230  1.00  0.00    -0.368 OA
ATOM     14  H6  UNL     1      55.452  -8.882  40.575  1.00  0.00     0.212 HD
ENDBRANCH  11  13
BRANCH   1  15
HETATM   15  O1  UNL     1      53.668  -9.393  44.529  1.00  0.00    -0.366 OA
HETATM   16  C1  UNL     1      52.944 -10.528  44.188  1.00  0.00     0.204 C 
ENDBRANCH   1  15
BRANCH   9  17
HETATM   17  O3  UNL     1      52.437  -5.351  40.929  1.00  0.00    -0.343 OA
ATOM     18  H3  UNL     1      52.488  -4.454  40.621  1.00  0.00     0.215 HD
ENDBRANCH   9  17
BRANCH   9  19
HETATM   19  O4  UNL     1      51.087  -5.154  42.699  1.00  0.00    -0.338 OA
HETATM   20  C9  UNL     1      51.078  -4.537  43.943  1.00  0.00     0.208 C 
ENDBRANCH   9  19
BRANCH   6  21
HETATM   21  O2  UNL     1      56.311  -3.582  40.809  1.00  0.00    -0.290 OA
ATOM     22  H2  UNL     1      57.055  -3.188  41.250  1.00  0.00     0.244 HD
ENDBRANCH   6  21
TORSDOF 5
ENDMDL
MODEL 4
REMARK VINA RESULT: -7.323421785      2.471      5.305
REMARK  5 active torsions:
REMARK  status: ('A' for Active; 'I' for Inactive)
REMARK    1  A    between atoms: O1_2  and  C2_3 
REMARK    2  A    between atoms: N1_8  and  O2_10 
REMARK    3  A    between atoms: C8_13  and  O3_14 
REMARK    4  A    between atoms: C8_13  and  O4_16 
REMARK    5  A    between atoms: C10_19  and  O6_20 
ROOT
HETATM    1  C2  UNL     1      54.973  -2.680  43.019  1.00  0.00     0.265 C 
HETATM    2  C3  UNL     1      55.084  -3.951  42.199  1.00  0.00     0.104 C 
HETATM    3  C4  UNL     1      54.257  -4.947  43.033  1.00  0.00     0.125 C 
HETATM    4  C5  UNL     1      54.875  -6.286  42.951  1.00  0.00     0.098 C 
HETATM    5  C6  UNL     1      53.925  -7.402  42.772  1.00  0.00     0.020 C 
HETATM    6  N1  UNL     1      54.150  -8.615  43.155  1.00  0.00    -0.277 N 
ATOM      7  H1  UNL     1      53.467  -9.358  43.013  1.00  0.00     0.193 HD
HETATM    8  C7  UNL     1      52.627  -7.098  42.109  1.00  0.00     0.156 C 
HETATM    9  C8  UNL     1      52.125  -5.855  42.859  1.00  0.00     0.285 C 
HETATM   10  O5  UNL     1      52.972  -4.836  42.596  1.00  0.00    -0.316 OA
HETATM   11  C10 UNL     1      54.369  -4.281  44.382  1.00  0.00     0.295 C 
HETATM   12  O7  UNL     1      54.077  -2.955  44.049  1.00  0.00    -0.329 OA
ENDROOT
BRANCH  11  13
HETATM   13  O6  UNL     1      55.654  -4.294  44.898  1.00  0.00    -0.368 OA
ATOM     14  H6  UNL     1      56.245  -4.869  44.426  1.00  0.00     0.212 HD
ENDBRANCH  11  13
BRANCH   1  15
HETATM   15  O1  UNL     1      54.498  -1.689  42.165  1.00  0.00    -0.366 OA
HETATM   16  C1  UNL     1      54.935  -0.424  42.532  1.00  0.00     0.204 C 
ENDBRANCH   1  15
BRANCH   9  17
HETATM   17  O3  UNL     1      52.029  -6.232  44.187  1.00  0.00    -0.343 OA
ATOM     18  H3  UNL     1      52.502  -7.053  44.257  1.00  0.00     0.215 HD
ENDBRANCH   9  17
BRANCH   9  19
HETATM   19  O4  UNL     1      50.847  -5.509  42.434  1.00  0.00    -0.338 OA
HETATM   20  C9  UNL     1      50.942  -4.268  41.819  1.00  0.00     0.208 C 
ENDBRANCH   9  19
BRANCH   6  21
HETATM   21  O2  UNL     1      55.363  -8.852  43.764  1.00  0.00    -0.290 OA
ATOM     22  H2  UNL     1      55.501  -9.727  44.107  1.00  0.00     0.244 HD
ENDBRANCH   6  21
TORSDOF 5
ENDMDL
MODEL 5
REMARK VINA RESULT: -7.089838451      2.286      3.876
REMARK  5 active torsions:
REMARK  status: ('A' for Active; 'I' for Inactive)
REMARK    1  A    between atoms: O1_2  and  C2_3 
REMARK    2  A    between atoms: N1_8  and  O2_10 
REMARK    3  A    between atoms: C8_13  and  O3_14 
REMARK    4  A    between atoms: C8_13  and  O4_16 
REMARK    5  A    between atoms: C10_19  and  O6_20 
ROOT
HETATM    1  C2  UNL     1      53.498  -8.286  43.584  1.00  0.00     0.265 C 
HETATM    2  C3  UNL     1      53.447  -7.410  42.348  1.00  0.00     0.104 C 
HETATM    3  C4  UNL     1      52.988  -6.059  42.928  1.00  0.00     0.125 C 
HETATM    4  C5  UNL     1      52.102  -5.385  41.956  1.00  0.00     0.098 C 
HETATM    5  C6  UNL     1      52.344  -3.937  41.792  1.00  0.00     0.020 C 
HETATM    6  N1  UNL     1      51.445  -3.090  41.417  1.00  0.00    -0.277 N 
ATOM      7  H1  UNL     1      51.653  -2.097  41.315  1.00  0.00     0.193 HD
HETATM    8  C7  UNL     1      53.716  -3.435  42.080  1.00  0.00     0.156 C 
HETATM    9  C8  UNL     1      54.043  -4.056  43.446  1.00  0.00     0.285 C 
HETATM   10  O5  UNL     1      54.120  -5.395  43.290  1.00  0.00    -0.316 OA
HETATM   11  C10 UNL     1      52.296  -6.556  44.174  1.00  0.00     0.295 C 
HETATM   12  O7  UNL     1      53.251  -7.448  44.669  1.00  0.00    -0.329 OA
ENDROOT
BRANCH  11  13
HETATM   13  O6  UNL     1      51.153  -7.292  43.914  1.00  0.00    -0.368 OA
ATOM     14  H6  UNL     1      50.705  -7.026  43.119  1.00  0.00     0.212 HD
ENDBRANCH  11  13
BRANCH   1  15
HETATM   15  O1  UNL     1      54.774  -8.841  43.633  1.00  0.00    -0.366 OA
HETATM   16  C1  UNL     1      54.743 -10.228  43.657  1.00  0.00     0.204 C 
ENDBRANCH   1  15
BRANCH   9  17
HETATM   17  O3  UNL     1      53.061  -3.603  44.309  1.00  0.00    -0.343 OA
ATOM     18  H3  UNL     1      53.413  -2.819  44.711  1.00  0.00     0.215 HD
ENDBRANCH   9  17
BRANCH   9  19
HETATM   19  O4  UNL     1      55.262  -3.581  43.920  1.00  0.00    -0.338 OA
HETATM   20  C9  UNL     1      55.477  -2.343  43.329  1.00  0.00     0.208 C 
ENDBRANCH   9  19
BRANCH   6  21
HETATM   21  O2  UNL     1      50.190  -3.598  41.161  1.00  0.00    -0.290 OA
ATOM     22  H2  UNL     1      49.635  -3.086  40.584  1.00  0.00     0.244 HD
ENDBRANCH   6  21
TORSDOF 5
ENDMDL
