MODEL 1
REMARK VINA RESULT: -8.639941582      0.000      0.000
REMARK  6 active torsions:
REMARK  status: ('A' for Active; 'I' for Inactive)
REMARK    1  A    between atoms: O1_2  and  C2_3 
REMARK    2  A    between atoms: C2_3  and  C3_5 
REMARK    3  A    between atoms: C3_5  and  C4_6 
REMARK    4  A    between atoms: C4_6  and  O3_8 
REMARK    5  A    between atoms: C8_13  and  O5_14 
REMARK    6  A    between atoms: C9_16  and  O6_17 
ROOT
HETATM    1  C3  UNL     1      53.148  -8.610  43.223  1.00  0.00     0.179 C 
HETATM    2  C6  UNL     1      51.793  -9.041  42.650  1.00  0.00     0.088 C 
HETATM    3  C7  UNL     1      51.444 -10.158  43.594  1.00  0.00     0.183 C 
HETATM    4  O4  UNL     1      50.674 -11.147  43.061  1.00  0.00    -0.346 OA
HETATM    5  C8  UNL     1      51.035 -12.428  43.436  1.00  0.00     0.312 C 
HETATM    6  C9  UNL     1      51.828 -12.548  44.669  1.00  0.00     0.315 C 
HETATM    7  O7  UNL     1      52.731 -11.550  44.917  1.00  0.00    -0.324 OA
HETATM    8  C10 UNL     1      52.842 -10.753  43.811  1.00  0.00     0.294 C 
HETATM    9  O8  UNL     1      53.644  -9.663  43.929  1.00  0.00    -0.335 OA
ENDROOT
BRANCH   1  10
HETATM   10  C2  UNL     1      53.003  -7.436  44.104  1.00  0.00     0.296 C 
HETATM   11  O2  UNL     1      53.810  -7.134  45.022  1.00  0.00    -0.262 OA
BRANCH  10  12
HETATM   12  O1  UNL     1      51.912  -6.603  43.923  1.00  0.00    -0.324 OA
HETATM   13  C1  UNL     1      52.008  -5.236  43.640  1.00  0.00     0.213 C 
ENDBRANCH  10  12
ENDBRANCH   1  10
BRANCH   1  14
HETATM   14  C4  UNL     1      54.045  -8.337  42.037  1.00  0.00     0.159 C 
HETATM   15  C5  UNL     1      54.814  -7.039  42.205  1.00  0.00     0.043 C 
BRANCH  14  16
HETATM   16  O3  UNL     1      54.882  -9.401  41.754  1.00  0.00    -0.392 OA
ATOM     17  H3  UNL     1      54.889 -10.049  42.448  1.00  0.00     0.210 HD
ENDBRANCH  14  16
ENDBRANCH   1  14
BRANCH   5  18
HETATM   18  O5  UNL     1      49.827 -13.141  43.618  1.00  0.00    -0.367 OA
ATOM     19  H5  UNL     1      50.046 -13.903  44.144  1.00  0.00     0.212 HD
ENDBRANCH   5  18
BRANCH   6  20
HETATM   20  O6  UNL     1      52.551 -13.759  44.651  1.00  0.00    -0.367 OA
ATOM     21  H6  UNL     1      52.181 -14.360  45.287  1.00  0.00     0.212 HD
ENDBRANCH   6  20
TORSDOF 6
ENDMDL
MODEL 2
REMARK VINA RESULT: -8.468069741      1.911      3.914
REMARK  6 active torsions:
REMARK  status: ('A' for Active; 'I' for Inactive)
REMARK    1  A    between atoms: O1_2  and  C2_3 
REMARK    2  A    between atoms: C2_3  and  C3_5 
REMARK    3  A    between atoms: C3_5  and  C4_6 
REMARK    4  A    between atoms: C4_6  and  O3_8 
REMARK    5  A    between atoms: C8_13  and  O5_14 
REMARK    6  A    between atoms: C9_16  and  O6_17 
ROOT
HETATM    1  C3  UNL     1      52.328  -5.932  42.804  1.00  0.00     0.179 C 
HETATM    2  C6  UNL     1      53.532  -6.702  43.362  1.00  0.00     0.088 C 
HETATM    3  C7  UNL     1      53.183  -8.099  42.927  1.00  0.00     0.183 C 
HETATM    4  O4  UNL     1      53.650  -9.090  43.736  1.00  0.00    -0.346 OA
HETATM    5  C8  UNL     1      52.760 -10.124  43.957  1.00  0.00     0.312 C 
HETATM    6  C9  UNL     1      51.682 -10.279  42.968  1.00  0.00     0.315 C 
HETATM    7  O7  UNL     1      51.174  -9.128  42.428  1.00  0.00    -0.324 OA
HETATM    8  C10 UNL     1      51.661  -8.051  43.116  1.00  0.00     0.294 C 
HETATM    9  O8  UNL     1      51.313  -6.825  42.646  1.00  0.00    -0.335 OA
ENDROOT
BRANCH   1  10
HETATM   10  C2  UNL     1      52.652  -5.303  41.510  1.00  0.00     0.296 C 
HETATM   11  O2  UNL     1      51.824  -4.680  40.797  1.00  0.00    -0.262 OA
BRANCH  10  12
HETATM   12  O1  UNL     1      53.950  -5.397  41.036  1.00  0.00    -0.324 OA
HETATM   13  C1  UNL     1      54.791  -4.300  40.828  1.00  0.00     0.213 C 
ENDBRANCH  10  12
ENDBRANCH   1  10
BRANCH   1  14
HETATM   14  C4  UNL     1      51.943  -4.921  43.859  1.00  0.00     0.159 C 
HETATM   15  C5  UNL     1      53.021  -3.869  44.046  1.00  0.00     0.043 C 
BRANCH  14  16
HETATM   16  O3  UNL     1      50.705  -4.354  43.618  1.00  0.00    -0.392 OA
ATOM     17  H3  UNL     1      50.707  -3.413  43.747  1.00  0.00     0.210 HD
ENDBRANCH  14  16
ENDBRANCH   1  14
BRANCH   5  18
HETATM   18  O5  UNL     1      53.528 -11.312  43.959  1.00  0.00    -0.367 OA
ATOM     19  H5  UNL     1      53.122 -11.891  43.325  1.00  0.00     0.212 HD
ENDBRANCH   5  18
BRANCH   6  20
HETATM   20  O6  UNL     1      50.598 -10.967  43.554  1.00  0.00    -0.367 OA
ATOM     21  H6  UNL     1      49.898 -10.354  43.744  1.00  0.00     0.212 HD
ENDBRANCH   6  20
TORSDOF 6
ENDMDL
MODEL 3
REMARK VINA RESULT: -8.251518768      2.508      3.541
REMARK  6 active torsions:
REMARK  status: ('A' for Active; 'I' for Inactive)
REMARK    1  A    between atoms: O1_2  and  C2_3 
REMARK    2  A    between atoms: C2_3  and  C3_5 
REMARK    3  A    between atoms: C3_5  and  C4_6 
REMARK    4  A    between atoms: C4_6  and  O3_8 
REMARK    5  A    between atoms: C8_13  and  O5_14 
REMARK    6  A    between atoms: C9_16  and  O6_17 
ROOT
HETATM    1  C3  UNL     1      54.048  -5.542  42.312  1.00  0.00     0.179 C 
HETATM    2  C6  UNL     1      52.530  -5.741  42.204  1.00  0.00     0.088 C 
HETATM    3  C7  UNL     1      52.354  -6.945  43.090  1.00  0.00     0.183 C 
HETATM    4  O4  UNL     1      51.314  -7.759  42.758  1.00  0.00    -0.346 OA
HETATM    5  C8  UNL     1      51.586  -9.112  42.847  1.00  0.00     0.312 C 
HETATM    6  C9  UNL     1      52.716  -9.494  43.708  1.00  0.00     0.315 C 
HETATM    7  O7  UNL     1      53.788  -8.642  43.728  1.00  0.00    -0.324 OA
HETATM    8  C10 UNL     1      53.641  -7.705  42.743  1.00  0.00     0.294 C 
HETATM    9  O8  UNL     1      54.588  -6.733  42.687  1.00  0.00    -0.335 OA
ENDROOT
BRANCH   1  10
HETATM   10  C2  UNL     1      54.377  -4.503  43.306  1.00  0.00     0.296 C 
HETATM   11  O2  UNL     1      55.277  -4.617  44.178  1.00  0.00    -0.262 OA
BRANCH  10  12
HETATM   12  O1  UNL     1      53.658  -3.320  43.291  1.00  0.00    -0.324 OA
HETATM   13  C1  UNL     1      54.205  -2.073  42.970  1.00  0.00     0.213 C 
ENDBRANCH  10  12
ENDBRANCH   1  10
BRANCH   1  14
HETATM   14  C4  UNL     1      54.530  -5.189  40.923  1.00  0.00     0.159 C 
HETATM   15  C5  UNL     1      53.398  -4.676  40.052  1.00  0.00     0.043 C 
BRANCH  14  16
HETATM   16  O3  UNL     1      55.603  -4.317  40.945  1.00  0.00    -0.392 OA
ATOM     17  H3  UNL     1      55.904  -4.136  41.827  1.00  0.00     0.210 HD
ENDBRANCH  14  16
ENDBRANCH   1  14
BRANCH   5  18
HETATM   18  O5  UNL     1      50.416  -9.716  43.364  1.00  0.00    -0.367 OA
ATOM     19  H5  UNL     1      50.118 -10.326  42.699  1.00  0.00     0.212 HD
ENDBRANCH   5  18
BRANCH   6  20
HETATM   20  O6  UNL     1      53.206 -10.757  43.313  1.00  0.00    -0.367 OA
ATOM     21  H6  UNL     1      53.388 -11.282  44.083  1.00  0.00     0.212 HD
ENDBRANCH   6  20
TORSDOF 6
ENDMDL
MODEL 4
REMARK VINA RESULT: -8.025851762      1.867      3.253
REMARK  6 active torsions:
REMARK  status: ('A' for Active; 'I' for Inactive)
REMARK    1  A    between atoms: O1_2  and  C2_3 
REMARK    2  A    between atoms: C2_3  and  C3_5 
REMARK    3  A    between atoms: C3_5  and  C4_6 
REMARK    4  A    between atoms: C4_6  and  O3_8 
REMARK    5  A    between atoms: C8_13  and  O5_14 
REMARK    6  A    between atoms: C9_16  and  O6_17 
ROOT
HETATM    1  C3  UNL     1      53.942  -7.003  43.157  1.00  0.00     0.179 C 
HETATM    2  C6  UNL     1      54.678  -8.175  43.817  1.00  0.00     0.088 C 
HETATM    3  C7  UNL     1      53.902  -9.333  43.254  1.00  0.00     0.183 C 
HETATM    4  O4  UNL     1      53.844 -10.435  44.053  1.00  0.00    -0.346 OA
HETATM    5  C8  UNL     1      52.611 -11.058  44.091  1.00  0.00     0.312 C 
HETATM    6  C9  UNL     1      51.707 -10.786  42.963  1.00  0.00     0.315 C 
HETATM    7  O7  UNL     1      51.749  -9.524  42.434  1.00  0.00    -0.324 OA
HETATM    8  C10 UNL     1      52.497  -8.717  43.246  1.00  0.00     0.294 C 
HETATM    9  O8  UNL     1      52.701  -7.446  42.812  1.00  0.00    -0.335 OA
ENDROOT
BRANCH   1  10
HETATM   10  C2  UNL     1      54.660  -6.532  41.958  1.00  0.00     0.296 C 
HETATM   11  O2  UNL     1      55.836  -6.865  41.659  1.00  0.00    -0.262 OA
BRANCH  10  12
HETATM   12  O1  UNL     1      54.011  -5.665  41.095  1.00  0.00    -0.324 OA
HETATM   13  C1  UNL     1      54.553  -4.459  40.640  1.00  0.00     0.213 C 
ENDBRANCH  10  12
ENDBRANCH   1  10
BRANCH   1  14
HETATM   14  C4  UNL     1      53.813  -5.931  44.214  1.00  0.00     0.159 C 
HETATM   15  C5  UNL     1      55.153  -5.606  44.847  1.00  0.00     0.043 C 
BRANCH  14  16
HETATM   16  O3  UNL     1      53.177  -4.798  43.740  1.00  0.00    -0.392 OA
ATOM     17  H3  UNL     1      52.264  -4.761  43.999  1.00  0.00     0.210 HD
ENDBRANCH  14  16
ENDBRANCH   1  14
BRANCH   5  18
HETATM   18  O5  UNL     1      52.872 -12.448  44.119  1.00  0.00    -0.367 OA
ATOM     19  H5  UNL     1      52.026 -12.878  44.082  1.00  0.00     0.212 HD
ENDBRANCH   5  18
BRANCH   6  20
HETATM   20  O6  UNL     1      50.373 -11.020  43.358  1.00  0.00    -0.367 OA
ATOM     21  H6  UNL     1      49.782 -10.579  42.759  1.00  0.00     0.212 HD
ENDBRANCH   6  20
TORSDOF 6
ENDMDL
MODEL 5
REMARK VINA RESULT: -7.954328545      1.555      1.992
REMARK  6 active torsions:
REMARK  status: ('A' for Active; 'I' for Inactive)
REMARK    1  A    between atoms: O1_2  and  C2_3 
REMARK    2  A    between atoms: C2_3  and  C3_5 
REMARK    3  A    between atoms: C3_5  and  C4_6 
REMARK    4  A    between atoms: C4_6  and  O3_8 
REMARK    5  A    between atoms: C8_13  and  O5_14 
REMARK    6  A    between atoms: C9_16  and  O6_17 
ROOT
HETATM    1  C3  UNL     1      54.283  -7.144  42.889  1.00  0.00     0.179 C 
HETATM    2  C6  UNL     1      52.817  -7.297  42.463  1.00  0.00     0.088 C 
HETATM    3  C7  UNL     1      52.394  -8.431  43.357  1.00  0.00     0.183 C 
HETATM    4  O4  UNL     1      51.412  -9.229  42.853  1.00  0.00    -0.346 OA
HETATM    5  C8  UNL     1      51.592 -10.581  43.079  1.00  0.00     0.312 C 
HETATM    6  C9  UNL     1      52.488 -10.943  44.188  1.00  0.00     0.315 C 
HETATM    7  O7  UNL     1      53.570 -10.130  44.393  1.00  0.00    -0.324 OA
HETATM    8  C10 UNL     1      53.686  -9.258  43.346  1.00  0.00     0.294 C 
HETATM    9  O8  UNL     1      54.670  -8.326  43.443  1.00  0.00    -0.335 OA
ENDROOT
BRANCH   1  10
HETATM   10  C2  UNL     1      54.440  -6.053  43.869  1.00  0.00     0.296 C 
HETATM   11  O2  UNL     1      55.486  -5.845  44.537  1.00  0.00    -0.262 OA
BRANCH  10  12
HETATM   12  O1  UNL     1      53.375  -5.193  44.079  1.00  0.00    -0.324 OA
HETATM   13  C1  UNL     1      53.469  -3.799  44.020  1.00  0.00     0.213 C 
ENDBRANCH  10  12
ENDBRANCH   1  10
BRANCH   1  14
HETATM   14  C4  UNL     1      55.071  -6.903  41.622  1.00  0.00     0.159 C 
HETATM   15  C5  UNL     1      54.772  -5.539  41.028  1.00  0.00     0.043 C 
BRANCH  14  16
HETATM   16  O3  UNL     1      56.428  -7.103  41.801  1.00  0.00    -0.392 OA
ATOM     17  H3  UNL     1      56.951  -6.439  41.368  1.00  0.00     0.210 HD
ENDBRANCH  14  16
ENDBRANCH   1  14
BRANCH   5  18
HETATM   18  O5  UNL     1      50.309 -11.108  43.360  1.00  0.00    -0.367 OA
ATOM     19  H5  UNL     1      49.918 -10.525  44.001  1.00  0.00     0.212 HD
ENDBRANCH   5  18
BRANCH   6  20
HETATM   20  O6  UNL     1      52.989 -12.246  43.984  1.00  0.00    -0.367 OA
ATOM     21  H6  UNL     1      53.852 -12.319  44.374  1.00  0.00     0.212 HD
ENDBRANCH   6  20
TORSDOF 6
ENDMDL
