MODEL 1
REMARK VINA RESULT: -7.657200389      0.000      0.000
REMARK  2 active torsions:
REMARK  status: ('A' for Active; 'I' for Inactive)
REMARK    1  A    between atoms: C11_11  and  N1_12 
REMARK    2  A    between atoms: N1_12  and  C12_14 
ROOT
HETATM    1  C1  UNL     1      -5.477  -1.372  21.891  1.00  0.00     0.018 C 
HETATM    2  C2  UNL     1      -4.966  -1.633  20.497  1.00  0.00    -0.020 C 
HETATM    3  C3  UNL     1      -3.927  -2.719  20.626  1.00  0.00     0.011 C 
HETATM    4  C4  UNL     1      -4.142  -3.913  19.756  1.00  0.00     0.001 C 
HETATM    5  C5  UNL     1      -5.567  -4.371  20.033  1.00  0.00     0.000 C 
HETATM    6  C6  UNL     1      -6.456  -3.376  19.398  1.00  0.00     0.005 C 
HETATM    7  C7  UNL     1      -6.097  -1.940  19.557  1.00  0.00    -0.004 C 
HETATM    8  C8  UNL     1      -6.055  -1.240  18.235  1.00  0.00     0.005 C 
HETATM    9  C9  UNL     1      -4.733  -0.945  17.660  1.00  0.00     0.002 C 
HETATM   10  C10 UNL     1      -3.649  -0.664  18.650  1.00  0.00     0.025 C 
HETATM   11  C11 UNL     1      -4.240  -0.399  20.030  1.00  0.00     0.085 C 
ENDROOT
BRANCH  11  12
HETATM   12  N1  UNL     1      -4.913   0.818  19.999  1.00  0.00    -0.412 N 
ATOM     13  H1  UNL     1      -5.809   0.892  20.480  1.00  0.00     0.154 HD
BRANCH  12  14
HETATM   14  C12 UNL     1      -4.410   1.951  19.332  1.00  0.00     0.077 A 
HETATM   15  C13 UNL     1      -4.812   3.336  19.726  1.00  0.00     0.027 A 
HETATM   16  C14 UNL     1      -3.429   2.915  20.044  1.00  0.00     0.027 A 
ENDBRANCH  12  14
ENDBRANCH  11  12
TORSDOF 2
ENDMDL
MODEL 2
REMARK VINA RESULT: -6.432258357      1.809      2.391
REMARK  2 active torsions:
REMARK  status: ('A' for Active; 'I' for Inactive)
REMARK    1  A    between atoms: C11_11  and  N1_12 
REMARK    2  A    between atoms: N1_12  and  C12_14 
ROOT
HETATM    1  C1  UNL     1      -3.865  -0.256  20.570  1.00  0.00     0.018 C 
HETATM    2  C2  UNL     1      -4.388  -1.568  20.043  1.00  0.00    -0.020 C 
HETATM    3  C3  UNL     1      -3.564  -2.645  20.704  1.00  0.00     0.011 C 
HETATM    4  C4  UNL     1      -4.345  -3.698  21.417  1.00  0.00     0.001 C 
HETATM    5  C5  UNL     1      -5.272  -2.948  22.364  1.00  0.00     0.000 C 
HETATM    6  C6  UNL     1      -6.314  -2.327  21.521  1.00  0.00     0.005 C 
HETATM    7  C7  UNL     1      -5.871  -1.681  20.255  1.00  0.00    -0.004 C 
HETATM    8  C8  UNL     1      -6.661  -2.178  19.085  1.00  0.00     0.005 C 
HETATM    9  C9  UNL     1      -6.012  -3.143  18.183  1.00  0.00     0.002 C 
HETATM   10  C10 UNL     1      -4.533  -2.985  18.030  1.00  0.00     0.025 C 
HETATM   11  C11 UNL     1      -4.080  -1.634  18.571  1.00  0.00     0.085 C 
ENDROOT
BRANCH  11  12
HETATM   12  N1  UNL     1      -4.557  -0.635  17.729  1.00  0.00    -0.412 N 
ATOM     13  H1  UNL     1      -5.562  -0.469  17.689  1.00  0.00     0.154 HD
BRANCH  12  14
HETATM   14  C12 UNL     1      -3.710   0.157  16.929  1.00  0.00     0.077 A 
HETATM   15  C13 UNL     1      -4.243   1.275  16.092  1.00  0.00     0.027 A 
HETATM   16  C14 UNL     1      -3.450   1.641  17.286  1.00  0.00     0.027 A 
ENDBRANCH  12  14
ENDBRANCH  11  12
TORSDOF 2
ENDMDL
MODEL 3
REMARK VINA RESULT: -6.290062725      1.028      2.372
REMARK  2 active torsions:
REMARK  status: ('A' for Active; 'I' for Inactive)
REMARK    1  A    between atoms: C11_11  and  N1_12 
REMARK    2  A    between atoms: N1_12  and  C12_14 
ROOT
HETATM    1  C1  UNL     1      -5.684  -1.333  17.590  1.00  0.00     0.018 C 
HETATM    2  C2  UNL     1      -5.373  -1.535  19.051  1.00  0.00    -0.020 C 
HETATM    3  C3  UNL     1      -6.670  -1.942  19.705  1.00  0.00     0.011 C 
HETATM    4  C4  UNL     1      -6.618  -3.213  20.486  1.00  0.00     0.001 C 
HETATM    5  C5  UNL     1      -6.039  -4.254  19.537  1.00  0.00     0.000 C 
HETATM    6  C6  UNL     1      -4.604  -3.935  19.394  1.00  0.00     0.005 C 
HETATM    7  C7  UNL     1      -4.237  -2.501  19.232  1.00  0.00    -0.004 C 
HETATM    8  C8  UNL     1      -3.184  -2.095  20.215  1.00  0.00     0.005 C 
HETATM    9  C9  UNL     1      -3.606  -1.293  21.374  1.00  0.00     0.002 C 
HETATM   10  C10 UNL     1      -4.752  -0.363  21.131  1.00  0.00     0.025 C 
HETATM   11  C11 UNL     1      -4.999  -0.198  19.636  1.00  0.00     0.085 C 
ENDROOT
BRANCH  11  12
HETATM   12  N1  UNL     1      -3.939   0.514  19.086  1.00  0.00    -0.412 N 
ATOM     13  H1  UNL     1      -3.060   0.027  18.916  1.00  0.00     0.154 HD
BRANCH  12  14
HETATM   14  C12 UNL     1      -4.028   1.879  18.753  1.00  0.00     0.077 A 
HETATM   15  C13 UNL     1      -4.602   2.882  19.703  1.00  0.00     0.027 A 
HETATM   16  C14 UNL     1      -3.141   2.926  19.471  1.00  0.00     0.027 A 
ENDBRANCH  12  14
ENDBRANCH  11  12
TORSDOF 2
ENDMDL
MODEL 4
REMARK VINA RESULT: -6.076166005      1.709      2.950
REMARK  2 active torsions:
REMARK  status: ('A' for Active; 'I' for Inactive)
REMARK    1  A    between atoms: C11_11  and  N1_12 
REMARK    2  A    between atoms: N1_12  and  C12_14 
ROOT
HETATM    1  C1  UNL     1      -5.496  -2.373  17.451  1.00  0.00     0.018 C 
HETATM    2  C2  UNL     1      -5.333  -2.078  18.920  1.00  0.00    -0.020 C 
HETATM    3  C3  UNL     1      -6.698  -2.253  19.538  1.00  0.00     0.011 C 
HETATM    4  C4  UNL     1      -6.759  -3.193  20.695  1.00  0.00     0.001 C 
HETATM    5  C5  UNL     1      -6.121  -4.486  20.207  1.00  0.00     0.000 C 
HETATM    6  C6  UNL     1      -4.669  -4.225  20.112  1.00  0.00     0.005 C 
HETATM    7  C7  UNL     1      -4.248  -2.924  19.523  1.00  0.00    -0.004 C 
HETATM    8  C8  UNL     1      -3.284  -2.209  20.418  1.00  0.00     0.005 C 
HETATM    9  C9  UNL     1      -3.794  -1.071  21.199  1.00  0.00     0.002 C 
HETATM   10  C10 UNL     1      -4.884  -0.280  20.549  1.00  0.00     0.025 C 
HETATM   11  C11 UNL     1      -4.980  -0.621  19.066  1.00  0.00     0.085 C 
ENDROOT
BRANCH  11  12
HETATM   12  N1  UNL     1      -3.852  -0.125  18.422  1.00  0.00    -0.412 N 
ATOM     13  H1  UNL     1      -2.969  -0.622  18.533  1.00  0.00     0.154 HD
BRANCH  12  14
HETATM   14  C12 UNL     1      -3.878   1.033  17.621  1.00  0.00     0.077 A 
HETATM   15  C13 UNL     1      -2.910   1.234  16.500  1.00  0.00     0.027 A 
HETATM   16  C14 UNL     1      -4.318   0.958  16.138  1.00  0.00     0.027 A 
ENDBRANCH  12  14
ENDBRANCH  11  12
TORSDOF 2
ENDMDL
MODEL 5
REMARK VINA RESULT: -5.639176708      0.948      1.299
REMARK  2 active torsions:
REMARK  status: ('A' for Active; 'I' for Inactive)
REMARK    1  A    between atoms: C11_11  and  N1_12 
REMARK    2  A    between atoms: N1_12  and  C12_14 
ROOT
HETATM    1  C1  UNL     1      -3.543  -0.411  21.547  1.00  0.00     0.018 C 
HETATM    2  C2  UNL     1      -4.121  -1.208  20.406  1.00  0.00    -0.020 C 
HETATM    3  C3  UNL     1      -3.132  -2.310  20.118  1.00  0.00     0.011 C 
HETATM    4  C4  UNL     1      -3.696  -3.692  20.131  1.00  0.00     0.001 C 
HETATM    5  C5  UNL     1      -4.418  -3.828  21.464  1.00  0.00     0.000 C 
HETATM    6  C6  UNL     1      -5.643  -3.008  21.362  1.00  0.00     0.005 C 
HETATM    7  C7  UNL     1      -5.516  -1.669  20.723  1.00  0.00    -0.004 C 
HETATM    8  C8  UNL     1      -6.527  -1.488  19.635  1.00  0.00     0.005 C 
HETATM    9  C9  UNL     1      -6.059  -1.593  18.244  1.00  0.00     0.002 C 
HETATM   10  C10 UNL     1      -4.658  -1.132  17.999  1.00  0.00     0.025 C 
HETATM   11  C11 UNL     1      -4.145  -0.325  19.186  1.00  0.00     0.085 C 
ENDROOT
BRANCH  11  12
HETATM   12  N1  UNL     1      -4.833   0.883  19.233  1.00  0.00    -0.412 N 
ATOM     13  H1  UNL     1      -5.813   0.876  19.515  1.00  0.00     0.154 HD
BRANCH  12  14
HETATM   14  C12 UNL     1      -4.235   2.115  18.907  1.00  0.00     0.077 A 
HETATM   15  C13 UNL     1      -4.649   3.389  19.571  1.00  0.00     0.027 A 
HETATM   16  C14 UNL     1      -3.321   2.842  19.924  1.00  0.00     0.027 A 
ENDBRANCH  12  14
ENDBRANCH  11  12
TORSDOF 2
ENDMDL
