MODEL 1
REMARK VINA RESULT: -8.323675305      0.000      0.000
REMARK  3 active torsions:
REMARK  status: ('A' for Active; 'I' for Inactive)
REMARK    1  A    between atoms: C4_4  and  C5_5 
REMARK    2  A    between atoms: C5_5  and  O1_6 
REMARK    3  A    between atoms: C5_5  and  C6_8 
ROOT
HETATM    1  C6  UNL     1      -4.804   0.359  19.471  1.00  0.00     0.019 C 
HETATM    2  C7  UNL     1      -4.378  -0.497  18.277  1.00  0.00     0.012 C 
HETATM    3  C8  UNL     1      -5.312  -1.647  18.055  1.00  0.00    -0.013 C 
HETATM    4  C9  UNL     1      -4.500  -2.926  18.307  1.00  0.00     0.009 C 
HETATM    5  C10 UNL     1      -4.270  -2.832  19.798  1.00  0.00    -0.014 C 
HETATM    6  C11 UNL     1      -4.450  -4.252  20.352  1.00  0.00     0.010 C 
HETATM    7  C12 UNL     1      -5.298  -1.909  20.363  1.00  0.00    -0.010 C 
HETATM    8  C13 UNL     1      -6.292  -1.778  19.232  1.00  0.00     0.009 C 
HETATM    9  C14 UNL     1      -4.754  -0.529  20.675  1.00  0.00     0.012 C 
ENDROOT
BRANCH   1  10
HETATM   10  C5  UNL     1      -3.871   1.526  19.530  1.00  0.00     0.145 C 
BRANCH  10  11
HETATM   11  C4  UNL     1      -4.578   2.806  19.841  1.00  0.00     0.007 C 
HETATM   12  C2  UNL     1      -3.956   3.975  19.761  1.00  0.00    -0.089 C 
HETATM   13  C1  UNL     1      -2.534   4.055  19.358  1.00  0.00     0.042 C 
HETATM   14  C3  UNL     1      -4.692   5.229  20.078  1.00  0.00     0.042 C 
ENDBRANCH  10  11
BRANCH  10  15
HETATM   15  O1  UNL     1      -3.013   1.295  20.632  1.00  0.00    -0.391 OA
ATOM     16  H1  UNL     1      -2.484   0.546  20.385  1.00  0.00     0.210 HD
ENDBRANCH  10  15
ENDBRANCH   1  10
TORSDOF 3
ENDMDL
MODEL 2
REMARK VINA RESULT: -8.026301406      1.594      2.512
REMARK  3 active torsions:
REMARK  status: ('A' for Active; 'I' for Inactive)
REMARK    1  A    between atoms: C4_4  and  C5_5 
REMARK    2  A    between atoms: C5_5  and  O1_6 
REMARK    3  A    between atoms: C5_5  and  C6_8 
ROOT
HETATM    1  C6  UNL     1      -4.299  -0.221  18.348  1.00  0.00     0.019 C 
HETATM    2  C7  UNL     1      -4.091  -0.180  19.862  1.00  0.00     0.012 C 
HETATM    3  C8  UNL     1      -3.880  -1.549  20.433  1.00  0.00    -0.013 C 
HETATM    4  C9  UNL     1      -5.074  -1.828  21.356  1.00  0.00     0.009 C 
HETATM    5  C10 UNL     1      -6.197  -1.943  20.350  1.00  0.00    -0.014 C 
HETATM    6  C11 UNL     1      -7.078  -3.109  20.818  1.00  0.00     0.010 C 
HETATM    7  C12 UNL     1      -5.589  -2.238  19.019  1.00  0.00    -0.010 C 
HETATM    8  C13 UNL     1      -4.172  -2.624  19.373  1.00  0.00     0.009 C 
HETATM    9  C14 UNL     1      -5.535  -1.030  18.106  1.00  0.00     0.012 C 
ENDROOT
BRANCH   1  10
HETATM   10  C5  UNL     1      -4.389   1.195  17.878  1.00  0.00     0.145 C 
BRANCH  10  11
HETATM   11  C4  UNL     1      -3.177   1.993  18.234  1.00  0.00     0.007 C 
HETATM   12  C2  UNL     1      -3.251   3.033  19.055  1.00  0.00    -0.089 C 
HETATM   13  C1  UNL     1      -4.543   3.441  19.651  1.00  0.00     0.042 C 
HETATM   14  C3  UNL     1      -2.022   3.803  19.388  1.00  0.00     0.042 C 
ENDBRANCH  10  11
BRANCH  10  15
HETATM   15  O1  UNL     1      -4.401   1.145  16.463  1.00  0.00    -0.391 OA
ATOM     16  H1  UNL     1      -3.801   1.827  16.183  1.00  0.00     0.210 HD
ENDBRANCH  10  15
ENDBRANCH   1  10
TORSDOF 3
ENDMDL
MODEL 3
REMARK VINA RESULT: -7.565415050      1.334      2.255
REMARK  3 active torsions:
REMARK  status: ('A' for Active; 'I' for Inactive)
REMARK    1  A    between atoms: C4_4  and  C5_5 
REMARK    2  A    between atoms: C5_5  and  O1_6 
REMARK    3  A    between atoms: C5_5  and  C6_8 
ROOT
HETATM    1  C6  UNL     1      -4.070   0.611  19.639  1.00  0.00     0.019 C 
HETATM    2  C7  UNL     1      -5.090   0.049  20.630  1.00  0.00     0.012 C 
HETATM    3  C8  UNL     1      -4.759  -1.357  21.032  1.00  0.00    -0.013 C 
HETATM    4  C9  UNL     1      -5.898  -2.242  20.507  1.00  0.00     0.009 C 
HETATM    5  C10 UNL     1      -5.671  -2.151  19.016  1.00  0.00    -0.014 C 
HETATM    6  C11 UNL     1      -5.905  -3.560  18.456  1.00  0.00     0.010 C 
HETATM    7  C12 UNL     1      -4.259  -1.720  18.793  1.00  0.00    -0.010 C 
HETATM    8  C13 UNL     1      -3.629  -1.915  20.153  1.00  0.00     0.009 C 
HETATM    9  C14 UNL     1      -4.133  -0.257  18.421  1.00  0.00     0.012 C 
ENDROOT
BRANCH   1  10
HETATM   10  C5  UNL     1      -4.436   2.040  19.395  1.00  0.00     0.145 C 
BRANCH  10  11
HETATM   11  C4  UNL     1      -3.239   2.933  19.334  1.00  0.00     0.007 C 
HETATM   12  C2  UNL     1      -3.319   4.217  19.656  1.00  0.00    -0.089 C 
HETATM   13  C1  UNL     1      -4.602   4.815  20.091  1.00  0.00     0.042 C 
HETATM   14  C3  UNL     1      -2.106   5.076  19.583  1.00  0.00     0.042 C 
ENDBRANCH  10  11
BRANCH  10  15
HETATM   15  O1  UNL     1      -5.006   2.089  18.100  1.00  0.00    -0.391 OA
ATOM     16  H1  UNL     1      -5.530   2.882  18.087  1.00  0.00     0.210 HD
ENDBRANCH  10  15
ENDBRANCH   1  10
TORSDOF 3
ENDMDL
MODEL 4
REMARK VINA RESULT: -7.533144123      1.807      3.024
REMARK  3 active torsions:
REMARK  status: ('A' for Active; 'I' for Inactive)
REMARK    1  A    between atoms: C4_4  and  C5_5 
REMARK    2  A    between atoms: C5_5  and  O1_6 
REMARK    3  A    between atoms: C5_5  and  C6_8 
ROOT
HETATM    1  C6  UNL     1      -4.224  -1.014  20.380  1.00  0.00     0.019 C 
HETATM    2  C7  UNL     1      -5.525  -1.031  21.183  1.00  0.00     0.012 C 
HETATM    3  C8  UNL     1      -5.700  -2.318  21.931  1.00  0.00    -0.013 C 
HETATM    4  C9  UNL     1      -6.935  -3.007  21.333  1.00  0.00     0.009 C 
HETATM    5  C10 UNL     1      -6.426  -3.369  19.957  1.00  0.00    -0.014 C 
HETATM    6  C11 UNL     1      -6.960  -4.776  19.655  1.00  0.00     0.010 C 
HETATM    7  C12 UNL     1      -4.934  -3.368  20.006  1.00  0.00    -0.010 C 
HETATM    8  C13 UNL     1      -4.645  -3.345  21.489  1.00  0.00     0.009 C 
HETATM    9  C14 UNL     1      -4.318  -2.129  19.386  1.00  0.00     0.012 C 
ENDROOT
BRANCH   1  10
HETATM   10  C5  UNL     1      -4.103   0.345  19.768  1.00  0.00     0.145 C 
BRANCH  10  11
HETATM   11  C4  UNL     1      -4.289   0.322  18.285  1.00  0.00     0.007 C 
HETATM   12  C2  UNL     1      -3.832   1.302  17.517  1.00  0.00    -0.089 C 
HETATM   13  C1  UNL     1      -3.118   2.459  18.103  1.00  0.00     0.042 C 
HETATM   14  C3  UNL     1      -4.035   1.245  16.044  1.00  0.00     0.042 C 
ENDBRANCH  10  11
BRANCH  10  15
HETATM   15  O1  UNL     1      -5.188   1.105  20.269  1.00  0.00    -0.391 OA
ATOM     16  H1  UNL     1      -5.732   0.484  20.739  1.00  0.00     0.210 HD
ENDBRANCH  10  15
ENDBRANCH   1  10
TORSDOF 3
ENDMDL
MODEL 5
REMARK VINA RESULT: -7.440265185      1.954      3.224
REMARK  3 active torsions:
REMARK  status: ('A' for Active; 'I' for Inactive)
REMARK    1  A    between atoms: C4_4  and  C5_5 
REMARK    2  A    between atoms: C5_5  and  O1_6 
REMARK    3  A    between atoms: C5_5  and  C6_8 
ROOT
HETATM    1  C6  UNL     1      -4.568  -1.461  19.626  1.00  0.00     0.019 C 
HETATM    2  C7  UNL     1      -4.437  -1.619  21.141  1.00  0.00     0.012 C 
HETATM    3  C8  UNL     1      -4.719  -3.023  21.581  1.00  0.00    -0.013 C 
HETATM    4  C9  UNL     1      -5.984  -2.965  22.448  1.00  0.00     0.009 C 
HETATM    5  C10 UNL     1      -7.028  -2.614  21.413  1.00  0.00    -0.014 C 
HETATM    6  C11 UNL     1      -8.267  -3.455  21.747  1.00  0.00     0.010 C 
HETATM    7  C12 UNL     1      -6.484  -2.982  20.072  1.00  0.00    -0.010 C 
HETATM    8  C13 UNL     1      -5.294  -3.846  20.417  1.00  0.00     0.009 C 
HETATM    9  C14 UNL     1      -5.988  -1.788  19.281  1.00  0.00     0.012 C 
ENDROOT
BRANCH   1  10
HETATM   10  C5  UNL     1      -4.162  -0.061  19.293  1.00  0.00     0.145 C 
BRANCH  10  11
HETATM   11  C4  UNL     1      -4.299   0.241  17.836  1.00  0.00     0.007 C 
HETATM   12  C2  UNL     1      -3.807   1.357  17.313  1.00  0.00    -0.089 C 
HETATM   13  C1  UNL     1      -3.101   2.346  18.158  1.00  0.00     0.042 C 
HETATM   14  C3  UNL     1      -3.962   1.624  15.857  1.00  0.00     0.042 C 
ENDBRANCH  10  11
BRANCH  10  15
HETATM   15  O1  UNL     1      -5.093   0.788  19.940  1.00  0.00    -0.391 OA
ATOM     16  H1  UNL     1      -5.769   0.210  20.273  1.00  0.00     0.210 HD
ENDBRANCH  10  15
ENDBRANCH   1  10
TORSDOF 3
ENDMDL
