MODEL 1
REMARK VINA RESULT: -7.175676453      0.000      0.000
REMARK  3 active torsions:
REMARK  status: ('A' for Active; 'I' for Inactive)
REMARK    1  A    between atoms: C2_2  and  C3_3 
REMARK    2  A    between atoms: C5_5  and  C6_6 
REMARK    3  A    between atoms: C6_6  and  O1_9 
ROOT
HETATM    1  C3  UNL     1      -5.499  -1.977  20.626  1.00  0.00    -0.033 C 
HETATM    2  C4  UNL     1      -5.250  -0.500  20.691  1.00  0.00     0.018 C 
HETATM    3  C5  UNL     1      -4.934   0.093  19.340  1.00  0.00     0.020 C 
HETATM    4  C9  UNL     1      -4.247  -0.911  18.443  1.00  0.00     0.013 C 
HETATM    5  C10 UNL     1      -4.754  -2.302  18.718  1.00  0.00    -0.005 C 
HETATM    6  C11 UNL     1      -6.173  -2.260  19.301  1.00  0.00     0.015 C 
HETATM    7  C12 UNL     1      -4.345  -2.779  20.121  1.00  0.00    -0.036 C 
HETATM    8  C13 UNL     1      -2.974  -2.443  20.555  1.00  0.00     0.016 C 
HETATM    9  C14 UNL     1      -4.585  -4.269  20.184  1.00  0.00     0.016 C 
ENDROOT
BRANCH   3  10
HETATM   10  C6  UNL     1      -4.204   1.393  19.383  1.00  0.00     0.054 C 
HETATM   11  C7  UNL     1      -3.516   1.696  18.044  1.00  0.00     0.045 C 
HETATM   12  C8  UNL     1      -5.015   2.595  19.721  1.00  0.00     0.045 C 
BRANCH  10  13
HETATM   13  O1  UNL     1      -3.153   1.302  20.314  1.00  0.00    -0.390 OA
ATOM     14  H1  UNL     1      -2.338   1.146  19.851  1.00  0.00     0.210 HD
ENDBRANCH  10  13
ENDBRANCH   3  10
BRANCH   1  15
HETATM   15  C2  UNL     1      -6.222  -2.487  21.833  1.00  0.00     0.005 C 
HETATM   16  C1  UNL     1      -7.600  -2.988  21.532  1.00  0.00     0.006 C 
ENDBRANCH   1  15
TORSDOF 3
ENDMDL
MODEL 2
REMARK VINA RESULT: -6.719327601      1.111      1.419
REMARK  3 active torsions:
REMARK  status: ('A' for Active; 'I' for Inactive)
REMARK    1  A    between atoms: C2_2  and  C3_3 
REMARK    2  A    between atoms: C5_5  and  C6_6 
REMARK    3  A    between atoms: C6_6  and  O1_9 
ROOT
HETATM    1  C3  UNL     1      -5.453  -2.002  20.288  1.00  0.00    -0.033 C 
HETATM    2  C4  UNL     1      -5.302  -0.548  19.958  1.00  0.00     0.018 C 
HETATM    3  C5  UNL     1      -4.965  -0.315  18.505  1.00  0.00     0.020 C 
HETATM    4  C9  UNL     1      -4.177  -1.470  17.930  1.00  0.00     0.013 C 
HETATM    5  C10 UNL     1      -4.606  -2.770  18.557  1.00  0.00    -0.005 C 
HETATM    6  C11 UNL     1      -6.049  -2.677  19.071  1.00  0.00     0.015 C 
HETATM    7  C12 UNL     1      -4.229  -2.823  20.046  1.00  0.00    -0.036 C 
HETATM    8  C13 UNL     1      -2.903  -2.284  20.408  1.00  0.00     0.016 C 
HETATM    9  C14 UNL     1      -4.376  -4.255  20.503  1.00  0.00     0.016 C 
ENDROOT
BRANCH   3  10
HETATM   10  C6  UNL     1      -4.323   0.998  18.214  1.00  0.00     0.054 C 
HETATM   11  C7  UNL     1      -3.733   1.630  19.482  1.00  0.00     0.045 C 
HETATM   12  C8  UNL     1      -3.230   0.990  17.201  1.00  0.00     0.045 C 
BRANCH  10  13
HETATM   13  O1  UNL     1      -5.307   1.908  17.783  1.00  0.00    -0.390 OA
ATOM     14  H1  UNL     1      -4.986   2.794  17.903  1.00  0.00     0.210 HD
ENDBRANCH  10  13
ENDBRANCH   3  10
BRANCH   1  15
HETATM   15  C2  UNL     1      -6.194  -2.222  21.568  1.00  0.00     0.005 C 
HETATM   16  C1  UNL     1      -7.481  -2.967  21.390  1.00  0.00     0.006 C 
ENDBRANCH   1  15
TORSDOF 3
ENDMDL
MODEL 3
REMARK VINA RESULT: -6.309175639      1.014      1.077
REMARK  3 active torsions:
REMARK  status: ('A' for Active; 'I' for Inactive)
REMARK    1  A    between atoms: C2_2  and  C3_3 
REMARK    2  A    between atoms: C5_5  and  C6_6 
REMARK    3  A    between atoms: C6_6  and  O1_9 
ROOT
HETATM    1  C3  UNL     1      -5.500  -2.129  20.377  1.00  0.00    -0.033 C 
HETATM    2  C4  UNL     1      -5.309  -0.671  20.087  1.00  0.00     0.018 C 
HETATM    3  C5  UNL     1      -4.997  -0.406  18.634  1.00  0.00     0.020 C 
HETATM    4  C9  UNL     1      -4.260  -1.567  18.007  1.00  0.00     0.013 C 
HETATM    5  C10 UNL     1      -4.717  -2.872  18.605  1.00  0.00    -0.005 C 
HETATM    6  C11 UNL     1      -6.144  -2.748  19.156  1.00  0.00     0.015 C 
HETATM    7  C12 UNL     1      -4.309  -2.982  20.083  1.00  0.00    -0.036 C 
HETATM    8  C13 UNL     1      -2.958  -2.496  20.430  1.00  0.00     0.016 C 
HETATM    9  C14 UNL     1      -4.492  -4.421  20.501  1.00  0.00     0.016 C 
ENDROOT
BRANCH   3  10
HETATM   10  C6  UNL     1      -4.319   0.894  18.366  1.00  0.00     0.054 C 
HETATM   11  C7  UNL     1      -5.215   1.839  17.553  1.00  0.00     0.045 C 
HETATM   12  C8  UNL     1      -3.870   1.663  19.560  1.00  0.00     0.045 C 
BRANCH  10  13
HETATM   13  O1  UNL     1      -3.196   0.670  17.547  1.00  0.00    -0.390 OA
ATOM     14  H1  UNL     1      -2.661   1.454  17.529  1.00  0.00     0.210 HD
ENDBRANCH  10  13
ENDBRANCH   3  10
BRANCH   1  15
HETATM   15  C2  UNL     1      -6.219  -2.364  21.668  1.00  0.00     0.005 C 
HETATM   16  C1  UNL     1      -7.578  -2.967  21.490  1.00  0.00     0.006 C 
ENDBRANCH   1  15
TORSDOF 3
ENDMDL
MODEL 4
REMARK VINA RESULT: -5.371290661      1.510      2.470
REMARK  3 active torsions:
REMARK  status: ('A' for Active; 'I' for Inactive)
REMARK    1  A    between atoms: C2_2  and  C3_3 
REMARK    2  A    between atoms: C5_5  and  C6_6 
REMARK    3  A    between atoms: C6_6  and  O1_9 
ROOT
HETATM    1  C3  UNL     1      -5.633  -2.442  19.752  1.00  0.00    -0.033 C 
HETATM    2  C4  UNL     1      -5.602  -1.434  18.643  1.00  0.00     0.018 C 
HETATM    3  C5  UNL     1      -4.246  -0.790  18.483  1.00  0.00     0.020 C 
HETATM    4  C9  UNL     1      -3.509  -0.722  19.801  1.00  0.00     0.013 C 
HETATM    5  C10 UNL     1      -3.843  -1.914  20.658  1.00  0.00    -0.005 C 
HETATM    6  C11 UNL     1      -4.273  -3.105  19.791  1.00  0.00     0.015 C 
HETATM    7  C12 UNL     1      -5.315  -1.889  21.102  1.00  0.00    -0.036 C 
HETATM    8  C13 UNL     1      -5.857  -0.574  21.501  1.00  0.00     0.016 C 
HETATM    9  C14 UNL     1      -5.475  -2.901  22.211  1.00  0.00     0.016 C 
ENDROOT
BRANCH   3  10
HETATM   10  C6  UNL     1      -4.257   0.526  17.782  1.00  0.00     0.054 C 
HETATM   11  C7  UNL     1      -3.960   1.681  18.748  1.00  0.00     0.045 C 
HETATM   12  C8  UNL     1      -3.309   0.676  16.643  1.00  0.00     0.045 C 
BRANCH  10  13
HETATM   13  O1  UNL     1      -5.555   0.783  17.302  1.00  0.00    -0.390 OA
ATOM     14  H1  UNL     1      -5.931   1.505  17.792  1.00  0.00     0.210 HD
ENDBRANCH  10  13
ENDBRANCH   3  10
BRANCH   1  15
HETATM   15  C2  UNL     1      -6.797  -3.375  19.642  1.00  0.00     0.005 C 
HETATM   16  C1  UNL     1      -6.404  -4.819  19.656  1.00  0.00     0.006 C 
ENDBRANCH   1  15
TORSDOF 3
ENDMDL
MODEL 5
REMARK VINA RESULT: -5.285052076      1.550      2.361
REMARK  3 active torsions:
REMARK  status: ('A' for Active; 'I' for Inactive)
REMARK    1  A    between atoms: C2_2  and  C3_3 
REMARK    2  A    between atoms: C5_5  and  C6_6 
REMARK    3  A    between atoms: C6_6  and  O1_9 
ROOT
HETATM    1  C3  UNL     1      -4.433  -2.266  19.973  1.00  0.00    -0.033 C 
HETATM    2  C4  UNL     1      -3.818  -1.024  19.403  1.00  0.00     0.018 C 
HETATM    3  C5  UNL     1      -4.844  -0.090  18.809  1.00  0.00     0.020 C 
HETATM    4  C9  UNL     1      -6.035  -0.849  18.271  1.00  0.00     0.013 C 
HETATM    5  C10 UNL     1      -6.309  -2.071  19.110  1.00  0.00    -0.005 C 
HETATM    6  C11 UNL     1      -5.782  -1.880  20.539  1.00  0.00     0.015 C 
HETATM    7  C12 UNL     1      -5.176  -3.101  18.982  1.00  0.00    -0.036 C 
HETATM    8  C13 UNL     1      -4.619  -3.301  17.629  1.00  0.00     0.016 C 
HETATM    9  C14 UNL     1      -5.676  -4.404  19.560  1.00  0.00     0.016 C 
ENDROOT
BRANCH   3  10
HETATM   10  C6  UNL     1      -4.305   0.879  17.813  1.00  0.00     0.054 C 
HETATM   11  C7  UNL     1      -3.333   1.873  18.463  1.00  0.00     0.045 C 
HETATM   12  C8  UNL     1      -3.592   0.297  16.643  1.00  0.00     0.045 C 
BRANCH  10  13
HETATM   13  O1  UNL     1      -5.360   1.675  17.326  1.00  0.00    -0.390 OA
ATOM     14  H1  UNL     1      -6.042   1.727  17.985  1.00  0.00     0.210 HD
ENDBRANCH  10  13
ENDBRANCH   3  10
BRANCH   1  15
HETATM   15  C2  UNL     1      -3.518  -2.970  20.925  1.00  0.00     0.005 C 
HETATM   16  C1  UNL     1      -4.197  -3.412  22.184  1.00  0.00     0.006 C 
ENDBRANCH   1  15
TORSDOF 3
ENDMDL
