MODEL 1
REMARK VINA RESULT: -8.069481074      0.000      0.000
REMARK  1 active torsions:
REMARK  status: ('A' for Active; 'I' for Inactive)
REMARK    1  A    between atoms: C11_11  and  C12_12 
ROOT
HETATM    1  C1  UNL     1      -4.301  -4.468  20.402  1.00  0.00     0.011 C 
HETATM    2  C2  UNL     1      -4.177  -2.995  20.268  1.00  0.00    -0.006 C 
HETATM    3  C3  UNL     1      -4.659  -2.234  21.484  1.00  0.00    -0.009 C 
HETATM    4  C4  UNL     1      -6.056  -2.690  21.747  1.00  0.00     0.005 C 
HETATM    5  C5  UNL     1      -7.003  -2.523  20.616  1.00  0.00     0.001 C 
HETATM    6  C6  UNL     1      -6.434  -2.532  19.261  1.00  0.00     0.010 C 
HETATM    7  C7  UNL     1      -4.975  -2.458  19.107  1.00  0.00    -0.036 C 
HETATM    8  C8  UNL     1      -4.548  -3.278  17.882  1.00  0.00     0.016 C 
HETATM    9  C9  UNL     1      -4.433  -1.061  18.868  1.00  0.00     0.001 C 
HETATM   10  C10 UNL     1      -4.796  -0.515  17.536  1.00  0.00     0.011 C 
HETATM   11  C11 UNL     1      -4.868  -0.199  20.019  1.00  0.00     0.055 C 
HETATM   12  C13 UNL     1      -4.486  -0.777  21.328  1.00  0.00     0.017 C 
ENDROOT
BRANCH  11  13
HETATM   13  C12 UNL     1      -4.261   1.167  19.927  1.00  0.00     0.091 C 
HETATM   14  N1  UNL     1      -3.087   1.425  20.402  1.00  0.00    -0.391 N 
ATOM     15  H12 UNL     1      -2.595   0.649  20.844  1.00  0.00     0.157 HD
ATOM     16  H11 UNL     1      -2.674   2.356  20.339  1.00  0.00     0.157 HD
HETATM   17  N2  UNL     1      -4.948   2.250  19.309  1.00  0.00    -0.088 NA
ENDBRANCH  11  13
TORSDOF 1
ENDMDL
MODEL 2
REMARK VINA RESULT: -7.154240632      1.052      2.798
REMARK  1 active torsions:
REMARK  status: ('A' for Active; 'I' for Inactive)
REMARK    1  A    between atoms: C11_11  and  C12_12 
ROOT
HETATM    1  C1  UNL     1      -7.088  -3.625  20.320  1.00  0.00     0.011 C 
HETATM    2  C2  UNL     1      -6.396  -2.350  20.005  1.00  0.00    -0.006 C 
HETATM    3  C3  UNL     1      -6.335  -2.045  18.524  1.00  0.00    -0.009 C 
HETATM    4  C4  UNL     1      -5.714  -3.234  17.868  1.00  0.00     0.005 C 
HETATM    5  C5  UNL     1      -4.374  -3.615  18.380  1.00  0.00     0.001 C 
HETATM    6  C6  UNL     1      -4.061  -3.253  19.770  1.00  0.00     0.010 C 
HETATM    7  C7  UNL     1      -4.967  -2.342  20.483  1.00  0.00    -0.036 C 
HETATM    8  C8  UNL     1      -5.013  -2.727  21.969  1.00  0.00     0.016 C 
HETATM    9  C9  UNL     1      -4.549  -0.884  20.455  1.00  0.00     0.001 C 
HETATM   10  C10 UNL     1      -3.329  -0.611  21.257  1.00  0.00     0.011 C 
HETATM   11  C11 UNL     1      -4.438  -0.468  19.016  1.00  0.00     0.055 C 
HETATM   12  C13 UNL     1      -5.674  -0.755  18.252  1.00  0.00     0.017 C 
ENDROOT
BRANCH  11  13
HETATM   13  C12 UNL     1      -4.158   0.999  18.901  1.00  0.00     0.091 C 
HETATM   14  N1  UNL     1      -3.334   1.470  18.023  1.00  0.00    -0.391 N 
ATOM     15  H12 UNL     1      -2.883   0.790  17.412  1.00  0.00     0.157 HD
ATOM     16  H11 UNL     1      -3.144   2.469  17.945  1.00  0.00     0.157 HD
HETATM   17  N2  UNL     1      -4.789   1.949  19.754  1.00  0.00    -0.088 NA
ENDBRANCH  11  13
TORSDOF 1
ENDMDL
MODEL 3
REMARK VINA RESULT: -6.852052621      1.491      3.107
REMARK  1 active torsions:
REMARK  status: ('A' for Active; 'I' for Inactive)
REMARK    1  A    between atoms: C11_11  and  C12_12 
ROOT
HETATM    1  C1  UNL     1      -7.130  -3.133  21.113  1.00  0.00     0.011 C 
HETATM    2  C2  UNL     1      -6.466  -2.233  20.137  1.00  0.00    -0.006 C 
HETATM    3  C3  UNL     1      -6.066  -2.924  18.851  1.00  0.00    -0.009 C 
HETATM    4  C4  UNL     1      -5.228  -4.096  19.241  1.00  0.00     0.005 C 
HETATM    5  C5  UNL     1      -4.031  -3.779  20.060  1.00  0.00     0.001 C 
HETATM    6  C6  UNL     1      -4.091  -2.568  20.890  1.00  0.00     0.010 C 
HETATM    7  C7  UNL     1      -5.200  -1.627  20.687  1.00  0.00    -0.036 C 
HETATM    8  C8  UNL     1      -5.582  -0.989  22.030  1.00  0.00     0.016 C 
HETATM    9  C9  UNL     1      -4.884  -0.466  19.763  1.00  0.00     0.001 C 
HETATM   10  C10 UNL     1      -3.917   0.498  20.347  1.00  0.00     0.011 C 
HETATM   11  C11 UNL     1      -4.452  -1.037  18.442  1.00  0.00     0.055 C 
HETATM   12  C13 UNL     1      -5.444  -1.991  17.893  1.00  0.00     0.017 C 
ENDROOT
BRANCH  11  13
HETATM   13  C12 UNL     1      -4.250   0.047  17.428  1.00  0.00     0.091 C 
HETATM   14  N1  UNL     1      -4.860   1.183  17.513  1.00  0.00    -0.391 N 
ATOM     15  H12 UNL     1      -5.488   1.304  18.307  1.00  0.00     0.157 HD
ATOM     16  H11 UNL     1      -4.722   1.921  16.822  1.00  0.00     0.157 HD
HETATM   17  N2  UNL     1      -3.372  -0.122  16.320  1.00  0.00    -0.088 NA
ENDBRANCH  11  13
TORSDOF 1
ENDMDL
MODEL 4
REMARK VINA RESULT: -6.754753879      0.891      1.005
REMARK  1 active torsions:
REMARK  status: ('A' for Active; 'I' for Inactive)
REMARK    1  A    between atoms: C11_11  and  C12_12 
ROOT
HETATM    1  C1  UNL     1      -4.362  -4.655  20.254  1.00  0.00     0.011 C 
HETATM    2  C2  UNL     1      -4.271  -3.200  19.976  1.00  0.00    -0.006 C 
HETATM    3  C3  UNL     1      -4.124  -2.354  21.223  1.00  0.00    -0.009 C 
HETATM    4  C4  UNL     1      -5.261  -2.716  22.120  1.00  0.00     0.005 C 
HETATM    5  C5  UNL     1      -6.614  -2.551  21.531  1.00  0.00     0.001 C 
HETATM    6  C6  UNL     1      -6.724  -2.657  20.069  1.00  0.00     0.010 C 
HETATM    7  C7  UNL     1      -5.493  -2.675  19.268  1.00  0.00    -0.036 C 
HETATM    8  C8  UNL     1      -5.694  -3.577  18.042  1.00  0.00     0.016 C 
HETATM    9  C9  UNL     1      -5.079  -1.325  18.714  1.00  0.00     0.001 C 
HETATM   10  C10 UNL     1      -5.992  -0.824  17.655  1.00  0.00     0.011 C 
HETATM   11  C11 UNL     1      -4.918  -0.384  19.874  1.00  0.00     0.055 C 
HETATM   12  C13 UNL     1      -3.999  -0.919  20.906  1.00  0.00     0.017 C 
ENDROOT
BRANCH  11  13
HETATM   13  C12 UNL     1      -4.379   0.939  19.423  1.00  0.00     0.091 C 
HETATM   14  N1  UNL     1      -4.655   2.036  20.047  1.00  0.00    -0.391 N 
ATOM     15  H12 UNL     1      -5.259   1.955  20.865  1.00  0.00     0.157 HD
ATOM     16  H11 UNL     1      -4.287   2.937  19.740  1.00  0.00     0.157 HD
HETATM   17  N2  UNL     1      -3.535   1.051  18.282  1.00  0.00    -0.088 NA
ENDBRANCH  11  13
TORSDOF 1
ENDMDL
MODEL 5
REMARK VINA RESULT: -6.602287057      1.116      2.804
REMARK  1 active torsions:
REMARK  status: ('A' for Active; 'I' for Inactive)
REMARK    1  A    between atoms: C11_11  and  C12_12 
ROOT
HETATM    1  C1  UNL     1      -6.945  -4.445  19.482  1.00  0.00     0.011 C 
HETATM    2  C2  UNL     1      -6.321  -3.100  19.429  1.00  0.00    -0.006 C 
HETATM    3  C3  UNL     1      -5.080  -3.042  18.564  1.00  0.00    -0.009 C 
HETATM    4  C4  UNL     1      -4.159  -4.104  19.068  1.00  0.00     0.005 C 
HETATM    5  C5  UNL     1      -3.800  -4.006  20.505  1.00  0.00     0.001 C 
HETATM    6  C6  UNL     1      -4.767  -3.344  21.392  1.00  0.00     0.010 C 
HETATM    7  C7  UNL     1      -5.892  -2.615  20.791  1.00  0.00    -0.036 C 
HETATM    8  C8  UNL     1      -7.126  -2.743  21.696  1.00  0.00     0.016 C 
HETATM    9  C9  UNL     1      -5.664  -1.124  20.625  1.00  0.00     0.001 C 
HETATM   10  C10 UNL     1      -5.627  -0.393  21.917  1.00  0.00     0.011 C 
HETATM   11  C11 UNL     1      -4.432  -0.940  19.786  1.00  0.00     0.055 C 
HETATM   12  C13 UNL     1      -4.509  -1.684  18.507  1.00  0.00     0.017 C 
ENDROOT
BRANCH  11  13
HETATM   13  C12 UNL     1      -4.212   0.506  19.463  1.00  0.00     0.091 C 
HETATM   14  N1  UNL     1      -3.414   1.246  20.158  1.00  0.00    -0.391 N 
ATOM     15  H12 UNL     1      -2.940   0.795  20.941  1.00  0.00     0.157 HD
ATOM     16  H11 UNL     1      -3.264   2.231  19.938  1.00  0.00     0.157 HD
HETATM   17  N2  UNL     1      -4.873   1.136  18.370  1.00  0.00    -0.088 NA
ENDBRANCH  11  13
TORSDOF 1
ENDMDL
