MODEL 1
REMARK VINA RESULT: -5.922699895      0.000      0.000
REMARK  4 active torsions:
REMARK  status: ('A' for Active; 'I' for Inactive)
REMARK    1  A    between atoms: C2_2  and  C3_3 
REMARK    2  A    between atoms: C3_3  and  C4_4 
REMARK    3  A    between atoms: C5_5  and  N1_6 
REMARK    4  A    between atoms: C7_11  and  C8_12 
ROOT
HETATM    1  C4  UNL     1      -4.934  -0.348  19.611  1.00  0.00     0.028 C 
HETATM    2  C5  UNL     1      -4.721  -0.867  18.178  1.00  0.00     0.189 C 
HETATM    3  C6  UNL     1      -4.428  -2.373  18.319  1.00  0.00     0.043 C 
HETATM    4  C7  UNL     1      -5.071  -2.646  19.626  1.00  0.00    -0.031 C 
HETATM    5  C10 UNL     1      -4.559  -3.787  20.431  1.00  0.00     0.010 C 
HETATM    6  C11 UNL     1      -4.471  -3.240  21.838  1.00  0.00     0.002 C 
HETATM    7  C12 UNL     1      -4.961  -1.780  21.740  1.00  0.00     0.010 C 
HETATM    8  C13 UNL     1      -4.466  -1.462  20.399  1.00  0.00    -0.030 C 
HETATM    9  C14 UNL     1      -2.961  -1.582  20.393  1.00  0.00     0.016 C 
ENDROOT
BRANCH   2  10
HETATM   10  N1  UNL     1      -3.681  -0.172  17.495  1.00  0.00    -0.075 N 
ATOM     11  H13 UNL     1      -3.943   0.797  17.316  1.00  0.00     0.274 HD
ATOM     12  H12 UNL     1      -2.881  -0.015  18.108  1.00  0.00     0.274 HD
ATOM     13  H11 UNL     1      -3.397  -0.641  16.635  1.00  0.00     0.274 HD
ENDBRANCH   2  10
BRANCH   1  14
HETATM   14  C3  UNL     1      -4.192   0.926  19.839  1.00  0.00     0.033 C 
BRANCH  14  15
HETATM   15  C2  UNL     1      -5.045   2.127  19.635  1.00  0.00    -0.036 C 
HETATM   16  C1  UNL     1      -4.608   3.371  19.703  1.00  0.00     0.007 C 
ENDBRANCH  14  15
ENDBRANCH   1  14
BRANCH   4  17
HETATM   17  C8  UNL     1      -6.539  -2.608  19.476  1.00  0.00     0.006 C 
HETATM   18  C9  UNL     1      -7.166  -3.991  19.766  1.00  0.00     0.006 C 
ENDBRANCH   4  17
TORSDOF 4
ENDMDL
MODEL 2
REMARK VINA RESULT: -5.734043385      1.649      3.043
REMARK  4 active torsions:
REMARK  status: ('A' for Active; 'I' for Inactive)
REMARK    1  A    between atoms: C2_2  and  C3_3 
REMARK    2  A    between atoms: C3_3  and  C4_4 
REMARK    3  A    between atoms: C5_5  and  N1_6 
REMARK    4  A    between atoms: C7_11  and  C8_12 
ROOT
HETATM    1  C4  UNL     1      -4.357  -0.940  18.612  1.00  0.00     0.028 C 
HETATM    2  C5  UNL     1      -4.408  -0.151  19.932  1.00  0.00     0.189 C 
HETATM    3  C6  UNL     1      -5.234  -1.016  20.903  1.00  0.00     0.043 C 
HETATM    4  C7  UNL     1      -5.042  -2.353  20.295  1.00  0.00    -0.031 C 
HETATM    5  C10 UNL     1      -6.089  -3.383  20.527  1.00  0.00     0.010 C 
HETATM    6  C11 UNL     1      -6.296  -4.016  19.170  1.00  0.00     0.002 C 
HETATM    7  C12 UNL     1      -5.318  -3.288  18.225  1.00  0.00     0.010 C 
HETATM    8  C13 UNL     1      -5.352  -1.959  18.841  1.00  0.00    -0.030 C 
HETATM    9  C14 UNL     1      -6.760  -1.421  18.762  1.00  0.00     0.016 C 
ENDROOT
BRANCH   2  10
HETATM   10  N1  UNL     1      -4.955   1.155  19.767  1.00  0.00    -0.075 N 
ATOM     11  H13 UNL     1      -4.639   1.577  18.894  1.00  0.00     0.274 HD
ATOM     12  H12 UNL     1      -5.956   1.112  19.575  1.00  0.00     0.274 HD
ATOM     13  H11 UNL     1      -4.759   1.763  20.562  1.00  0.00     0.274 HD
ENDBRANCH   2  10
BRANCH   1  14
HETATM   14  C3  UNL     1      -4.637  -0.054  17.443  1.00  0.00     0.033 C 
BRANCH  14  15
HETATM   15  C2  UNL     1      -3.423   0.213  16.628  1.00  0.00    -0.036 C 
HETATM   16  C1  UNL     1      -2.998   1.420  16.301  1.00  0.00     0.007 C 
ENDBRANCH  14  15
ENDBRANCH   1  14
BRANCH   4  17
HETATM   17  C8  UNL     1      -3.661  -2.816  20.534  1.00  0.00     0.006 C 
HETATM   18  C9  UNL     1      -3.593  -3.769  21.749  1.00  0.00     0.006 C 
ENDBRANCH   4  17
TORSDOF 4
ENDMDL
MODEL 3
REMARK VINA RESULT: -5.719897802      1.824      2.241
REMARK  4 active torsions:
REMARK  status: ('A' for Active; 'I' for Inactive)
REMARK    1  A    between atoms: C2_2  and  C3_3 
REMARK    2  A    between atoms: C3_3  and  C4_4 
REMARK    3  A    between atoms: C5_5  and  N1_6 
REMARK    4  A    between atoms: C7_11  and  C8_12 
ROOT
HETATM    1  C4  UNL     1      -5.413  -1.766  18.638  1.00  0.00     0.028 C 
HETATM    2  C5  UNL     1      -5.467  -3.277  18.349  1.00  0.00     0.189 C 
HETATM    3  C6  UNL     1      -5.372  -3.968  19.722  1.00  0.00     0.043 C 
HETATM    4  C7  UNL     1      -5.867  -2.882  20.600  1.00  0.00    -0.031 C 
HETATM    5  C10 UNL     1      -5.418  -2.870  22.018  1.00  0.00     0.010 C 
HETATM    6  C11 UNL     1      -5.068  -1.423  22.285  1.00  0.00     0.002 C 
HETATM    7  C12 UNL     1      -5.356  -0.682  20.963  1.00  0.00     0.010 C 
HETATM    8  C13 UNL     1      -5.005  -1.747  20.022  1.00  0.00    -0.030 C 
HETATM    9  C14 UNL     1      -3.546  -2.093  20.198  1.00  0.00     0.016 C 
ENDROOT
BRANCH   2  10
HETATM   10  N1  UNL     1      -4.440  -3.698  17.455  1.00  0.00    -0.075 N 
ATOM     11  H13 UNL     1      -4.640  -3.403  16.500  1.00  0.00     0.274 HD
ATOM     12  H12 UNL     1      -3.579  -3.174  17.611  1.00  0.00     0.274 HD
ATOM     13  H11 UNL     1      -4.270  -4.703  17.502  1.00  0.00     0.274 HD
ENDBRANCH   2  10
BRANCH   1  14
HETATM   14  C3  UNL     1      -4.475  -1.072  17.707  1.00  0.00     0.033 C 
BRANCH  14  15
HETATM   15  C2  UNL     1      -4.683   0.400  17.683  1.00  0.00    -0.036 C 
HETATM   16  C1  UNL     1      -3.978   1.239  16.946  1.00  0.00     0.007 C 
ENDBRANCH  14  15
ENDBRANCH   1  14
BRANCH   4  17
HETATM   17  C8  UNL     1      -7.322  -2.715  20.414  1.00  0.00     0.006 C 
HETATM   18  C9  UNL     1      -8.103  -3.207  21.653  1.00  0.00     0.006 C 
ENDBRANCH   4  17
TORSDOF 4
ENDMDL
MODEL 4
REMARK VINA RESULT: -5.590027235      1.801      4.535
REMARK  4 active torsions:
REMARK  status: ('A' for Active; 'I' for Inactive)
REMARK    1  A    between atoms: C2_2  and  C3_3 
REMARK    2  A    between atoms: C3_3  and  C4_4 
REMARK    3  A    between atoms: C5_5  and  N1_6 
REMARK    4  A    between atoms: C7_11  and  C8_12 
ROOT
HETATM    1  C4  UNL     1      -5.624  -1.969  20.450  1.00  0.00     0.028 C 
HETATM    2  C5  UNL     1      -4.296  -1.921  21.225  1.00  0.00     0.189 C 
HETATM    3  C6  UNL     1      -3.275  -1.277  20.268  1.00  0.00     0.043 C 
HETATM    4  C7  UNL     1      -4.188  -0.523  19.377  1.00  0.00    -0.031 C 
HETATM    5  C10 UNL     1      -3.730  -0.232  17.992  1.00  0.00     0.010 C 
HETATM    6  C11 UNL     1      -4.933  -0.542  17.129  1.00  0.00     0.002 C 
HETATM    7  C12 UNL     1      -6.034  -0.997  18.110  1.00  0.00     0.010 C 
HETATM    8  C13 UNL     1      -5.191  -1.659  19.109  1.00  0.00    -0.030 C 
HETATM    9  C14 UNL     1      -4.471  -2.812  18.453  1.00  0.00     0.016 C 
ENDROOT
BRANCH   2  10
HETATM   10  N1  UNL     1      -3.881  -3.208  21.677  1.00  0.00    -0.075 N 
ATOM     11  H13 UNL     1      -3.727  -3.840  20.892  1.00  0.00     0.274 HD
ATOM     12  H12 UNL     1      -2.933  -3.178  22.051  1.00  0.00     0.274 HD
ATOM     13  H11 UNL     1      -4.529  -3.612  22.352  1.00  0.00     0.274 HD
ENDBRANCH   2  10
BRANCH   1  14
HETATM   14  C3  UNL     1      -6.285  -3.299  20.594  1.00  0.00     0.033 C 
BRANCH  14  15
HETATM   15  C2  UNL     1      -7.724  -3.183  20.953  1.00  0.00    -0.036 C 
HETATM   16  C1  UNL     1      -8.191  -3.267  22.185  1.00  0.00     0.007 C 
ENDBRANCH  14  15
ENDBRANCH   1  14
BRANCH   4  17
HETATM   17  C8  UNL     1      -4.741   0.639  20.099  1.00  0.00     0.006 C 
HETATM   18  C9  UNL     1      -4.084   1.955  19.626  1.00  0.00     0.006 C 
ENDBRANCH   4  17
TORSDOF 4
ENDMDL
MODEL 5
REMARK VINA RESULT: -5.363717208      1.660      2.685
REMARK  4 active torsions:
REMARK  status: ('A' for Active; 'I' for Inactive)
REMARK    1  A    between atoms: C2_2  and  C3_3 
REMARK    2  A    between atoms: C3_3  and  C4_4 
REMARK    3  A    between atoms: C5_5  and  N1_6 
REMARK    4  A    between atoms: C7_11  and  C8_12 
ROOT
HETATM    1  C4  UNL     1      -4.360  -0.968  19.606  1.00  0.00     0.028 C 
HETATM    2  C5  UNL     1      -3.268  -1.370  20.613  1.00  0.00     0.189 C 
HETATM    3  C6  UNL     1      -3.915  -2.422  21.534  1.00  0.00     0.043 C 
HETATM    4  C7  UNL     1      -4.993  -2.922  20.648  1.00  0.00    -0.031 C 
HETATM    5  C10 UNL     1      -6.206  -3.502  21.283  1.00  0.00     0.010 C 
HETATM    6  C11 UNL     1      -7.356  -2.907  20.503  1.00  0.00     0.002 C 
HETATM    7  C12 UNL     1      -6.703  -2.003  19.437  1.00  0.00     0.010 C 
HETATM    8  C13 UNL     1      -5.537  -1.554  20.202  1.00  0.00    -0.030 C 
HETATM    9  C14 UNL     1      -6.013  -0.789  21.413  1.00  0.00     0.016 C 
ENDROOT
BRANCH   2  10
HETATM   10  N1  UNL     1      -2.756  -0.255  21.337  1.00  0.00    -0.075 N 
ATOM     11  H13 UNL     1      -3.344  -0.037  22.141  1.00  0.00     0.274 HD
ATOM     12  H12 UNL     1      -1.894  -0.498  21.826  1.00  0.00     0.274 HD
ATOM     13  H11 UNL     1      -2.622   0.566  20.746  1.00  0.00     0.274 HD
ENDBRANCH   2  10
BRANCH   1  14
HETATM   14  C3  UNL     1      -4.423   0.514  19.441  1.00  0.00     0.033 C 
BRANCH  14  15
HETATM   15  C2  UNL     1      -4.177   0.941  18.038  1.00  0.00    -0.036 C 
HETATM   16  C1  UNL     1      -4.243   0.136  16.994  1.00  0.00     0.007 C 
ENDBRANCH  14  15
ENDBRANCH   1  14
BRANCH   4  17
HETATM   17  C8  UNL     1      -4.410  -3.743  19.569  1.00  0.00     0.006 C 
HETATM   18  C9  UNL     1      -4.519  -5.250  19.893  1.00  0.00     0.006 C 
ENDBRANCH   4  17
TORSDOF 4
ENDMDL
