MODEL 1
REMARK VINA RESULT: -7.522218145      0.000      0.000
REMARK  2 active torsions:
REMARK  status: ('A' for Active; 'I' for Inactive)
REMARK    1  A    between atoms: C2_2  and  C3_3 
REMARK    2  A    between atoms: C12_17  and  O1_18 
ROOT
HETATM    1  C3  UNL     1      36.055  -4.183  10.652  1.00  0.00     0.152 C 
HETATM    2  N1  UNL     1      35.938  -2.896  10.037  1.00  0.00    -0.371 N 
ATOM      3  H1  UNL     1      35.203  -2.304  10.421  1.00  0.00     0.161 HD
HETATM    4  C4  UNL     1      36.679  -2.313   8.979  1.00  0.00     0.081 A 
HETATM    5  S1  UNL     1      36.914  -0.638   8.780  1.00  0.00    -0.056 SA
HETATM    6  C5  UNL     1      37.866  -0.661   7.369  1.00  0.00     0.110 A 
HETATM    7  N2  UNL     1      38.390   0.480   6.696  1.00  0.00    -0.093 NA
HETATM    8  C6  UNL     1      37.978  -1.991   7.084  1.00  0.00     0.085 A 
HETATM    9  C7  UNL     1      38.765  -2.375   5.897  1.00  0.00     0.102 C 
HETATM   10  N3  UNL     1      39.405  -2.690   4.962  1.00  0.00    -0.191 NA
HETATM   11  C8  UNL     1      37.359  -2.869   7.920  1.00  0.00     0.010 A 
HETATM   12  C9  UNL     1      37.448  -4.331   7.638  1.00  0.00     0.091 C 
HETATM   13  C10 UNL     1      36.336  -4.804   6.762  1.00  0.00    -0.024 C 
HETATM   14  C11 UNL     1      35.587  -4.148   5.902  1.00  0.00     0.020 C 
HETATM   15  C12 UNL     1      36.274  -6.272   7.127  1.00  0.00     0.288 C 
HETATM   16  O2  UNL     1      36.355  -6.169   8.504  1.00  0.00    -0.345 OA
HETATM   17  C13 UNL     1      37.398  -5.273   8.720  1.00  0.00     0.185 C 
HETATM   18  C14 UNL     1      37.320  -4.776  10.116  1.00  0.00     0.037 C 
HETATM   19  N4  UNL     1      38.312  -4.838  10.889  1.00  0.00    -0.402 N 
ATOM     20  H41 UNL     1      39.175  -5.241  10.523  1.00  0.00     0.155 HD
ATOM     21  H42 UNL     1      38.259  -4.496  11.848  1.00  0.00     0.155 HD
ENDROOT
BRANCH   1  22
HETATM   22  C2  UNL     1      36.063  -4.045  12.108  1.00  0.00    -0.006 C 
HETATM   23  C1  UNL     1      35.310  -4.816  12.873  1.00  0.00     0.009 C 
ENDBRANCH   1  22
BRANCH  15  24
HETATM   24  O1  UNL     1      37.348  -6.908   6.534  1.00  0.00    -0.367 OA
ATOM     25  H1  UNL     1      37.592  -7.647   7.079  1.00  0.00     0.213 HD
ENDBRANCH  15  24
TORSDOF 2
ENDMDL
MODEL 2
REMARK VINA RESULT: -7.130717371      1.929      4.812
REMARK  2 active torsions:
REMARK  status: ('A' for Active; 'I' for Inactive)
REMARK    1  A    between atoms: C2_2  and  C3_3 
REMARK    2  A    between atoms: C12_17  and  O1_18 
ROOT
HETATM    1  C3  UNL     1      37.344  -3.280   6.656  1.00  0.00     0.152 C 
HETATM    2  N1  UNL     1      37.539  -2.406   7.773  1.00  0.00    -0.371 N 
ATOM      3  H1  UNL     1      38.155  -1.614   7.593  1.00  0.00     0.161 HD
HETATM    4  C4  UNL     1      37.013  -2.463   9.088  1.00  0.00     0.081 A 
HETATM    5  S1  UNL     1      36.764  -1.104  10.083  1.00  0.00    -0.056 SA
HETATM    6  C5  UNL     1      36.129  -1.884  11.457  1.00  0.00     0.110 A 
HETATM    7  N2  UNL     1      35.715  -1.248  12.662  1.00  0.00    -0.093 NA
HETATM    8  C6  UNL     1      36.127  -3.202  11.101  1.00  0.00     0.085 A 
HETATM    9  C7  UNL     1      35.620  -4.179  12.083  1.00  0.00     0.102 C 
HETATM   10  N3  UNL     1      35.201  -4.961  12.855  1.00  0.00    -0.191 NA
HETATM   11  C8  UNL     1      36.590  -3.520   9.861  1.00  0.00     0.010 A 
HETATM   12  C9  UNL     1      36.617  -4.950   9.437  1.00  0.00     0.091 C 
HETATM   13  C10 UNL     1      37.904  -5.618   9.789  1.00  0.00    -0.024 C 
HETATM   14  C11 UNL     1      38.790  -5.329  10.717  1.00  0.00     0.020 C 
HETATM   15  C12 UNL     1      37.941  -6.743   8.776  1.00  0.00     0.288 C 
HETATM   16  O2  UNL     1      37.572  -6.042   7.643  1.00  0.00    -0.345 OA
HETATM   17  C13 UNL     1      36.474  -5.288   8.049  1.00  0.00     0.185 C 
HETATM   18  C14 UNL     1      36.241  -4.209   7.056  1.00  0.00     0.037 C 
HETATM   19  N4  UNL     1      35.112  -4.044   6.523  1.00  0.00    -0.402 N 
ATOM     20  H41 UNL     1      34.360  -4.677   6.796  1.00  0.00     0.155 HD
ATOM     21  H42 UNL     1      34.952  -3.303   5.842  1.00  0.00     0.155 HD
ENDROOT
BRANCH   1  22
HETATM   22  C2  UNL     1      37.027  -2.503   5.459  1.00  0.00    -0.006 C 
HETATM   23  C1  UNL     1      37.160  -1.189   5.440  1.00  0.00     0.009 C 
ENDBRANCH   1  22
BRANCH  15  24
HETATM   24  O1  UNL     1      37.040  -7.711   9.173  1.00  0.00    -0.367 OA
ATOM     25  H1  UNL     1      36.709  -8.144   8.395  1.00  0.00     0.213 HD
ENDBRANCH  15  24
TORSDOF 2
ENDMDL
MODEL 3
REMARK VINA RESULT: -7.115146351      2.264      5.062
REMARK  2 active torsions:
REMARK  status: ('A' for Active; 'I' for Inactive)
REMARK    1  A    between atoms: C2_2  and  C3_3 
REMARK    2  A    between atoms: C12_17  and  O1_18 
ROOT
HETATM    1  C3  UNL     1      37.090  -3.452   6.253  1.00  0.00     0.152 C 
HETATM    2  N1  UNL     1      37.416  -3.325   7.640  1.00  0.00    -0.371 N 
ATOM      3  H1  UNL     1      38.071  -2.574   7.859  1.00  0.00     0.161 HD
HETATM    4  C4  UNL     1      36.976  -4.074   8.760  1.00  0.00     0.081 A 
HETATM    5  S1  UNL     1      36.884  -3.465  10.348  1.00  0.00    -0.056 SA
HETATM    6  C5  UNL     1      36.291  -4.852  11.138  1.00  0.00     0.110 A 
HETATM    7  N2  UNL     1      36.001  -4.960  12.529  1.00  0.00    -0.093 NA
HETATM    8  C6  UNL     1      36.179  -5.767  10.132  1.00  0.00     0.085 A 
HETATM    9  C7  UNL     1      35.675  -7.110  10.477  1.00  0.00     0.102 C 
HETATM   10  N3  UNL     1      35.257  -8.177  10.742  1.00  0.00    -0.191 NA
HETATM   11  C8  UNL     1      36.537  -5.373   8.879  1.00  0.00     0.010 A 
HETATM   12  C9  UNL     1      36.440  -6.346   7.752  1.00  0.00     0.091 C 
HETATM   13  C10 UNL     1      37.701  -7.124   7.572  1.00  0.00    -0.024 C 
HETATM   14  C11 UNL     1      38.664  -7.401   8.423  1.00  0.00     0.020 C 
HETATM   15  C12 UNL     1      37.597  -7.522   6.114  1.00  0.00     0.288 C 
HETATM   16  O2  UNL     1      37.200  -6.312   5.575  1.00  0.00    -0.345 OA
HETATM   17  C13 UNL     1      36.184  -5.876   6.421  1.00  0.00     0.185 C 
HETATM   18  C14 UNL     1      35.957  -4.428   6.190  1.00  0.00     0.037 C 
HETATM   19  N4  UNL     1      34.809  -3.978   5.935  1.00  0.00    -0.402 N 
ATOM     20  H41 UNL     1      34.037  -4.643   5.892  1.00  0.00     0.155 HD
ATOM     21  H42 UNL     1      34.653  -2.983   5.776  1.00  0.00     0.155 HD
ENDROOT
BRANCH   1  22
HETATM   22  C2  UNL     1      36.747  -2.144   5.695  1.00  0.00    -0.006 C 
HETATM   23  C1  UNL     1      37.015  -1.029   6.350  1.00  0.00     0.009 C 
ENDBRANCH   1  22
BRANCH  15  24
HETATM   24  O1  UNL     1      36.662  -8.533   6.009  1.00  0.00    -0.367 OA
ATOM     25  H1  UNL     1      36.820  -8.999   5.197  1.00  0.00     0.213 HD
ENDBRANCH  15  24
TORSDOF 2
ENDMDL
MODEL 4
REMARK VINA RESULT: -7.004210819      3.096      4.675
REMARK  2 active torsions:
REMARK  status: ('A' for Active; 'I' for Inactive)
REMARK    1  A    between atoms: C2_2  and  C3_3 
REMARK    2  A    between atoms: C12_17  and  O1_18 
ROOT
HETATM    1  C3  UNL     1      37.388   1.118   8.582  1.00  0.00     0.152 C 
HETATM    2  N1  UNL     1      36.822   1.387   7.296  1.00  0.00    -0.371 N 
ATOM      3  H1  UNL     1      36.180   2.179   7.269  1.00  0.00     0.161 HD
HETATM    4  C4  UNL     1      37.009   0.732   6.054  1.00  0.00     0.081 A 
HETATM    5  S1  UNL     1      36.843   1.485   4.535  1.00  0.00    -0.056 SA
HETATM    6  C5  UNL     1      37.206   0.158   3.531  1.00  0.00     0.110 A 
HETATM    7  N2  UNL     1      37.231   0.171   2.107  1.00  0.00    -0.093 NA
HETATM    8  C6  UNL     1      37.450  -0.852   4.416  1.00  0.00     0.085 A 
HETATM    9  C7  UNL     1      37.811  -2.173   3.869  1.00  0.00     0.102 C 
HETATM   10  N3  UNL     1      38.115  -3.225   3.440  1.00  0.00    -0.191 NA
HETATM   11  C8  UNL     1      37.349  -0.565   5.743  1.00  0.00     0.010 A 
HETATM   12  C9  UNL     1      37.597  -1.643   6.744  1.00  0.00     0.091 C 
HETATM   13  C10 UNL     1      36.351  -2.388   7.089  1.00  0.00    -0.024 C 
HETATM   14  C11 UNL     1      35.235  -2.547   6.411  1.00  0.00     0.020 C 
HETATM   15  C12 UNL     1      36.697  -2.926   8.462  1.00  0.00     0.288 C 
HETATM   16  O2  UNL     1      37.251  -1.788   9.020  1.00  0.00    -0.345 OA
HETATM   17  C13 UNL     1      38.117  -1.312   8.040  1.00  0.00     0.185 C 
HETATM   18  C14 UNL     1      38.460   0.099   8.348  1.00  0.00     0.037 C 
HETATM   19  N4  UNL     1      39.657   0.480   8.423  1.00  0.00    -0.402 N 
ATOM     20  H41 UNL     1      40.388  -0.214   8.263  1.00  0.00     0.155 HD
ATOM     21  H42 UNL     1      39.893   1.449   8.634  1.00  0.00     0.155 HD
ENDROOT
BRANCH   1  22
HETATM   22  C2  UNL     1      37.897   2.353   9.177  1.00  0.00    -0.006 C 
HETATM   23  C1  UNL     1      37.990   3.465   8.470  1.00  0.00     0.009 C 
ENDBRANCH   1  22
BRANCH  15  24
HETATM   24  O1  UNL     1      37.580  -3.976   8.303  1.00  0.00    -0.367 OA
ATOM     25  H1  UNL     1      37.081  -4.783   8.290  1.00  0.00     0.213 HD
ENDBRANCH  15  24
TORSDOF 2
ENDMDL
MODEL 5
REMARK VINA RESULT: -6.884206361      2.165      4.813
REMARK  2 active torsions:
REMARK  status: ('A' for Active; 'I' for Inactive)
REMARK    1  A    between atoms: C2_2  and  C3_3 
REMARK    2  A    between atoms: C12_17  and  O1_18 
ROOT
HETATM    1  C3  UNL     1      36.314  -1.706   6.304  1.00  0.00     0.152 C 
HETATM    2  N1  UNL     1      37.123  -1.986   7.451  1.00  0.00    -0.371 N 
ATOM      3  H1  UNL     1      37.860  -1.305   7.630  1.00  0.00     0.161 HD
HETATM    4  C4  UNL     1      37.065  -3.057   8.378  1.00  0.00     0.081 A 
HETATM    5  S1  UNL     1      37.587  -2.957   9.995  1.00  0.00    -0.056 SA
HETATM    6  C5  UNL     1      37.227  -4.544  10.497  1.00  0.00     0.110 A 
HETATM    7  N2  UNL     1      37.447  -5.078  11.799  1.00  0.00    -0.093 NA
HETATM    8  C6  UNL     1      36.701  -5.120   9.376  1.00  0.00     0.085 A 
HETATM    9  C7  UNL     1      36.267  -6.526   9.466  1.00  0.00     0.102 C 
HETATM   10  N3  UNL     1      35.902  -7.642   9.534  1.00  0.00    -0.191 NA
HETATM   11  C8  UNL     1      36.612  -4.351   8.257  1.00  0.00     0.010 A 
HETATM   12  C9  UNL     1      36.055  -4.945   7.007  1.00  0.00     0.091 C 
HETATM   13  C10 UNL     1      37.113  -5.572   6.161  1.00  0.00    -0.024 C 
HETATM   14  C11 UNL     1      38.297  -6.045   6.485  1.00  0.00     0.020 C 
HETATM   15  C12 UNL     1      36.468  -5.518   4.792  1.00  0.00     0.288 C 
HETATM   16  O2  UNL     1      35.985  -4.223   4.817  1.00  0.00    -0.345 OA
HETATM   17  C13 UNL     1      35.370  -4.110   6.061  1.00  0.00     0.185 C 
HETATM   18  C14 UNL     1      35.172  -2.671   6.368  1.00  0.00     0.037 C 
HETATM   19  N4  UNL     1      34.041  -2.222   6.690  1.00  0.00    -0.402 N 
ATOM     20  H41 UNL     1      33.262  -2.879   6.734  1.00  0.00     0.155 HD
ATOM     21  H42 UNL     1      33.904  -1.233   6.901  1.00  0.00     0.155 HD
ENDROOT
BRANCH   1  22
HETATM   22  C2  UNL     1      35.881  -0.310   6.322  1.00  0.00    -0.006 C 
HETATM   23  C1  UNL     1      36.756   0.679   6.282  1.00  0.00     0.009 C 
ENDBRANCH   1  22
BRANCH  15  24
HETATM   24  O1  UNL     1      35.492  -6.495   4.737  1.00  0.00    -0.367 OA
ATOM     25  H1  UNL     1      35.043  -6.418   3.904  1.00  0.00     0.213 HD
ENDBRANCH  15  24
TORSDOF 2
ENDMDL
