MODEL 1
REMARK VINA RESULT: -8.829756469      0.000      0.000
REMARK  2 active torsions:
REMARK  status: ('A' for Active; 'I' for Inactive)
REMARK    1  A    between atoms: O1_1  and  N1_3 
REMARK    2  A    between atoms: C12_25  and  O5_26 
ROOT
HETATM    1  N1  UNL     1      36.871  -9.569   6.979  1.00  0.00    -0.248 N 
ATOM      2  H1  UNL     1      37.026  -9.540   5.971  1.00  0.00     0.196 HD
HETATM    3  C1  UNL     1      36.890  -8.451   7.628  1.00  0.00     0.197 C 
HETATM    4  N2  UNL     1      37.125  -7.263   6.904  1.00  0.00    -0.245 N 
ATOM      5  H2  UNL     1      36.550  -7.112   6.075  1.00  0.00     0.196 HD
HETATM    6  O2  UNL     1      38.031  -6.305   7.192  1.00  0.00    -0.277 OA
HETATM    7  C2  UNL     1      37.463  -5.167   7.715  1.00  0.00     0.227 C 
HETATM    8  C3  UNL     1      37.716  -3.914   6.870  1.00  0.00     0.196 C 
HETATM    9  O3  UNL     1      36.927  -2.913   7.464  1.00  0.00    -0.389 OA
HETATM   10  C4  UNL     1      36.966  -3.001   8.848  1.00  0.00     0.167 C 
HETATM   11  C5  UNL     1      36.398  -1.778   9.538  1.00  0.00     0.026 C 
HETATM   12  C6  UNL     1      35.651  -2.180  10.810  1.00  0.00     0.002 C 
HETATM   13  C7  UNL     1      36.472  -3.134  11.634  1.00  0.00     0.002 C 
HETATM   14  C8  UNL     1      35.786  -4.453  11.905  1.00  0.00     0.020 C 
HETATM   15  C9  UNL     1      36.780  -5.541  12.224  1.00  0.00     0.121 C 
HETATM   16  N3  UNL     1      36.145  -6.836  12.159  1.00  0.00    -0.372 N 
ATOM     17  H3  UNL     1      35.525  -7.096  12.926  1.00  0.00     0.161 HD
HETATM   18  C10 UNL     1      36.320  -7.774  11.107  1.00  0.00     0.163 A 
HETATM   19  N4  UNL     1      36.526  -7.442   9.835  1.00  0.00    -0.316 N 
ATOM     20  H4  UNL     1      36.577  -6.484   9.487  1.00  0.00     0.169 HD
HETATM   21  C11 UNL     1      36.655  -8.533   9.076  1.00  0.00     0.200 A 
HETATM   22  O4  UNL     1      36.527  -9.556   9.890  1.00  0.00    -0.264 OA
HETATM   23  C12 UNL     1      36.325  -9.152  11.116  1.00  0.00     0.230 A 
ENDROOT
BRANCH   1  24
HETATM   24  O1  UNL     1      36.656 -10.775   7.553  1.00  0.00    -0.288 OA
ATOM     25  H1  UNL     1      35.835 -11.037   7.952  1.00  0.00     0.244 HD
ENDBRANCH   1  24
BRANCH  23  26
HETATM   26  O5  UNL     1      36.150  -9.990  12.207  1.00  0.00    -0.338 OA
ATOM     27  H5  UNL     1      35.376 -10.079  12.752  1.00  0.00     0.220 HD
ENDBRANCH  23  26
TORSDOF 2
ENDMDL
MODEL 2
REMARK VINA RESULT: -8.797366693      1.704      4.161
REMARK  2 active torsions:
REMARK  status: ('A' for Active; 'I' for Inactive)
REMARK    1  A    between atoms: O1_1  and  N1_3 
REMARK    2  A    between atoms: C12_25  and  O5_26 
ROOT
HETATM    1  N1  UNL     1      36.197  -8.758  12.644  1.00  0.00    -0.248 N 
ATOM      2  H1  UNL     1      36.097  -8.658  13.654  1.00  0.00     0.196 HD
HETATM    3  C1  UNL     1      36.196  -7.684  11.925  1.00  0.00     0.197 C 
HETATM    4  N2  UNL     1      36.059  -6.442  12.581  1.00  0.00    -0.245 N 
ATOM      5  H2  UNL     1      36.684  -6.269  13.367  1.00  0.00     0.196 HD
HETATM    6  O2  UNL     1      35.186  -5.458  12.276  1.00  0.00    -0.277 OA
HETATM    7  C2  UNL     1      35.780  -4.386  11.652  1.00  0.00     0.227 C 
HETATM    8  C3  UNL     1      35.633  -3.071  12.425  1.00  0.00     0.196 C 
HETATM    9  O3  UNL     1      36.436  -2.152  11.726  1.00  0.00    -0.389 OA
HETATM   10  C4  UNL     1      36.319  -2.325  10.355  1.00  0.00     0.167 C 
HETATM   11  C5  UNL     1      36.907  -1.179   9.559  1.00  0.00     0.026 C 
HETATM   12  C6  UNL     1      37.565  -1.699   8.279  1.00  0.00     0.002 C 
HETATM   13  C7  UNL     1      36.655  -2.659   7.563  1.00  0.00     0.002 C 
HETATM   14  C8  UNL     1      37.261  -4.026   7.345  1.00  0.00     0.020 C 
HETATM   15  C9  UNL     1      36.200  -5.078   7.148  1.00  0.00     0.121 C 
HETATM   16  N3  UNL     1      36.774  -6.398   7.266  1.00  0.00    -0.372 N 
ATOM     17  H3  UNL     1      37.339  -6.738   6.487  1.00  0.00     0.161 HD
HETATM   18  C10 UNL     1      36.610  -7.257   8.384  1.00  0.00     0.163 A 
HETATM   19  N4  UNL     1      36.490  -6.836   9.641  1.00  0.00    -0.316 N 
ATOM     20  H4  UNL     1      36.503  -5.857   9.928  1.00  0.00     0.169 HD
HETATM   21  C11 UNL     1      36.349  -7.869  10.476  1.00  0.00     0.200 A 
HETATM   22  O4  UNL     1      36.383  -8.946   9.725  1.00  0.00    -0.264 OA
HETATM   23  C12 UNL     1      36.538  -8.631   8.466  1.00  0.00     0.230 A 
ENDROOT
BRANCH   1  24
HETATM   24  O1  UNL     1      36.321 -10.007  12.140  1.00  0.00    -0.288 OA
ATOM     25  H1  UNL     1      35.634 -10.462  11.668  1.00  0.00     0.244 HD
ENDBRANCH   1  24
BRANCH  23  26
HETATM   26  O5  UNL     1      36.613  -9.545   7.425  1.00  0.00    -0.338 OA
ATOM     27  H5  UNL     1      35.892  -9.929   6.939  1.00  0.00     0.220 HD
ENDBRANCH  23  26
TORSDOF 2
ENDMDL
MODEL 3
REMARK VINA RESULT: -8.574822215      3.452      6.525
REMARK  2 active torsions:
REMARK  status: ('A' for Active; 'I' for Inactive)
REMARK    1  A    between atoms: O1_1  and  N1_3 
REMARK    2  A    between atoms: C12_25  and  O5_26 
ROOT
HETATM    1  N1  UNL     1      36.811   0.230   7.085  1.00  0.00    -0.248 N 
ATOM      2  H1  UNL     1      36.512   1.117   7.491  1.00  0.00     0.196 HD
HETATM    3  C1  UNL     1      36.792  -0.818   7.840  1.00  0.00     0.197 C 
HETATM    4  N2  UNL     1      36.359  -0.672   9.175  1.00  0.00    -0.245 N 
ATOM      5  H2  UNL     1      35.472  -0.191   9.318  1.00  0.00     0.196 HD
HETATM    6  O2  UNL     1      36.998  -1.102  10.284  1.00  0.00    -0.277 OA
HETATM    7  C2  UNL     1      36.412  -2.213  10.846  1.00  0.00     0.227 C 
HETATM    8  C3  UNL     1      35.927  -1.987  12.282  1.00  0.00     0.196 C 
HETATM    9  O3  UNL     1      35.219  -3.157  12.611  1.00  0.00    -0.389 OA
HETATM   10  C4  UNL     1      35.860  -4.285  12.120  1.00  0.00     0.167 C 
HETATM   11  C5  UNL     1      35.322  -5.575  12.702  1.00  0.00     0.026 C 
HETATM   12  C6  UNL     1      35.325  -6.680  11.644  1.00  0.00     0.002 C 
HETATM   13  C7  UNL     1      36.646  -6.730  10.926  1.00  0.00     0.002 C 
HETATM   14  C8  UNL     1      36.533  -6.554   9.429  1.00  0.00     0.020 C 
HETATM   15  C9  UNL     1      37.828  -6.068   8.829  1.00  0.00     0.121 C 
HETATM   16  N3  UNL     1      37.611  -5.604   7.479  1.00  0.00    -0.372 N 
ATOM     17  H3  UNL     1      37.471  -6.308   6.754  1.00  0.00     0.161 HD
HETATM   18  C10 UNL     1      37.579  -4.239   7.086  1.00  0.00     0.163 A 
HETATM   19  N4  UNL     1      37.128  -3.249   7.852  1.00  0.00    -0.316 N 
ATOM     20  H4  UNL     1      36.760  -3.369   8.796  1.00  0.00     0.169 HD
HETATM   21  C11 UNL     1      37.221  -2.078   7.218  1.00  0.00     0.200 A 
HETATM   22  O4  UNL     1      37.738  -2.346   6.040  1.00  0.00    -0.264 OA
HETATM   23  C12 UNL     1      37.968  -3.626   5.914  1.00  0.00     0.230 A 
ENDROOT
BRANCH   1  24
HETATM   24  O1  UNL     1      37.202   0.225   5.790  1.00  0.00    -0.288 OA
ATOM     25  H1  UNL     1      37.813   0.849   5.416  1.00  0.00     0.244 HD
ENDBRANCH   1  24
BRANCH  23  26
HETATM   26  O5  UNL     1      38.510  -4.226   4.787  1.00  0.00    -0.338 OA
ATOM     27  H5  UNL     1      38.083  -4.383   3.953  1.00  0.00     0.220 HD
ENDBRANCH  23  26
TORSDOF 2
ENDMDL
MODEL 4
REMARK VINA RESULT: -8.561711182      1.184      1.343
REMARK  2 active torsions:
REMARK  status: ('A' for Active; 'I' for Inactive)
REMARK    1  A    between atoms: O1_1  and  N1_3 
REMARK    2  A    between atoms: C12_25  and  O5_26 
ROOT
HETATM    1  N1  UNL     1      37.028  -8.151   5.509  1.00  0.00    -0.248 N 
ATOM      2  H1  UNL     1      37.157  -7.780   4.567  1.00  0.00     0.196 HD
HETATM    3  C1  UNL     1      37.008  -7.314   6.493  1.00  0.00     0.197 C 
HETATM    4  N2  UNL     1      37.165  -5.942   6.205  1.00  0.00    -0.245 N 
ATOM      5  H2  UNL     1      36.563  -5.556   5.478  1.00  0.00     0.196 HD
HETATM    6  O2  UNL     1      38.028  -5.085   6.791  1.00  0.00    -0.277 OA
HETATM    7  C2  UNL     1      37.417  -4.219   7.667  1.00  0.00     0.227 C 
HETATM    8  C3  UNL     1      37.586  -2.745   7.287  1.00  0.00     0.196 C 
HETATM    9  O3  UNL     1      36.763  -2.044   8.186  1.00  0.00    -0.389 OA
HETATM   10  C4  UNL     1      36.840  -2.586   9.462  1.00  0.00     0.167 C 
HETATM   11  C5  UNL     1      36.229  -1.695  10.523  1.00  0.00     0.026 C 
HETATM   12  C6  UNL     1      35.534  -2.539  11.593  1.00  0.00     0.002 C 
HETATM   13  C7  UNL     1      36.422  -3.665  12.046  1.00  0.00     0.002 C 
HETATM   14  C8  UNL     1      35.810  -5.036  11.866  1.00  0.00     0.020 C 
HETATM   15  C9  UNL     1      36.865  -6.110  11.797  1.00  0.00     0.121 C 
HETATM   16  N3  UNL     1      36.294  -7.343  11.308  1.00  0.00    -0.372 N 
ATOM     17  H3  UNL     1      35.707  -7.878  11.948  1.00  0.00     0.161 HD
HETATM   18  C10 UNL     1      36.490  -7.866  10.003  1.00  0.00     0.163 A 
HETATM   19  N4  UNL     1      36.648  -7.119   8.913  1.00  0.00    -0.316 N 
ATOM     20  H4  UNL     1      36.643  -6.099   8.904  1.00  0.00     0.169 HD
HETATM   21  C11 UNL     1      36.813  -7.886   7.832  1.00  0.00     0.200 A 
HETATM   22  O4  UNL     1      36.756  -9.127   8.259  1.00  0.00    -0.264 OA
HETATM   23  C12 UNL     1      36.564  -9.166   9.551  1.00  0.00     0.230 A 
ENDROOT
BRANCH   1  24
HETATM   24  O1  UNL     1      36.889  -9.489   5.649  1.00  0.00    -0.288 OA
ATOM     25  H1  UNL     1      36.244 -10.009   5.184  1.00  0.00     0.244 HD
ENDBRANCH   1  24
BRANCH  23  26
HETATM   26  O5  UNL     1      36.459 -10.328  10.301  1.00  0.00    -0.338 OA
ATOM     27  H5  UNL     1      35.979 -10.452  11.112  1.00  0.00     0.220 HD
ENDBRANCH  23  26
TORSDOF 2
ENDMDL
MODEL 5
REMARK VINA RESULT: -8.355894976      2.162      4.492
REMARK  2 active torsions:
REMARK  status: ('A' for Active; 'I' for Inactive)
REMARK    1  A    between atoms: O1_1  and  N1_3 
REMARK    2  A    between atoms: C12_25  and  O5_26 
ROOT
HETATM    1  N1  UNL     1      37.423 -11.261   7.645  1.00  0.00    -0.248 N 
ATOM      2  H1  UNL     1      37.238 -12.069   8.241  1.00  0.00     0.196 HD
HETATM    3  C1  UNL     1      37.152 -10.088   8.114  1.00  0.00     0.197 C 
HETATM    4  N2  UNL     1      36.618  -9.996   9.416  1.00  0.00    -0.245 N 
ATOM      5  H2  UNL     1      37.117 -10.498  10.151  1.00  0.00     0.196 HD
HETATM    6  O2  UNL     1      35.515  -9.314   9.793  1.00  0.00    -0.277 OA
HETATM    7  C2  UNL     1      35.806  -8.156  10.476  1.00  0.00     0.227 C 
HETATM    8  C3  UNL     1      35.235  -8.125  11.898  1.00  0.00     0.196 C 
HETATM    9  O3  UNL     1      35.775  -6.963  12.477  1.00  0.00    -0.389 OA
HETATM   10  C4  UNL     1      35.796  -5.914  11.570  1.00  0.00     0.167 C 
HETATM   11  C5  UNL     1      36.070  -4.573  12.218  1.00  0.00     0.026 C 
HETATM   12  C6  UNL     1      36.927  -3.701  11.298  1.00  0.00     0.002 C 
HETATM   13  C7  UNL     1      36.383  -3.706   9.896  1.00  0.00     0.002 C 
HETATM   14  C8  UNL     1      37.375  -4.181   8.859  1.00  0.00     0.020 C 
HETATM   15  C9  UNL     1      36.681  -4.689   7.621  1.00  0.00     0.121 C 
HETATM   16  N3  UNL     1      37.608  -5.425   6.793  1.00  0.00    -0.372 N 
ATOM     17  H3  UNL     1      38.294  -4.888   6.260  1.00  0.00     0.161 HD
HETATM   18  C10 UNL     1      37.636  -6.838   6.665  1.00  0.00     0.163 A 
HETATM   19  N4  UNL     1      37.322  -7.685   7.642  1.00  0.00    -0.316 N 
ATOM     20  H4  UNL     1      37.031  -7.406   8.579  1.00  0.00     0.169 HD
HETATM   21  C11 UNL     1      37.439  -8.950   7.230  1.00  0.00     0.200 A 
HETATM   22  O4  UNL     1      37.832  -8.886   5.978  1.00  0.00    -0.264 OA
HETATM   23  C12 UNL     1      37.964  -7.643   5.595  1.00  0.00     0.230 A 
ENDROOT
BRANCH   1  24
HETATM   24  O1  UNL     1      37.938 -11.486   6.415  1.00  0.00    -0.288 OA
ATOM     25  H1  UNL     1      38.430 -12.263   6.177  1.00  0.00     0.244 HD
ENDBRANCH   1  24
BRANCH  23  26
HETATM   26  O5  UNL     1      38.366  -7.244   4.329  1.00  0.00    -0.338 OA
ATOM     27  H5  UNL     1      38.120  -6.450   3.867  1.00  0.00     0.220 HD
ENDBRANCH  23  26
TORSDOF 2
ENDMDL
