MODEL 1
REMARK VINA RESULT: -9.154235824      0.000      0.000
REMARK  1 active torsions:
REMARK  status: ('A' for Active; 'I' for Inactive)
REMARK    1  A    between atoms: C15_23  and  N8_24 
ROOT
HETATM    1  N1  UNL     1      37.722   0.299   6.901  1.00  0.00    -0.191 NA
HETATM    2  C1  UNL     1      37.469  -0.821   6.979  1.00  0.00     0.105 C 
HETATM    3  C2  UNL     1      37.155  -2.221   7.073  1.00  0.00     0.112 A 
HETATM    4  C3  UNL     1      36.986  -3.029   5.993  1.00  0.00     0.095 A 
HETATM    5  N2  UNL     1      37.124  -2.482   4.688  1.00  0.00    -0.099 NA
HETATM    6  C4  UNL     1      36.688  -4.350   6.182  1.00  0.00     0.115 A 
HETATM    7  C5  UNL     1      36.507  -5.223   5.041  1.00  0.00     0.105 C 
HETATM    8  N3  UNL     1      36.352  -5.909   4.116  1.00  0.00    -0.191 NA
HETATM    9  C6  UNL     1      36.561  -4.855   7.466  1.00  0.00     0.137 A 
HETATM   10  N4  UNL     1      36.285  -6.074   7.892  1.00  0.00    -0.341 N 
ATOM     11  H4  UNL     1      36.114  -6.878   7.288  1.00  0.00     0.167 HD
HETATM   12  C7  UNL     1      36.263  -6.103   9.238  1.00  0.00     0.066 A 
HETATM   13  C8  UNL     1      36.543  -4.824   9.671  1.00  0.00     0.062 A 
HETATM   14  N5  UNL     1      36.721  -4.077   8.572  1.00  0.00    -0.283 N 
HETATM   15  C9  UNL     1      37.015  -2.778   8.353  1.00  0.00     0.147 A 
HETATM   16  N6  UNL     1      37.194  -1.931   9.489  1.00  0.00    -0.080 NA
HETATM   17  C10 UNL     1      36.636  -4.348  11.019  1.00  0.00     0.145 C 
HETATM   18  C11 UNL     1      38.024  -4.412  11.557  1.00  0.00     0.070 C 
HETATM   19  N7  UNL     1      39.114  -4.451  11.961  1.00  0.00    -0.197 NA
HETATM   20  C12 UNL     1      35.838  -5.203  12.033  1.00  0.00     0.025 C 
HETATM   21  C13 UNL     1      36.386  -6.596  12.125  1.00  0.00     0.004 C 
HETATM   22  C14 UNL     1      35.443  -7.399  11.240  1.00  0.00     0.039 C 
HETATM   23  C15 UNL     1      35.979  -7.393   9.874  1.00  0.00     0.235 C 
ENDROOT
BRANCH  23  24
HETATM   24  N8  UNL     1      37.158  -8.276   9.847  1.00  0.00    -0.070 N 
ATOM     25  H83 UNL     1      37.942  -7.837   9.366  1.00  0.00     0.275 HD
ATOM     26  H82 UNL     1      37.575  -8.370  10.773  1.00  0.00     0.275 HD
ATOM     27  H81 UNL     1      36.932  -9.185   9.444  1.00  0.00     0.275 HD
ENDBRANCH  23  24
TORSDOF 1
ENDMDL
MODEL 2
REMARK VINA RESULT: -8.981885836      1.721      5.395
REMARK  1 active torsions:
REMARK  status: ('A' for Active; 'I' for Inactive)
REMARK    1  A    between atoms: C15_23  and  N8_24 
ROOT
HETATM    1  N1  UNL     1      35.753  -1.407  12.791  1.00  0.00    -0.191 NA
HETATM    2  C1  UNL     1      35.974  -2.244  12.033  1.00  0.00     0.105 C 
HETATM    3  C2  UNL     1      36.246  -3.292  11.086  1.00  0.00     0.112 A 
HETATM    4  C3  UNL     1      36.064  -4.613  11.352  1.00  0.00     0.095 A 
HETATM    5  N2  UNL     1      35.578  -5.004  12.630  1.00  0.00    -0.099 NA
HETATM    6  C4  UNL     1      36.351  -5.539  10.388  1.00  0.00     0.115 A 
HETATM    7  C5  UNL     1      36.162  -6.949  10.657  1.00  0.00     0.105 C 
HETATM    8  N3  UNL     1      36.018  -8.077  10.891  1.00  0.00    -0.191 NA
HETATM    9  C6  UNL     1      36.823  -5.127   9.152  1.00  0.00     0.137 A 
HETATM   10  N4  UNL     1      37.162  -5.823   8.081  1.00  0.00    -0.341 N 
ATOM     11  H4  UNL     1      37.120  -6.839   8.008  1.00  0.00     0.167 HD
HETATM   12  C7  UNL     1      37.569  -4.996   7.099  1.00  0.00     0.066 A 
HETATM   13  C8  UNL     1      37.476  -3.711   7.592  1.00  0.00     0.062 A 
HETATM   14  N5  UNL     1      37.019  -3.815   8.849  1.00  0.00    -0.283 N 
HETATM   15  C9  UNL     1      36.726  -2.925   9.821  1.00  0.00     0.147 A 
HETATM   16  N6  UNL     1      36.915  -1.538   9.538  1.00  0.00    -0.080 NA
HETATM   17  C10 UNL     1      37.794  -2.484   6.925  1.00  0.00     0.145 C 
HETATM   18  C11 UNL     1      36.618  -1.884   6.235  1.00  0.00     0.070 C 
HETATM   19  N7  UNL     1      35.690  -1.415   5.713  1.00  0.00    -0.197 NA
HETATM   20  C12 UNL     1      38.816  -2.653   5.775  1.00  0.00     0.025 C 
HETATM   21  C13 UNL     1      38.263  -3.505   4.673  1.00  0.00     0.004 C 
HETATM   22  C14 UNL     1      38.879  -4.870   4.948  1.00  0.00     0.039 C 
HETATM   23  C15 UNL     1      37.973  -5.613   5.832  1.00  0.00     0.235 C 
ENDROOT
BRANCH  23  24
HETATM   24  N8  UNL     1      36.803  -6.023   5.038  1.00  0.00    -0.070 N 
ATOM     25  H83 UNL     1      37.081  -6.472   4.165  1.00  0.00     0.275 HD
ATOM     26  H82 UNL     1      36.315  -6.808   5.469  1.00  0.00     0.275 HD
ATOM     27  H81 UNL     1      36.174  -5.237   4.871  1.00  0.00     0.275 HD
ENDBRANCH  23  24
TORSDOF 1
ENDMDL
MODEL 3
REMARK VINA RESULT: -8.942459078      1.937      5.517
REMARK  1 active torsions:
REMARK  status: ('A' for Active; 'I' for Inactive)
REMARK    1  A    between atoms: C15_23  and  N8_24 
ROOT
HETATM    1  N1  UNL     1      35.466  -2.742  12.672  1.00  0.00    -0.191 NA
HETATM    2  C1  UNL     1      35.719  -3.627  11.981  1.00  0.00     0.105 C 
HETATM    3  C2  UNL     1      36.030  -4.735  11.118  1.00  0.00     0.112 A 
HETATM    4  C3  UNL     1      35.937  -6.035  11.500  1.00  0.00     0.095 A 
HETATM    5  N2  UNL     1      35.509  -6.343  12.820  1.00  0.00    -0.099 NA
HETATM    6  C4  UNL     1      36.255  -7.022  10.609  1.00  0.00     0.115 A 
HETATM    7  C5  UNL     1      36.159  -8.413  11.001  1.00  0.00     0.105 C 
HETATM    8  N3  UNL     1      36.090  -9.524  11.334  1.00  0.00    -0.191 NA
HETATM    9  C6  UNL     1      36.669  -6.692   9.328  1.00  0.00     0.137 A 
HETATM   10  N4  UNL     1      37.021  -7.456   8.310  1.00  0.00    -0.341 N 
ATOM     11  H4  UNL     1      37.040  -8.476   8.325  1.00  0.00     0.167 HD
HETATM   12  C7  UNL     1      37.352  -6.694   7.250  1.00  0.00     0.066 A 
HETATM   13  C8  UNL     1      37.194  -5.380   7.635  1.00  0.00     0.062 A 
HETATM   14  N5  UNL     1      36.776  -5.401   8.910  1.00  0.00    -0.283 N 
HETATM   15  C9  UNL     1      36.454  -4.450   9.812  1.00  0.00     0.147 A 
HETATM   16  N6  UNL     1      36.550  -3.084   9.408  1.00  0.00    -0.080 NA
HETATM   17  C10 UNL     1      37.418  -4.198   6.858  1.00  0.00     0.145 C 
HETATM   18  C11 UNL     1      36.191  -3.730   6.156  1.00  0.00     0.070 C 
HETATM   19  N7  UNL     1      35.222  -3.363   5.626  1.00  0.00    -0.197 NA
HETATM   20  C12 UNL     1      38.419  -4.404   5.695  1.00  0.00     0.025 C 
HETATM   21  C13 UNL     1      37.891  -5.380   4.686  1.00  0.00     0.004 C 
HETATM   22  C14 UNL     1      38.596  -6.677   5.056  1.00  0.00     0.039 C 
HETATM   23  C15 UNL     1      37.761  -7.393   6.027  1.00  0.00     0.235 C 
ENDROOT
BRANCH  23  24
HETATM   24  N8  UNL     1      36.597  -7.938   5.307  1.00  0.00    -0.070 N 
ATOM     25  H83 UNL     1      36.159  -7.232   4.715  1.00  0.00     0.275 HD
ATOM     26  H82 UNL     1      36.881  -8.596   4.582  1.00  0.00     0.275 HD
ATOM     27  H81 UNL     1      35.925  -8.357   5.950  1.00  0.00     0.275 HD
ENDBRANCH  23  24
TORSDOF 1
ENDMDL
MODEL 4
REMARK VINA RESULT: -8.751264280      1.070      1.267
REMARK  1 active torsions:
REMARK  status: ('A' for Active; 'I' for Inactive)
REMARK    1  A    between atoms: C15_23  and  N8_24 
ROOT
HETATM    1  N1  UNL     1      37.846  -1.289   5.630  1.00  0.00    -0.191 NA
HETATM    2  C1  UNL     1      37.530  -2.328   6.010  1.00  0.00     0.105 C 
HETATM    3  C2  UNL     1      37.139  -3.629   6.483  1.00  0.00     0.112 A 
HETATM    4  C3  UNL     1      36.920  -4.692   5.665  1.00  0.00     0.095 A 
HETATM    5  N2  UNL     1      37.081  -4.534   4.262  1.00  0.00    -0.099 NA
HETATM    6  C4  UNL     1      36.549  -5.892   6.207  1.00  0.00     0.115 A 
HETATM    7  C5  UNL     1      36.313  -7.034   5.349  1.00  0.00     0.105 C 
HETATM    8  N3  UNL     1      36.114  -7.938   4.647  1.00  0.00    -0.191 NA
HETATM    9  C6  UNL     1      36.401  -6.016   7.579  1.00  0.00     0.137 A 
HETATM   10  N4  UNL     1      36.060  -7.054   8.322  1.00  0.00    -0.341 N 
ATOM     11  H4  UNL     1      35.841  -7.982   7.961  1.00  0.00     0.167 HD
HETATM   12  C7  UNL     1      36.044  -6.709   9.623  1.00  0.00     0.066 A 
HETATM   13  C8  UNL     1      36.397  -5.378   9.691  1.00  0.00     0.062 A 
HETATM   14  N5  UNL     1      36.611  -4.974   8.430  1.00  0.00    -0.283 N 
HETATM   15  C9  UNL     1      36.975  -3.803   7.865  1.00  0.00     0.147 A 
HETATM   16  N6  UNL     1      37.208  -2.688   8.726  1.00  0.00    -0.080 NA
HETATM   17  C10 UNL     1      36.525  -4.556  10.857  1.00  0.00     0.145 C 
HETATM   18  C11 UNL     1      37.909  -4.546  11.405  1.00  0.00     0.070 C 
HETATM   19  N7  UNL     1      38.998  -4.532  11.815  1.00  0.00    -0.197 NA
HETATM   20  C12 UNL     1      35.685  -5.053  12.058  1.00  0.00     0.025 C 
HETATM   21  C13 UNL     1      36.155  -6.395  12.535  1.00  0.00     0.004 C 
HETATM   22  C14 UNL     1      35.164  -7.357  11.896  1.00  0.00     0.039 C 
HETATM   23  C15 UNL     1      35.691  -7.757  10.587  1.00  0.00     0.235 C 
ENDROOT
BRANCH  23  24
HETATM   24  N8  UNL     1      36.819  -8.676  10.816  1.00  0.00    -0.070 N 
ATOM     25  H83 UNL     1      36.613  -9.614  10.472  1.00  0.00     0.275 HD
ATOM     26  H82 UNL     1      37.609  -8.458  10.209  1.00  0.00     0.275 HD
ATOM     27  H81 UNL     1      37.094  -8.689  11.798  1.00  0.00     0.275 HD
ENDBRANCH  23  24
TORSDOF 1
ENDMDL
MODEL 5
REMARK VINA RESULT: -8.614104589      1.575      2.285
REMARK  1 active torsions:
REMARK  status: ('A' for Active; 'I' for Inactive)
REMARK    1  A    between atoms: C15_23  and  N8_24 
ROOT
HETATM    1  N1  UNL     1      37.560   2.048   9.492  1.00  0.00    -0.191 NA
HETATM    2  C1  UNL     1      37.506   1.013   8.992  1.00  0.00     0.105 C 
HETATM    3  C2  UNL     1      37.442  -0.279   8.364  1.00  0.00     0.112 A 
HETATM    4  C3  UNL     1      37.593  -0.475   7.028  1.00  0.00     0.095 A 
HETATM    5  N2  UNL     1      37.828   0.644   6.184  1.00  0.00    -0.099 NA
HETATM    6  C4  UNL     1      37.515  -1.743   6.522  1.00  0.00     0.115 A 
HETATM    7  C5  UNL     1      37.675  -1.968   5.100  1.00  0.00     0.105 C 
HETATM    8  N3  UNL     1      37.791  -2.131   3.956  1.00  0.00    -0.191 NA
HETATM    9  C6  UNL     1      37.286  -2.815   7.370  1.00  0.00     0.137 A 
HETATM   10  N4  UNL     1      37.175  -4.107   7.119  1.00  0.00    -0.341 N 
ATOM     11  H4  UNL     1      37.249  -4.530   6.194  1.00  0.00     0.167 HD
HETATM   12  C7  UNL     1      36.952  -4.784   8.261  1.00  0.00     0.066 A 
HETATM   13  C8  UNL     1      36.923  -3.856   9.280  1.00  0.00     0.062 A 
HETATM   14  N5  UNL     1      37.129  -2.658   8.713  1.00  0.00    -0.283 N 
HETATM   15  C9  UNL     1      37.211  -1.395   9.182  1.00  0.00     0.147 A 
HETATM   16  N6  UNL     1      37.056  -1.191  10.587  1.00  0.00    -0.080 NA
HETATM   17  C10 UNL     1      36.719  -4.085  10.679  1.00  0.00     0.145 C 
HETATM   18  C11 UNL     1      37.995  -4.280  11.422  1.00  0.00     0.070 C 
HETATM   19  N7  UNL     1      38.999  -4.414  11.995  1.00  0.00    -0.197 NA
HETATM   20  C12 UNL     1      35.944  -5.389  10.985  1.00  0.00     0.025 C 
HETATM   21  C13 UNL     1      36.716  -6.599  10.551  1.00  0.00     0.004 C 
HETATM   22  C14 UNL     1      36.083  -6.953   9.212  1.00  0.00     0.039 C 
HETATM   23  C15 UNL     1      36.813  -6.241   8.157  1.00  0.00     0.235 C 
ENDROOT
BRANCH  23  24
HETATM   24  N8  UNL     1      38.123  -6.894   7.994  1.00  0.00    -0.070 N 
ATOM     25  H83 UNL     1      38.772  -6.305   7.472  1.00  0.00     0.275 HD
ATOM     26  H82 UNL     1      38.629  -6.941   8.878  1.00  0.00     0.275 HD
ATOM     27  H81 UNL     1      38.028  -7.816   7.568  1.00  0.00     0.275 HD
ENDBRANCH  23  24
TORSDOF 1
ENDMDL
