MODEL 1
REMARK VINA RESULT: -7.727674889      0.000      0.000
REMARK  3 active torsions:
REMARK  status: ('A' for Active; 'I' for Inactive)
REMARK    1  A    between atoms: N1_1  and  C1_5 
REMARK    2  A    between atoms: C6_13  and  C7_14 
REMARK    3  A    between atoms: C13_26  and  O1_27 
ROOT
HETATM    1  C1  UNL     1      35.171   1.274   5.663  1.00  0.00     0.383 C 
HETATM    2  N2  UNL     1      35.562   2.457   6.317  1.00  0.00    -0.346 N 
ATOM      3  H2  UNL     1      34.967   3.281   6.238  1.00  0.00     0.163 HD
HETATM    4  C2  UNL     1      36.782   2.549   7.102  1.00  0.00     0.047 A 
HETATM    5  C3  UNL     1      37.303   3.642   7.718  1.00  0.00     0.037 A 
HETATM    6  C4  UNL     1      38.468   3.463   8.402  1.00  0.00     0.052 A 
HETATM    7  S1  UNL     1      38.810   1.809   8.181  1.00  0.00    -0.102 SA
HETATM    8  C5  UNL     1      37.464   1.379   7.223  1.00  0.00     0.037 A 
HETATM    9  C6  UNL     1      37.059   0.072   6.631  1.00  0.00     0.177 C 
HETATM   10  N6  UNL     1      35.963   0.138   5.777  1.00  0.00    -0.366 N 
ATOM     11  H6  UNL     1      35.732  -0.679   5.212  1.00  0.00     0.158 HD
ENDROOT
BRANCH   9  12
HETATM   12  C7  UNL     1      36.941  -0.999   7.685  1.00  0.00     0.090 A 
HETATM   13  N3  UNL     1      36.564  -0.712   8.929  1.00  0.00    -0.338 N 
HETATM   14  C8  UNL     1      36.488  -1.739   9.824  1.00  0.00     0.132 A 
ATOM     15  H3  UNL     1      36.339   0.244   9.204  1.00  0.00     0.167 HD
HETATM   16  N4  UNL     1      36.112  -1.505  11.098  1.00  0.00    -0.350 N 
HETATM   17  C12 UNL     1      36.782  -3.042   9.488  1.00  0.00     0.078 A 
HETATM   18  C9  UNL     1      36.016  -2.463  12.026  1.00  0.00     0.090 A 
ATOM     19  H4  UNL     1      35.890  -0.548  11.368  1.00  0.00     0.166 HD
HETATM   20  C10 UNL     1      36.310  -3.761  11.689  1.00  0.00     0.019 A 
HETATM   21  C11 UNL     1      36.699  -4.070  10.412  1.00  0.00     0.035 A 
HETATM   22  N5  UNL     1      37.168  -3.332   8.211  1.00  0.00    -0.332 N 
HETATM   23  C13 UNL     1      37.237  -2.310   7.346  1.00  0.00     0.166 A 
ATOM     24  H5  UNL     1      37.393  -4.285   7.927  1.00  0.00     0.168 HD
BRANCH  23  25
HETATM   25  O1  UNL     1      37.634  -2.604   6.030  1.00  0.00    -0.345 OA
ATOM     26  H1  UNL     1      37.861  -3.499   5.804  1.00  0.00     0.219 HD
ENDBRANCH  23  25
ENDBRANCH   9  12
BRANCH   1  27
HETATM   27  N1  UNL     1      35.048   1.588   4.225  1.00  0.00    -0.041 N 
ATOM     28  H13 UNL     1      35.432   2.502   3.982  1.00  0.00     0.279 HD
ATOM     29  H12 UNL     1      35.666   1.025   3.640  1.00  0.00     0.279 HD
ATOM     30  H11 UNL     1      34.064   1.489   3.977  1.00  0.00     0.279 HD
ENDBRANCH   1  27
TORSDOF 3
ENDMDL
MODEL 2
REMARK VINA RESULT: -7.539960168      3.161      4.541
REMARK  3 active torsions:
REMARK  status: ('A' for Active; 'I' for Inactive)
REMARK    1  A    between atoms: N1_1  and  C1_5 
REMARK    2  A    between atoms: C6_13  and  C7_14 
REMARK    3  A    between atoms: C13_26  and  O1_27 
ROOT
HETATM    1  C1  UNL     1      38.448  -0.082   8.970  1.00  0.00     0.383 C 
HETATM    2  N2  UNL     1      38.732  -0.526   7.666  1.00  0.00    -0.346 N 
ATOM      3  H2  UNL     1      39.583  -0.197   7.209  1.00  0.00     0.163 HD
HETATM    4  C2  UNL     1      37.859  -1.437   6.944  1.00  0.00     0.047 A 
HETATM    5  C3  UNL     1      37.983  -1.880   5.665  1.00  0.00     0.037 A 
HETATM    6  C4  UNL     1      37.024  -2.741   5.220  1.00  0.00     0.052 A 
HETATM    7  S1  UNL     1      35.990  -2.915   6.563  1.00  0.00    -0.102 SA
HETATM    8  C5  UNL     1      36.798  -1.889   7.662  1.00  0.00     0.037 A 
HETATM    9  C6  UNL     1      36.489  -1.529   9.075  1.00  0.00     0.177 C 
HETATM   10  N6  UNL     1      37.303  -0.536   9.611  1.00  0.00    -0.366 N 
ATOM     11  H6  UNL     1      37.048  -0.126  10.510  1.00  0.00     0.158 HD
ENDROOT
BRANCH   9  12
HETATM   12  C7  UNL     1      36.376  -2.754   9.947  1.00  0.00     0.090 A 
HETATM   13  N3  UNL     1      36.623  -3.972   9.468  1.00  0.00    -0.338 N 
HETATM   14  C8  UNL     1      36.492  -5.029  10.321  1.00  0.00     0.132 A 
ATOM     15  H3  UNL     1      36.900  -4.110   8.496  1.00  0.00     0.167 HD
HETATM   16  N4  UNL     1      36.729  -6.285   9.890  1.00  0.00    -0.350 N 
HETATM   17  C12 UNL     1      36.121  -4.880  11.639  1.00  0.00     0.078 A 
HETATM   18  C9  UNL     1      36.621  -7.366  10.669  1.00  0.00     0.090 A 
ATOM     19  H4  UNL     1      37.005  -6.418   8.917  1.00  0.00     0.166 HD
HETATM   20  C10 UNL     1      36.250  -7.215  11.983  1.00  0.00     0.019 A 
HETATM   21  C11 UNL     1      35.993  -5.967  12.488  1.00  0.00     0.035 A 
HETATM   22  N5  UNL     1      35.870  -3.630  12.125  1.00  0.00    -0.332 N 
HETATM   23  C13 UNL     1      36.002  -2.604  11.272  1.00  0.00     0.166 A 
ATOM     24  H5  UNL     1      35.592  -3.482  13.095  1.00  0.00     0.168 HD
BRANCH  23  25
HETATM   25  O1  UNL     1      35.745  -1.314  11.769  1.00  0.00    -0.345 OA
ATOM     26  H1  UNL     1      35.720  -1.177  12.709  1.00  0.00     0.219 HD
ENDBRANCH  23  25
ENDBRANCH   9  12
BRANCH   1  27
HETATM   27  N1  UNL     1      38.379   1.392   8.927  1.00  0.00    -0.041 N 
ATOM     28  H13 UNL     1      38.922   1.795   8.163  1.00  0.00     0.279 HD
ATOM     29  H12 UNL     1      37.464   1.740   8.635  1.00  0.00     0.279 HD
ATOM     30  H11 UNL     1      38.663   1.737   9.844  1.00  0.00     0.279 HD
ENDBRANCH   1  27
TORSDOF 3
ENDMDL
MODEL 3
REMARK VINA RESULT: -6.988745283      1.136      1.333
REMARK  3 active torsions:
REMARK  status: ('A' for Active; 'I' for Inactive)
REMARK    1  A    between atoms: N1_1  and  C1_5 
REMARK    2  A    between atoms: C6_13  and  C7_14 
REMARK    3  A    between atoms: C13_26  and  O1_27 
ROOT
HETATM    1  C1  UNL     1      36.800  -0.336   4.902  1.00  0.00     0.383 C 
HETATM    2  N2  UNL     1      36.548   0.985   5.315  1.00  0.00    -0.346 N 
ATOM      3  H2  UNL     1      35.962   1.579   4.729  1.00  0.00     0.163 HD
HETATM    4  C2  UNL     1      37.093   1.536   6.545  1.00  0.00     0.047 A 
HETATM    5  C3  UNL     1      36.984   2.806   7.014  1.00  0.00     0.037 A 
HETATM    6  C4  UNL     1      37.588   3.071   8.208  1.00  0.00     0.052 A 
HETATM    7  S1  UNL     1      38.280   1.577   8.645  1.00  0.00    -0.102 SA
HETATM    8  C5  UNL     1      37.788   0.646   7.301  1.00  0.00     0.037 A 
HETATM    9  C6  UNL     1      38.015  -0.788   6.967  1.00  0.00     0.177 C 
HETATM   10  N6  UNL     1      37.582  -1.163   5.699  1.00  0.00    -0.366 N 
ATOM     11  H6  UNL     1      37.850  -2.080   5.341  1.00  0.00     0.158 HD
ENDROOT
BRANCH   9  12
HETATM   12  C7  UNL     1      37.526  -1.697   8.065  1.00  0.00     0.090 A 
HETATM   13  N3  UNL     1      37.045  -1.210   9.208  1.00  0.00    -0.338 N 
HETATM   14  C8  UNL     1      36.628  -2.100  10.154  1.00  0.00     0.132 A 
ATOM     15  H3  UNL     1      36.989  -0.204   9.370  1.00  0.00     0.167 HD
HETATM   16  N4  UNL     1      36.133  -1.662  11.330  1.00  0.00    -0.350 N 
HETATM   17  C12 UNL     1      36.686  -3.464   9.969  1.00  0.00     0.078 A 
HETATM   18  C9  UNL     1      35.706  -2.477  12.300  1.00  0.00     0.090 A 
ATOM     19  H4  UNL     1      36.081  -0.656  11.487  1.00  0.00     0.166 HD
HETATM   20  C10 UNL     1      35.766  -3.836  12.114  1.00  0.00     0.019 A 
HETATM   21  C11 UNL     1      36.259  -4.351  10.943  1.00  0.00     0.035 A 
HETATM   22  N5  UNL     1      37.180  -3.959   8.797  1.00  0.00    -0.332 N 
HETATM   23  C13 UNL     1      37.585  -3.068   7.880  1.00  0.00     0.166 A 
ATOM     24  H5  UNL     1      37.238  -4.962   8.626  1.00  0.00     0.168 HD
BRANCH  23  25
HETATM   25  O1  UNL     1      38.094  -3.574   6.670  1.00  0.00    -0.345 OA
ATOM     26  H1  UNL     1      38.009  -3.055   5.879  1.00  0.00     0.219 HD
ENDBRANCH  23  25
ENDBRANCH   9  12
BRANCH   1  27
HETATM   27  N1  UNL     1      37.438  -0.267   3.572  1.00  0.00    -0.041 N 
ATOM     28  H13 UNL     1      36.773  -0.089   2.819  1.00  0.00     0.279 HD
ATOM     29  H12 UNL     1      38.008   0.570   3.446  1.00  0.00     0.279 HD
ATOM     30  H11 UNL     1      37.966  -1.131   3.444  1.00  0.00     0.279 HD
ENDBRANCH   1  27
TORSDOF 3
ENDMDL
MODEL 4
REMARK VINA RESULT: -6.852625738      5.214      6.791
REMARK  3 active torsions:
REMARK  status: ('A' for Active; 'I' for Inactive)
REMARK    1  A    between atoms: N1_1  and  C1_5 
REMARK    2  A    between atoms: C6_13  and  C7_14 
REMARK    3  A    between atoms: C13_26  and  O1_27 
ROOT
HETATM    1  C1  UNL     1      35.469  -7.004   4.441  1.00  0.00     0.383 C 
HETATM    2  N2  UNL     1      35.257  -5.618   4.560  1.00  0.00    -0.346 N 
ATOM      3  H2  UNL     1      34.573  -5.172   3.949  1.00  0.00     0.163 HD
HETATM    4  C2  UNL     1      35.976  -4.799   5.522  1.00  0.00     0.047 A 
HETATM    5  C3  UNL     1      35.915  -3.451   5.685  1.00  0.00     0.037 A 
HETATM    6  C4  UNL     1      36.693  -2.918   6.670  1.00  0.00     0.052 A 
HETATM    7  S1  UNL     1      37.477  -4.276   7.337  1.00  0.00    -0.102 SA
HETATM    8  C5  UNL     1      36.800  -5.493   6.350  1.00  0.00     0.037 A 
HETATM    9  C6  UNL     1      37.002  -6.970   6.336  1.00  0.00     0.177 C 
HETATM   10  N6  UNL     1      36.384  -7.629   5.279  1.00  0.00    -0.366 N 
ATOM     11  H6  UNL     1      36.612  -8.610   5.113  1.00  0.00     0.158 HD
ENDROOT
BRANCH   9  12
HETATM   12  C7  UNL     1      36.711  -7.581   7.683  1.00  0.00     0.090 A 
HETATM   13  N3  UNL     1      36.313  -6.836   8.713  1.00  0.00    -0.338 N 
HETATM   14  C8  UNL     1      36.076  -7.465   9.899  1.00  0.00     0.132 A 
ATOM     15  H3  UNL     1      36.188  -5.828   8.616  1.00  0.00     0.167 HD
HETATM   16  N4  UNL     1      35.671  -6.760  10.975  1.00  0.00    -0.350 N 
HETATM   17  C12 UNL     1      36.232  -8.824  10.065  1.00  0.00     0.078 A 
HETATM   18  C9  UNL     1      35.420  -7.311  12.167  1.00  0.00     0.090 A 
ATOM     19  H4  UNL     1      35.549  -5.753  10.874  1.00  0.00     0.166 HD
HETATM   20  C10 UNL     1      35.578  -8.665  12.330  1.00  0.00     0.019 A 
HETATM   21  C11 UNL     1      35.987  -9.444  11.279  1.00  0.00     0.035 A 
HETATM   22  N5  UNL     1      36.641  -9.583   9.007  1.00  0.00    -0.332 N 
HETATM   23  C13 UNL     1      36.869  -8.947   7.850  1.00  0.00     0.166 A 
ATOM     24  H5  UNL     1      36.767 -10.592   9.094  1.00  0.00     0.168 HD
BRANCH  23  25
HETATM   25  O1  UNL     1      37.290  -9.726   6.757  1.00  0.00    -0.345 OA
ATOM     26  H1  UNL     1      37.077 -10.652   6.739  1.00  0.00     0.219 HD
ENDBRANCH  23  25
ENDBRANCH   9  12
BRANCH   1  27
HETATM   27  N1  UNL     1      35.889  -7.266   3.050  1.00  0.00    -0.041 N 
ATOM     28  H13 UNL     1      35.108  -7.278   2.393  1.00  0.00     0.279 HD
ATOM     29  H12 UNL     1      36.400  -6.487   2.634  1.00  0.00     0.279 HD
ATOM     30  H11 UNL     1      36.422  -8.136   3.052  1.00  0.00     0.279 HD
ENDBRANCH   1  27
TORSDOF 3
ENDMDL
MODEL 5
REMARK VINA RESULT: -6.842433061      4.120      8.019
REMARK  3 active torsions:
REMARK  status: ('A' for Active; 'I' for Inactive)
REMARK    1  A    between atoms: N1_1  and  C1_5 
REMARK    2  A    between atoms: C6_13  and  C7_14 
REMARK    3  A    between atoms: C13_26  and  O1_27 
ROOT
HETATM    1  C1  UNL     1      35.804  -7.460  11.619  1.00  0.00     0.383 C 
HETATM    2  N2  UNL     1      35.643  -8.396  10.581  1.00  0.00    -0.346 N 
ATOM      3  H2  UNL     1      34.960  -9.144  10.696  1.00  0.00     0.163 HD
HETATM    4  C2  UNL     1      36.414  -8.335   9.350  1.00  0.00     0.047 A 
HETATM    5  C3  UNL     1      36.404  -9.211   8.311  1.00  0.00     0.037 A 
HETATM    6  C4  UNL     1      37.224  -8.923   7.260  1.00  0.00     0.052 A 
HETATM    7  S1  UNL     1      37.977  -7.468   7.728  1.00  0.00    -0.102 SA
HETATM    8  C5  UNL     1      37.233  -7.256   9.251  1.00  0.00     0.037 A 
HETATM    9  C6  UNL     1      37.384  -6.182  10.274  1.00  0.00     0.177 C 
HETATM   10  N6  UNL     1      36.717  -6.424  11.470  1.00  0.00    -0.366 N 
ATOM     11  H6  UNL     1      36.906  -5.818  12.268  1.00  0.00     0.158 HD
ENDROOT
BRANCH   9  12
HETATM   12  C7  UNL     1      37.106  -4.820   9.691  1.00  0.00     0.090 A 
HETATM   13  N3  UNL     1      36.581  -4.678   8.476  1.00  0.00    -0.338 N 
HETATM   14  C8  UNL     1      36.366  -3.410   8.020  1.00  0.00     0.132 A 
ATOM     15  H3  UNL     1      36.347  -5.490   7.905  1.00  0.00     0.167 HD
HETATM   16  N4  UNL     1      35.836  -3.207   6.796  1.00  0.00    -0.350 N 
HETATM   17  C12 UNL     1      36.667  -2.290   8.764  1.00  0.00     0.078 A 
HETATM   18  C9  UNL     1      35.598  -1.994   6.287  1.00  0.00     0.090 A 
ATOM     19  H4  UNL     1      35.606  -4.022   6.229  1.00  0.00     0.166 HD
HETATM   20  C10 UNL     1      35.901  -0.880   7.030  1.00  0.00     0.019 A 
HETATM   21  C11 UNL     1      36.441  -1.012   8.282  1.00  0.00     0.035 A 
HETATM   22  N5  UNL     1      37.205  -2.441  10.009  1.00  0.00    -0.332 N 
HETATM   23  C13 UNL     1      37.410  -3.694  10.439  1.00  0.00     0.166 A 
ATOM     24  H5  UNL     1      37.441  -1.635  10.588  1.00  0.00     0.168 HD
BRANCH  23  25
HETATM   25  O1  UNL     1      37.964  -3.854  11.722  1.00  0.00    -0.345 OA
ATOM     26  H1  UNL     1      37.451  -3.603  12.482  1.00  0.00     0.219 HD
ENDBRANCH  23  25
ENDBRANCH   9  12
BRANCH   1  27
HETATM   27  N1  UNL     1      36.180  -8.213  12.834  1.00  0.00    -0.041 N 
ATOM     28  H13 UNL     1      36.845  -8.964  12.648  1.00  0.00     0.279 HD
ATOM     29  H12 UNL     1      36.765  -7.673  13.472  1.00  0.00     0.279 HD
ATOM     30  H11 UNL     1      35.316  -8.542  13.266  1.00  0.00     0.279 HD
ENDBRANCH   1  27
TORSDOF 3
ENDMDL
