MODEL 1
REMARK VINA RESULT: -9.272704162      0.000      0.000
REMARK  11 active torsions:
REMARK  status: ('A' for Active; 'I' for Inactive)
REMARK    1  A    between atoms: N1_1  and  C1_4 
REMARK    2  A    between atoms: N2_5  and  N3_7 
REMARK    3  A    between atoms: N3_7  and  C2_9 
REMARK    4  A    between atoms: N5_12  and  O1_13 
REMARK    5  A    between atoms: C5_17  and  N6_18 
REMARK    6  A    between atoms: C6_26  and  C7_27 
REMARK    7  A    between atoms: C7_27  and  N10_28 
REMARK    8  A    between atoms: N10_28  and  C8_30 
REMARK    9  A    between atoms: C9_31  and  O4_32 
REMARK   10  A    between atoms: C10_36  and  N12_37 
REMARK   11  A    between atoms: C11_42  and  N14_43 
ROOT
HETATM    1  C2  UNL     1     -14.049   9.800  27.227  1.00  0.00     0.723 A 
HETATM    2  N4  UNL     1     -13.364  10.981  27.332  1.00  0.00    -0.102 N 
ATOM      3  H4  UNL     1     -12.778  11.384  26.601  1.00  0.00     0.208 HD
HETATM    4  N5  UNL     1     -13.571  11.513  28.506  1.00  0.00    -0.131 N 
HETATM    5  C3  UNL     1     -14.384  10.702  29.185  1.00  0.00     0.181 A 
HETATM    6  C4  UNL     1     -14.888  10.830  30.458  1.00  0.00     0.110 A 
HETATM    7  C5  UNL     1     -15.714   9.863  30.952  1.00  0.00     0.201 A 
HETATM    8  N7  UNL     1     -15.988   8.830  30.147  1.00  0.00    -0.200 N 
HETATM    9  N8  UNL     1     -16.761   7.761  30.381  1.00  0.00    -0.232 N 
ATOM     10  H8  UNL     1     -17.271   7.580  31.246  1.00  0.00     0.209 HD
HETATM   11  N9  UNL     1     -16.760   6.994  29.337  1.00  0.00    -0.284 N 
ATOM     12  H9  UNL     1     -17.273   6.115  29.264  1.00  0.00     0.188 HD
HETATM   13  C6  UNL     1     -15.975   7.525  28.340  1.00  0.00     0.091 A 
HETATM   14  C12 UNL     1     -15.501   8.686  28.885  1.00  0.00     0.181 A 
HETATM   15  N15 UNL     1     -14.672   9.642  28.372  1.00  0.00    -0.107 N 
ENDROOT
BRANCH  13  16
HETATM   16  C7  UNL     1     -15.785   6.913  27.027  1.00  0.00     0.182 C 
BRANCH  16  17
HETATM   17  N10 UNL     1     -16.972   6.885  26.181  1.00  0.00    -0.378 N 
ATOM     18  H10 UNL     1     -16.864   7.329  25.269  1.00  0.00     0.160 HD
BRANCH  17  19
HETATM   19  C8  UNL     1     -18.227   6.347  26.426  1.00  0.00     0.125 A 
HETATM   20  C9  UNL     1     -19.315   7.136  26.843  1.00  0.00     0.185 A 
HETATM   21  N11 UNL     1     -20.516   6.592  27.051  1.00  0.00    -0.168 N 
HETATM   22  C10 UNL     1     -20.745   5.280  26.877  1.00  0.00     0.679 A 
ATOM     23  H11 UNL     1     -21.285   7.192  27.352  1.00  0.00     0.186 HD
HETATM   24  N13 UNL     1     -19.707   4.534  26.484  1.00  0.00    -0.175 N 
HETATM   25  C11 UNL     1     -18.458   5.005  26.250  1.00  0.00     0.145 A 
ATOM     26  H13 UNL     1     -19.867   3.535  26.349  1.00  0.00     0.186 HD
BRANCH  20  27
HETATM   27  O4  UNL     1     -19.106   8.495  27.033  1.00  0.00    -0.344 OA
ATOM     28  H4  UNL     1     -19.480   8.904  27.805  1.00  0.00     0.219 HD
ENDBRANCH  20  27
BRANCH  22  29
HETATM   29  N12 UNL     1     -21.930   4.764  27.086  1.00  0.00    -0.234 N 
ATOM     30 2H12 UNL     1     -22.784   5.234  26.787  1.00  0.00     0.174 HD
ATOM     31 1H12 UNL     1     -22.039   3.867  27.559  1.00  0.00     0.174 HD
ENDBRANCH  22  29
BRANCH  25  32
HETATM   32  N14 UNL     1     -17.556   4.139  25.889  1.00  0.00    -0.383 N 
ATOM     33 2H14 UNL     1     -16.616   4.494  25.711  1.00  0.00     0.157 HD
ATOM     34 1H14 UNL     1     -17.727   3.142  25.760  1.00  0.00     0.157 HD
ENDBRANCH  25  32
ENDBRANCH  17  19
ENDBRANCH  16  17
ENDBRANCH  13  16
BRANCH   7  35
HETATM   35  N6  UNL     1     -16.274   9.922  32.256  1.00  0.00    -0.096 N 
HETATM   36  O2  UNL     1     -15.514  10.243  33.191  1.00  0.00    -0.530 OA
HETATM   37  O3  UNL     1     -17.572   9.652  32.536  1.00  0.00    -0.530 OA
ENDBRANCH   7  35
BRANCH   1  38
HETATM   38  N3  UNL     1     -13.972   9.145  26.168  1.00  0.00    -0.129 N 
ATOM     39  H3  UNL     1     -13.712   8.166  26.291  1.00  0.00     0.205 HD
BRANCH  38  40
HETATM   40  N2  UNL     1     -14.175   9.520  24.876  1.00  0.00    -0.282 N 
HETATM   41  C1  UNL     1     -14.779  10.606  24.574  1.00  0.00     0.191 C 
ATOM     42  H2  UNL     1     -13.836   8.917  24.126  1.00  0.00     0.188 HD
BRANCH  41  43
HETATM   43  N1  UNL     1     -14.951  11.741  24.008  1.00  0.00    -0.394 N 
ATOM     44  H12 UNL     1     -14.581  11.511  23.086  1.00  0.00     0.156 HD
ATOM     45  H11 UNL     1     -15.232  12.719  23.929  1.00  0.00     0.156 HD
ENDBRANCH  41  43
ENDBRANCH  38  40
ENDBRANCH   1  38
BRANCH   4  46
HETATM   46  O1  UNL     1     -13.048  12.712  28.992  1.00  0.00    -0.266 OA
ATOM     47  H1  UNL     1     -13.518  13.397  29.452  1.00  0.00     0.247 HD
ENDBRANCH   4  46
TORSDOF 11
ENDMDL
MODEL 2
REMARK VINA RESULT: -9.256524983      2.704      7.299
REMARK  11 active torsions:
REMARK  status: ('A' for Active; 'I' for Inactive)
REMARK    1  A    between atoms: N1_1  and  C1_4 
REMARK    2  A    between atoms: N2_5  and  N3_7 
REMARK    3  A    between atoms: N3_7  and  C2_9 
REMARK    4  A    between atoms: N5_12  and  O1_13 
REMARK    5  A    between atoms: C5_17  and  N6_18 
REMARK    6  A    between atoms: C6_26  and  C7_27 
REMARK    7  A    between atoms: C7_27  and  N10_28 
REMARK    8  A    between atoms: N10_28  and  C8_30 
REMARK    9  A    between atoms: C9_31  and  O4_32 
REMARK   10  A    between atoms: C10_36  and  N12_37 
REMARK   11  A    between atoms: C11_42  and  N14_43 
ROOT
HETATM    1  C2  UNL     1     -16.575   6.201  27.324  1.00  0.00     0.723 A 
HETATM    2  N4  UNL     1     -16.210   4.881  27.302  1.00  0.00    -0.102 N 
ATOM      3  H4  UNL     1     -15.260   4.534  27.435  1.00  0.00     0.208 HD
HETATM    4  N5  UNL     1     -17.258   4.134  27.087  1.00  0.00    -0.131 N 
HETATM    5  C3  UNL     1     -18.316   4.937  26.963  1.00  0.00     0.181 A 
HETATM    6  C4  UNL     1     -19.634   4.623  26.731  1.00  0.00     0.110 A 
HETATM    7  C5  UNL     1     -20.556   5.625  26.642  1.00  0.00     0.201 A 
HETATM    8  N7  UNL     1     -20.108   6.876  26.791  1.00  0.00    -0.200 N 
HETATM    9  N8  UNL     1     -20.793   8.027  26.751  1.00  0.00    -0.232 N 
ATOM     10  H8  UNL     1     -21.798   8.110  26.594  1.00  0.00     0.209 HD
HETATM   11  N9  UNL     1     -19.980   9.017  26.944  1.00  0.00    -0.284 N 
ATOM     12  H9  UNL     1     -20.257   9.999  26.959  1.00  0.00     0.188 HD
HETATM   13  C6  UNL     1     -18.693   8.566  27.125  1.00  0.00     0.091 A 
HETATM   14  C12 UNL     1     -18.809   7.207  27.022  1.00  0.00     0.181 A 
HETATM   15  N15 UNL     1     -17.870   6.220  27.114  1.00  0.00    -0.107 N 
ENDROOT
BRANCH  13  16
HETATM   16  C7  UNL     1     -17.546   9.432  27.390  1.00  0.00     0.182 C 
BRANCH  16  17
HETATM   17  N10 UNL     1     -17.630  10.211  28.619  1.00  0.00    -0.378 N 
ATOM     18  H10 UNL     1     -18.571  10.508  28.878  1.00  0.00     0.160 HD
BRANCH  17  19
HETATM   19  C8  UNL     1     -16.627  10.612  29.490  1.00  0.00     0.125 A 
HETATM   20  C9  UNL     1     -15.267  10.593  29.129  1.00  0.00     0.185 A 
HETATM   21  N11 UNL     1     -14.326  11.004  29.982  1.00  0.00    -0.168 N 
HETATM   22  C10 UNL     1     -14.626  11.451  31.213  1.00  0.00     0.679 A 
ATOM     23  H11 UNL     1     -13.349  10.978  29.690  1.00  0.00     0.186 HD
HETATM   24  N13 UNL     1     -15.920  11.465  31.551  1.00  0.00    -0.175 N 
HETATM   25  C11 UNL     1     -16.935  11.067  30.748  1.00  0.00     0.145 A 
ATOM     26  H13 UNL     1     -16.161  11.801  32.483  1.00  0.00     0.186 HD
BRANCH  20  27
HETATM   27  O4  UNL     1     -14.930  10.132  27.864  1.00  0.00    -0.344 OA
ATOM     28  H4  UNL     1     -14.091  10.392  27.500  1.00  0.00     0.219 HD
ENDBRANCH  20  27
BRANCH  22  29
HETATM   29  N12 UNL     1     -13.689  11.851  32.036  1.00  0.00    -0.234 N 
ATOM     30 2H12 UNL     1     -13.761  11.716  33.044  1.00  0.00     0.174 HD
ATOM     31 1H12 UNL     1     -12.848  12.314  31.693  1.00  0.00     0.174 HD
ENDBRANCH  22  29
BRANCH  25  32
HETATM   32  N14 UNL     1     -18.139  11.128  31.239  1.00  0.00    -0.383 N 
ATOM     33 2H14 UNL     1     -18.743  11.876  30.898  1.00  0.00     0.157 HD
ATOM     34 1H14 UNL     1     -18.511  10.493  31.945  1.00  0.00     0.157 HD
ENDBRANCH  25  32
ENDBRANCH  17  19
ENDBRANCH  16  17
ENDBRANCH  13  16
BRANCH   7  35
HETATM   35  N6  UNL     1     -21.935   5.382  26.403  1.00  0.00    -0.096 N 
HETATM   36  O2  UNL     1     -22.523   4.609  27.184  1.00  0.00    -0.530 OA
HETATM   37  O3  UNL     1     -22.637   5.938  25.386  1.00  0.00    -0.530 OA
ENDBRANCH   7  35
BRANCH   1  38
HETATM   38  N3  UNL     1     -15.699   7.069  27.519  1.00  0.00    -0.129 N 
ATOM     39  H3  UNL     1     -15.676   7.814  26.821  1.00  0.00     0.205 HD
BRANCH  38  40
HETATM   40  N2  UNL     1     -14.771   7.188  28.506  1.00  0.00    -0.282 N 
HETATM   41  C1  UNL     1     -15.088   7.117  29.743  1.00  0.00     0.191 C 
ATOM     42  H2  UNL     1     -13.794   7.337  28.252  1.00  0.00     0.188 HD
BRANCH  41  43
HETATM   43  N1  UNL     1     -15.036   6.697  30.951  1.00  0.00    -0.394 N 
ATOM     44  H12 UNL     1     -14.228   7.233  31.266  1.00  0.00     0.156 HD
ATOM     45  H11 UNL     1     -15.314   6.159  31.772  1.00  0.00     0.156 HD
ENDBRANCH  41  43
ENDBRANCH  38  40
ENDBRANCH   1  38
BRANCH   4  46
HETATM   46  O1  UNL     1     -17.296   2.742  26.996  1.00  0.00    -0.266 OA
ATOM     47  H1  UNL     1     -16.926   2.201  26.308  1.00  0.00     0.247 HD
ENDBRANCH   4  46
TORSDOF 11
ENDMDL
MODEL 3
REMARK VINA RESULT: -9.179044042      0.974      1.473
REMARK  11 active torsions:
REMARK  status: ('A' for Active; 'I' for Inactive)
REMARK    1  A    between atoms: N1_1  and  C1_4 
REMARK    2  A    between atoms: N2_5  and  N3_7 
REMARK    3  A    between atoms: N3_7  and  C2_9 
REMARK    4  A    between atoms: N5_12  and  O1_13 
REMARK    5  A    between atoms: C5_17  and  N6_18 
REMARK    6  A    between atoms: C6_26  and  C7_27 
REMARK    7  A    between atoms: C7_27  and  N10_28 
REMARK    8  A    between atoms: N10_28  and  C8_30 
REMARK    9  A    between atoms: C9_31  and  O4_32 
REMARK   10  A    between atoms: C10_36  and  N12_37 
REMARK   11  A    between atoms: C11_42  and  N14_43 
ROOT
HETATM    1  C2  UNL     1     -14.028   9.767  27.257  1.00  0.00     0.723 A 
HETATM    2  N4  UNL     1     -13.367  10.961  27.359  1.00  0.00    -0.102 N 
ATOM      3  H4  UNL     1     -12.785  11.372  26.629  1.00  0.00     0.208 HD
HETATM    4  N5  UNL     1     -13.591  11.495  28.529  1.00  0.00    -0.131 N 
HETATM    5  C3  UNL     1     -14.392  10.671  29.209  1.00  0.00     0.181 A 
HETATM    6  C4  UNL     1     -14.905  10.796  30.478  1.00  0.00     0.110 A 
HETATM    7  C5  UNL     1     -15.714   9.815  30.972  1.00  0.00     0.201 A 
HETATM    8  N7  UNL     1     -15.963   8.773  30.172  1.00  0.00    -0.200 N 
HETATM    9  N8  UNL     1     -16.715   7.690  30.408  1.00  0.00    -0.232 N 
ATOM     10  H8  UNL     1     -17.226   7.503  31.271  1.00  0.00     0.209 HD
HETATM   11  N9  UNL     1     -16.694   6.917  29.367  1.00  0.00    -0.284 N 
ATOM     12  H9  UNL     1     -17.188   6.028  29.297  1.00  0.00     0.188 HD
HETATM   13  C6  UNL     1     -15.913   7.458  28.372  1.00  0.00     0.091 A 
HETATM   14  C12 UNL     1     -15.466   8.632  28.914  1.00  0.00     0.181 A 
HETATM   15  N15 UNL     1     -14.653   9.601  28.400  1.00  0.00    -0.107 N 
ENDROOT
BRANCH  13  16
HETATM   16  C7  UNL     1     -15.704   6.844  27.063  1.00  0.00     0.182 C 
BRANCH  16  17
HETATM   17  N10 UNL     1     -16.883   6.800  26.206  1.00  0.00    -0.378 N 
ATOM     18  H10 UNL     1     -16.765   7.230  25.288  1.00  0.00     0.160 HD
BRANCH  17  19
HETATM   19  C8  UNL     1     -18.139   6.264  26.447  1.00  0.00     0.125 A 
HETATM   20  C9  UNL     1     -18.395   4.882  26.368  1.00  0.00     0.185 A 
HETATM   21  N11 UNL     1     -19.610   4.394  26.626  1.00  0.00    -0.168 N 
HETATM   22  C10 UNL     1     -20.639   5.187  26.969  1.00  0.00     0.679 A 
ATOM     23  H11 UNL     1     -19.762   3.387  26.561  1.00  0.00     0.186 HD
HETATM   24  N13 UNL     1     -20.391   6.499  27.040  1.00  0.00    -0.175 N 
HETATM   25  C11 UNL     1     -19.190   7.076  26.795  1.00  0.00     0.145 A 
ATOM     26  H13 UNL     1     -21.164   7.113  27.298  1.00  0.00     0.186 HD
BRANCH  20  27
HETATM   27  O4  UNL     1     -17.349   4.040  26.013  1.00  0.00    -0.344 OA
ATOM     28  H4  UNL     1     -16.521   4.135  26.469  1.00  0.00     0.219 HD
ENDBRANCH  20  27
BRANCH  22  29
HETATM   29  N12 UNL     1     -21.824   4.690  27.219  1.00  0.00    -0.234 N 
ATOM     30 2H12 UNL     1     -22.646   4.953  26.676  1.00  0.00     0.174 HD
ATOM     31 1H12 UNL     1     -21.966   4.017  27.971  1.00  0.00     0.174 HD
ENDBRANCH  22  29
BRANCH  25  32
HETATM   32  N14 UNL     1     -19.123   8.372  26.892  1.00  0.00    -0.383 N 
ATOM     33 2H14 UNL     1     -19.467   8.792  27.755  1.00  0.00     0.157 HD
ATOM     34 1H14 UNL     1     -18.766   8.991  26.163  1.00  0.00     0.157 HD
ENDBRANCH  25  32
ENDBRANCH  17  19
ENDBRANCH  16  17
ENDBRANCH  13  16
BRANCH   7  35
HETATM   35  N6  UNL     1     -16.283   9.870  32.274  1.00  0.00    -0.096 N 
HETATM   36  O2  UNL     1     -15.523  10.164  33.217  1.00  0.00    -0.530 OA
HETATM   37  O3  UNL     1     -17.587   9.624  32.541  1.00  0.00    -0.530 OA
ENDBRANCH   7  35
BRANCH   1  38
HETATM   38  N3  UNL     1     -13.931   9.107  26.202  1.00  0.00    -0.129 N 
ATOM     39  H3  UNL     1     -13.576   8.159  26.324  1.00  0.00     0.205 HD
BRANCH  38  40
HETATM   40  N2  UNL     1     -14.221   9.443  24.916  1.00  0.00    -0.282 N 
HETATM   41  C1  UNL     1     -14.792  10.548  24.619  1.00  0.00     0.191 C 
ATOM     42  H2  UNL     1     -13.976   8.796  24.167  1.00  0.00     0.188 HD
BRANCH  41  43
HETATM   43  N1  UNL     1     -14.954  11.669  24.022  1.00  0.00    -0.394 N 
ATOM     44  H12 UNL     1     -15.960  11.769  24.151  1.00  0.00     0.156 HD
ATOM     45  H11 UNL     1     -14.684  12.506  23.505  1.00  0.00     0.156 HD
ENDBRANCH  41  43
ENDBRANCH  38  40
ENDBRANCH   1  38
BRANCH   4  46
HETATM   46  O1  UNL     1     -13.096  12.707  29.012  1.00  0.00    -0.266 OA
ATOM     47  H1  UNL     1     -12.185  12.969  29.077  1.00  0.00     0.247 HD
ENDBRANCH   4  46
TORSDOF 11
ENDMDL
MODEL 4
REMARK VINA RESULT: -9.163820699      2.231      6.794
REMARK  11 active torsions:
REMARK  status: ('A' for Active; 'I' for Inactive)
REMARK    1  A    between atoms: N1_1  and  C1_4 
REMARK    2  A    between atoms: N2_5  and  N3_7 
REMARK    3  A    between atoms: N3_7  and  C2_9 
REMARK    4  A    between atoms: N5_12  and  O1_13 
REMARK    5  A    between atoms: C5_17  and  N6_18 
REMARK    6  A    between atoms: C6_26  and  C7_27 
REMARK    7  A    between atoms: C7_27  and  N10_28 
REMARK    8  A    between atoms: N10_28  and  C8_30 
REMARK    9  A    between atoms: C9_31  and  O4_32 
REMARK   10  A    between atoms: C10_36  and  N12_37 
REMARK   11  A    between atoms: C11_42  and  N14_43 
ROOT
HETATM    1  C2  UNL     1     -16.530   6.289  27.268  1.00  0.00     0.723 A 
HETATM    2  N4  UNL     1     -16.163   4.970  27.249  1.00  0.00    -0.102 N 
ATOM      3  H4  UNL     1     -15.211   4.626  27.366  1.00  0.00     0.208 HD
HETATM    4  N5  UNL     1     -17.214   4.219  27.059  1.00  0.00    -0.131 N 
HETATM    5  C3  UNL     1     -18.276   5.020  26.949  1.00  0.00     0.181 A 
HETATM    6  C4  UNL     1     -19.597   4.702  26.743  1.00  0.00     0.110 A 
HETATM    7  C5  UNL     1     -20.522   5.702  26.664  1.00  0.00     0.201 A 
HETATM    8  N7  UNL     1     -20.074   6.955  26.796  1.00  0.00    -0.200 N 
HETATM    9  N8  UNL     1     -20.761   8.105  26.762  1.00  0.00    -0.232 N 
ATOM     10  H8  UNL     1     -21.769   8.186  26.623  1.00  0.00     0.209 HD
HETATM   11  N9  UNL     1     -19.946   9.098  26.932  1.00  0.00    -0.284 N 
ATOM     12  H9  UNL     1     -20.225  10.079  26.945  1.00  0.00     0.188 HD
HETATM   13  C6  UNL     1     -18.656   8.650  27.093  1.00  0.00     0.091 A 
HETATM   14  C12 UNL     1     -18.771   7.290  27.001  1.00  0.00     0.181 A 
HETATM   15  N15 UNL     1     -17.830   6.305  27.082  1.00  0.00    -0.107 N 
ENDROOT
BRANCH  13  16
HETATM   16  C7  UNL     1     -17.505   9.519  27.329  1.00  0.00     0.182 C 
BRANCH  16  17
HETATM   17  N10 UNL     1     -17.420  10.079  28.673  1.00  0.00    -0.378 N 
ATOM     18  H10 UNL     1     -18.236  10.614  28.970  1.00  0.00     0.160 HD
BRANCH  17  19
HETATM   19  C8  UNL     1     -16.399   9.997  29.608  1.00  0.00     0.125 A 
HETATM   20  C9  UNL     1     -16.631   9.612  30.942  1.00  0.00     0.185 A 
HETATM   21  N11 UNL     1     -15.625   9.522  31.814  1.00  0.00    -0.168 N 
HETATM   22  C10 UNL     1     -14.355   9.792  31.468  1.00  0.00     0.679 A 
ATOM     23  H11 UNL     1     -15.826   9.240  32.774  1.00  0.00     0.186 HD
HETATM   24  N13 UNL     1     -14.140  10.159  30.200  1.00  0.00    -0.175 N 
HETATM   25  C11 UNL     1     -15.102  10.275  29.254  1.00  0.00     0.145 A 
ATOM     26  H13 UNL     1     -13.181  10.368  29.925  1.00  0.00     0.186 HD
BRANCH  20  27
HETATM   27  O4  UNL     1     -17.935   9.331  31.327  1.00  0.00    -0.344 OA
ATOM     28  H4  UNL     1     -18.403   9.981  31.837  1.00  0.00     0.219 HD
ENDBRANCH  20  27
BRANCH  22  29
HETATM   29  N12 UNL     1     -13.381   9.698  32.338  1.00  0.00    -0.234 N 
ATOM     30 2H12 UNL     1     -13.547   9.440  33.311  1.00  0.00     0.174 HD
ATOM     31 1H12 UNL     1     -12.414   9.880  32.069  1.00  0.00     0.174 HD
ENDBRANCH  22  29
BRANCH  25  32
HETATM   32  N14 UNL     1     -14.726  10.662  28.069  1.00  0.00    -0.383 N 
ATOM     33 2H14 UNL     1     -14.140  11.495  28.017  1.00  0.00     0.157 HD
ATOM     34 1H14 UNL     1     -14.985  10.199  27.198  1.00  0.00     0.157 HD
ENDBRANCH  25  32
ENDBRANCH  17  19
ENDBRANCH  16  17
ENDBRANCH  13  16
BRANCH   7  35
HETATM   35  N6  UNL     1     -21.906   5.456  26.453  1.00  0.00    -0.096 N 
HETATM   36  O2  UNL     1     -22.481   4.700  27.260  1.00  0.00    -0.530 OA
HETATM   37  O3  UNL     1     -22.624   5.991  25.437  1.00  0.00    -0.530 OA
ENDBRANCH   7  35
BRANCH   1  38
HETATM   38  N3  UNL     1     -15.653   7.160  27.440  1.00  0.00    -0.129 N 
ATOM     39  H3  UNL     1     -15.655   7.589  28.366  1.00  0.00     0.205 HD
BRANCH  38  40
HETATM   40  N2  UNL     1     -14.695   7.634  26.598  1.00  0.00    -0.282 N 
HETATM   41  C1  UNL     1     -14.980   8.092  25.439  1.00  0.00     0.191 C 
ATOM     42  H2  UNL     1     -13.720   7.623  26.900  1.00  0.00     0.188 HD
BRANCH  41  43
HETATM   43  N1  UNL     1     -15.000   8.936  24.476  1.00  0.00    -0.394 N 
ATOM     44  H12 UNL     1     -14.535   9.713  24.944  1.00  0.00     0.156 HD
ATOM     45  H11 UNL     1     -15.198   9.289  23.540  1.00  0.00     0.156 HD
ENDBRANCH  41  43
ENDBRANCH  38  40
ENDBRANCH   1  38
BRANCH   4  46
HETATM   46  O1  UNL     1     -17.252   2.827  26.978  1.00  0.00    -0.266 OA
ATOM     47  H1  UNL     1     -17.566   2.222  27.640  1.00  0.00     0.247 HD
ENDBRANCH   4  46
TORSDOF 11
ENDMDL
MODEL 5
REMARK VINA RESULT: -9.086938295      1.970      4.412
REMARK  11 active torsions:
REMARK  status: ('A' for Active; 'I' for Inactive)
REMARK    1  A    between atoms: N1_1  and  C1_4 
REMARK    2  A    between atoms: N2_5  and  N3_7 
REMARK    3  A    between atoms: N3_7  and  C2_9 
REMARK    4  A    between atoms: N5_12  and  O1_13 
REMARK    5  A    between atoms: C5_17  and  N6_18 
REMARK    6  A    between atoms: C6_26  and  C7_27 
REMARK    7  A    between atoms: C7_27  and  N10_28 
REMARK    8  A    between atoms: N10_28  and  C8_30 
REMARK    9  A    between atoms: C9_31  and  O4_32 
REMARK   10  A    between atoms: C10_36  and  N12_37 
REMARK   11  A    between atoms: C11_42  and  N14_43 
ROOT
HETATM    1  C2  UNL     1     -14.433  10.212  29.211  1.00  0.00     0.723 A 
HETATM    2  N4  UNL     1     -13.741  11.375  29.420  1.00  0.00    -0.102 N 
ATOM      3  H4  UNL     1     -13.484  11.747  30.334  1.00  0.00     0.208 HD
HETATM    4  N5  UNL     1     -13.460  11.936  28.275  1.00  0.00    -0.131 N 
HETATM    5  C3  UNL     1     -13.956  11.164  27.307  1.00  0.00     0.181 A 
HETATM    6  C4  UNL     1     -13.916  11.332  25.943  1.00  0.00     0.110 A 
HETATM    7  C5  UNL     1     -14.499  10.399  25.136  1.00  0.00     0.201 A 
HETATM    8  N7  UNL     1     -15.084   9.358  25.737  1.00  0.00    -0.200 N 
HETATM    9  N8  UNL     1     -15.719   8.314  25.186  1.00  0.00    -0.232 N 
ATOM     10  H8  UNL     1     -15.849   8.164  24.185  1.00  0.00     0.209 HD
HETATM   11  N9  UNL     1     -16.142   7.525  26.123  1.00  0.00    -0.284 N 
ATOM     12  H9  UNL     1     -16.657   6.659  25.962  1.00  0.00     0.188 HD
HETATM   13  C6  UNL     1     -15.802   8.013  27.364  1.00  0.00     0.091 A 
HETATM   14  C12 UNL     1     -15.134   9.173  27.083  1.00  0.00     0.181 A 
HETATM   15  N15 UNL     1     -14.558  10.095  27.910  1.00  0.00    -0.107 N 
ENDROOT
BRANCH  13  16
HETATM   16  C7  UNL     1     -16.112   7.344  28.625  1.00  0.00     0.182 C 
BRANCH  16  17
HETATM   17  N10 UNL     1     -17.515   6.991  28.809  1.00  0.00    -0.378 N 
ATOM     18  H10 UNL     1     -17.913   7.260  29.708  1.00  0.00     0.160 HD
BRANCH  17  19
HETATM   19  C8  UNL     1     -18.390   6.344  27.949  1.00  0.00     0.125 A 
HETATM   20  C9  UNL     1     -19.233   7.045  27.068  1.00  0.00     0.185 A 
HETATM   21  N11 UNL     1     -20.050   6.394  26.237  1.00  0.00    -0.168 N 
HETATM   22  C10 UNL     1     -20.109   5.052  26.200  1.00  0.00     0.679 A 
ATOM     23  H11 UNL     1     -20.649   6.932  25.610  1.00  0.00     0.186 HD
HETATM   24  N13 UNL     1     -19.306   4.391  27.041  1.00  0.00    -0.175 N 
HETATM   25  C11 UNL     1     -18.449   4.973  27.914  1.00  0.00     0.145 A 
ATOM     26  H13 UNL     1     -19.342   3.372  27.024  1.00  0.00     0.186 HD
BRANCH  20  27
HETATM   27  O4  UNL     1     -19.195   8.433  27.087  1.00  0.00    -0.344 OA
ATOM     28  H4  UNL     1     -20.004   8.907  26.933  1.00  0.00     0.219 HD
ENDBRANCH  20  27
BRANCH  22  29
HETATM   29  N12 UNL     1     -20.916   4.431  25.378  1.00  0.00    -0.234 N 
ATOM     30 2H12 UNL     1     -20.629   4.165  24.436  1.00  0.00     0.174 HD
ATOM     31 1H12 UNL     1     -21.867   4.189  25.654  1.00  0.00     0.174 HD
ENDBRANCH  22  29
BRANCH  25  32
HETATM   32  N14 UNL     1     -17.751   4.182  28.677  1.00  0.00    -0.383 N 
ATOM     33 2H14 UNL     1     -17.082   4.619  29.311  1.00  0.00     0.157 HD
ATOM     34 1H14 UNL     1     -17.818   3.164  28.673  1.00  0.00     0.157 HD
ENDBRANCH  25  32
ENDBRANCH  17  19
ENDBRANCH  16  17
ENDBRANCH  13  16
BRANCH   7  35
HETATM   35  N6  UNL     1     -14.500  10.501  23.719  1.00  0.00    -0.096 N 
HETATM   36  O2  UNL     1     -14.001  11.529  23.219  1.00  0.00    -0.530 OA
HETATM   37  O3  UNL     1     -15.007   9.555  22.892  1.00  0.00    -0.530 OA
ENDBRANCH   7  35
BRANCH   1  38
HETATM   38  N3  UNL     1     -14.789   9.533  30.196  1.00  0.00    -0.129 N 
ATOM     39  H3  UNL     1     -14.252   8.677  30.340  1.00  0.00     0.205 HD
BRANCH  38  40
HETATM   40  N2  UNL     1     -15.775   9.744  31.109  1.00  0.00    -0.282 N 
HETATM   41  C1  UNL     1     -16.709  10.594  30.911  1.00  0.00     0.191 C 
ATOM     42  H2  UNL     1     -15.769   9.208  31.978  1.00  0.00     0.188 HD
BRANCH  41  43
HETATM   43  N1  UNL     1     -17.910  11.027  30.818  1.00  0.00    -0.394 N 
ATOM     44  H12 UNL     1     -17.968  11.104  29.803  1.00  0.00     0.156 HD
ATOM     45  H11 UNL     1     -18.826  11.334  31.145  1.00  0.00     0.156 HD
ENDBRANCH  41  43
ENDBRANCH  38  40
ENDBRANCH   1  38
BRANCH   4  46
HETATM   46  O1  UNL     1     -12.767  13.130  28.069  1.00  0.00    -0.266 OA
ATOM     47  H1  UNL     1     -13.134  13.970  27.820  1.00  0.00     0.247 HD
ENDBRANCH   4  46
TORSDOF 11
ENDMDL
