MODEL 1
REMARK VINA RESULT: -8.597692208      0.000      0.000
REMARK  13 active torsions:
REMARK  status: ('A' for Active; 'I' for Inactive)
REMARK    1  A    between atoms: C2_2  and  C3_6 
REMARK    2  A    between atoms: C4_9  and  C5_10 
REMARK    3  A    between atoms: C5_10  and  C8_22 
REMARK    4  A    between atoms: N3_11  and  O1_13 
REMARK    5  A    between atoms: O1_13  and  C6_14 
REMARK    6  A    between atoms: C6_14  and  N5_18 
REMARK    7  A    between atoms: C8_22  and  O2_23 
REMARK    8  A    between atoms: C8_22  and  O3_25 
REMARK    9  A    between atoms: C9_28  and  C10_29 
REMARK   10  A    between atoms: C10_29  and  O5_30 
REMARK   11  A    between atoms: O5_30  and  C11_31 
REMARK       I    between atoms: C11_31  and  N7_33 
REMARK   12  A    between atoms: N7_33  and  N8_35 
REMARK   13  A    between atoms: N8_35  and  C12_37 
ROOT
HETATM    1  N5  UNL     1     -17.971   3.273  25.754  1.00  0.00    -0.258 N 
ATOM      2  H5  UNL     1     -17.360   2.458  25.706  1.00  0.00     0.181 HD
HETATM    3  C7  UNL     1     -18.979   3.404  24.794  1.00  0.00     0.185 C 
HETATM    4  N6  UNL     1     -19.809   3.492  23.993  1.00  0.00    -0.172 NA
ENDROOT
BRANCH   1   5
HETATM    5  C6  UNL     1     -17.754   4.221  26.796  1.00  0.00     0.249 C 
HETATM    6  N4  UNL     1     -18.572   4.352  27.754  1.00  0.00    -0.363 N 
ATOM      7  H42 UNL     1     -18.416   5.030  28.499  1.00  0.00     0.159 HD
ATOM      8  H41 UNL     1     -19.403   3.761  27.767  1.00  0.00     0.159 HD
BRANCH   5   9
HETATM    9  O1  UNL     1     -16.612   5.034  26.778  1.00  0.00    -0.200 OA
BRANCH   9  10
HETATM   10  N3  UNL     1     -16.306   5.878  27.808  1.00  0.00    -0.253 N 
HETATM   11  C5  UNL     1     -16.507   7.138  27.759  1.00  0.00     0.138 C 
ATOM     12  H3  UNL     1     -15.897   5.482  28.656  1.00  0.00     0.195 HD
BRANCH  11  13
HETATM   13  C4  UNL     1     -16.149   7.970  28.908  1.00  0.00     0.178 A 
HETATM   14  N2  UNL     1     -16.339   7.717  30.211  1.00  0.00    -0.331 N 
HETATM   15  C3  UNL     1     -15.857   8.763  30.962  1.00  0.00     0.088 A 
ATOM     16  H2  UNL     1     -16.776   6.876  30.587  1.00  0.00     0.168 HD
HETATM   17  C9  UNL     1     -15.377   9.638  30.047  1.00  0.00     0.108 A 
HETATM   18  O4  UNL     1     -15.572   9.125  28.831  1.00  0.00    -0.291 OA
BRANCH  15  19
HETATM   19  C2  UNL     1     -15.880   8.863  32.396  1.00  0.00     0.028 C 
HETATM   20  C1  UNL     1     -14.746   8.538  33.273  1.00  0.00     0.070 C 
HETATM   21  N1  UNL     1     -16.986   9.274  32.958  1.00  0.00    -0.401 N 
ATOM     22  H12 UNL     1     -17.002   9.344  33.975  1.00  0.00     0.156 HD
ATOM     23  H11 UNL     1     -17.772   9.499  32.349  1.00  0.00     0.156 HD
ENDBRANCH  15  19
BRANCH  17  24
HETATM   24  C10 UNL     1     -14.733  10.955  30.270  1.00  0.00     0.248 C 
BRANCH  24  25
HETATM   25  O5  UNL     1     -13.507  11.033  29.511  1.00  0.00    -0.296 OA
BRANCH  25  26
HETATM   26  C11 UNL     1     -13.426  11.717  28.326  1.00  0.00     0.379 C 
HETATM   27  O6  UNL     1     -12.882  12.847  28.262  1.00  0.00    -0.237 OA
HETATM   28  N7  UNL     1     -13.954  11.180  27.119  1.00  0.00    -0.243 N 
ATOM     29  H7  UNL     1     -14.401  10.264  27.144  1.00  0.00     0.192 HD
BRANCH  28  30
HETATM   30  N8  UNL     1     -13.883  11.861  25.902  1.00  0.00    -0.266 N 
ATOM     31  H8  UNL     1     -13.555  12.826  25.887  1.00  0.00     0.190 HD
BRANCH  30  32
HETATM   32  C12 UNL     1     -14.260  11.230  24.682  1.00  0.00     0.207 C 
HETATM   33  N9  UNL     1     -14.604  11.806  23.589  1.00  0.00    -0.345 N 
HETATM   34  C13 UNL     1     -14.906  10.823  22.606  1.00  0.00     0.259 C 
ATOM     35  H9  UNL     1     -14.653  12.815  23.447  1.00  0.00     0.164 HD
HETATM   36  N10 UNL     1     -14.995   9.531  23.287  1.00  0.00    -0.119 NA
HETATM   37  N11 UNL     1     -14.314   9.829  24.491  1.00  0.00    -0.273 N 
ATOM     38  H11 UNL     1     -13.920   9.136  25.128  1.00  0.00     0.185 HD
ENDBRANCH  30  32
ENDBRANCH  28  30
ENDBRANCH  25  26
ENDBRANCH  24  25
ENDBRANCH  17  24
ENDBRANCH  11  13
BRANCH  11  39
HETATM   39  C8  UNL     1     -17.096   7.743  26.545  1.00  0.00     0.311 C 
BRANCH  39  40
HETATM   40  O2  UNL     1     -16.227   7.669  25.457  1.00  0.00    -0.366 OA
ATOM     41  H2  UNL     1     -15.973   8.531  25.150  1.00  0.00     0.213 HD
ENDBRANCH  39  40
BRANCH  39  42
HETATM   42  O3  UNL     1     -18.372   7.319  26.276  1.00  0.00    -0.366 OA
ATOM     43  H3  UNL     1     -18.695   7.588  25.424  1.00  0.00     0.213 HD
ENDBRANCH  39  42
ENDBRANCH  11  39
ENDBRANCH   9  10
ENDBRANCH   5   9
ENDBRANCH   1   5
TORSDOF 13
ENDMDL
MODEL 2
REMARK VINA RESULT: -8.562277616      0.797      1.028
REMARK  13 active torsions:
REMARK  status: ('A' for Active; 'I' for Inactive)
REMARK    1  A    between atoms: C2_2  and  C3_6 
REMARK    2  A    between atoms: C4_9  and  C5_10 
REMARK    3  A    between atoms: C5_10  and  C8_22 
REMARK    4  A    between atoms: N3_11  and  O1_13 
REMARK    5  A    between atoms: O1_13  and  C6_14 
REMARK    6  A    between atoms: C6_14  and  N5_18 
REMARK    7  A    between atoms: C8_22  and  O2_23 
REMARK    8  A    between atoms: C8_22  and  O3_25 
REMARK    9  A    between atoms: C9_28  and  C10_29 
REMARK   10  A    between atoms: C10_29  and  O5_30 
REMARK   11  A    between atoms: O5_30  and  C11_31 
REMARK       I    between atoms: C11_31  and  N7_33 
REMARK   12  A    between atoms: N7_33  and  N8_35 
REMARK   13  A    between atoms: N8_35  and  C12_37 
ROOT
HETATM    1  N5  UNL     1     -17.865   3.393  26.019  1.00  0.00    -0.258 N 
ATOM      2  H5  UNL     1     -17.255   2.577  26.077  1.00  0.00     0.181 HD
HETATM    3  C7  UNL     1     -18.731   3.497  24.927  1.00  0.00     0.185 C 
HETATM    4  N6  UNL     1     -19.443   3.563  24.018  1.00  0.00    -0.172 NA
ENDROOT
BRANCH   1   5
HETATM    5  C6  UNL     1     -17.790   4.368  27.056  1.00  0.00     0.249 C 
HETATM    6  N4  UNL     1     -18.432   4.235  28.139  1.00  0.00    -0.363 N 
ATOM      7  H42 UNL     1     -18.378   4.933  28.880  1.00  0.00     0.159 HD
ATOM      8  H41 UNL     1     -19.014   3.407  28.260  1.00  0.00     0.159 HD
BRANCH   5   9
HETATM    9  O1  UNL     1     -16.990   5.507  26.890  1.00  0.00    -0.200 OA
BRANCH   9  10
HETATM   10  N3  UNL     1     -16.745   6.378  27.915  1.00  0.00    -0.253 N 
HETATM   11  C5  UNL     1     -16.648   7.640  27.747  1.00  0.00     0.138 C 
ATOM     12  H3  UNL     1     -16.636   6.002  28.857  1.00  0.00     0.195 HD
BRANCH  11  13
HETATM   13  C4  UNL     1     -16.384   8.502  28.900  1.00  0.00     0.178 A 
HETATM   14  N2  UNL     1     -16.956   8.470  30.112  1.00  0.00    -0.331 N 
HETATM   15  C3  UNL     1     -16.419   9.456  30.905  1.00  0.00     0.088 A 
ATOM     16  H2  UNL     1     -17.680   7.812  30.401  1.00  0.00     0.168 HD
HETATM   17  C9  UNL     1     -15.510  10.067  30.109  1.00  0.00     0.108 A 
HETATM   18  O4  UNL     1     -15.521   9.465  28.918  1.00  0.00    -0.291 OA
BRANCH  15  19
HETATM   19  C2  UNL     1     -16.775   9.741  32.268  1.00  0.00     0.028 C 
HETATM   20  C1  UNL     1     -17.577  10.896  32.697  1.00  0.00     0.070 C 
HETATM   21  N1  UNL     1     -16.358   8.914  33.190  1.00  0.00    -0.401 N 
ATOM     22  H12 UNL     1     -16.611   9.117  34.157  1.00  0.00     0.156 HD
ATOM     23  H11 UNL     1     -15.802   8.113  32.893  1.00  0.00     0.156 HD
ENDBRANCH  15  19
BRANCH  17  24
HETATM   24  C10 UNL     1     -14.618  11.209  30.424  1.00  0.00     0.248 C 
BRANCH  24  25
HETATM   25  O5  UNL     1     -13.443  11.156  29.586  1.00  0.00    -0.296 OA
BRANCH  25  26
HETATM   26  C11 UNL     1     -13.376  11.812  28.384  1.00  0.00     0.379 C 
HETATM   27  O6  UNL     1     -12.806  12.926  28.280  1.00  0.00    -0.237 OA
HETATM   28  N7  UNL     1     -13.949  11.262  27.203  1.00  0.00    -0.243 N 
ATOM     29  H7  UNL     1     -14.418  10.358  27.260  1.00  0.00     0.192 HD
BRANCH  28  30
HETATM   30  N8  UNL     1     -13.892  11.914  25.970  1.00  0.00    -0.266 N 
ATOM     31  H8  UNL     1     -13.574  12.882  25.929  1.00  0.00     0.190 HD
BRANCH  30  32
HETATM   32  C12 UNL     1     -14.273  11.251  24.768  1.00  0.00     0.207 C 
HETATM   33  N9  UNL     1     -14.722  11.792  23.696  1.00  0.00    -0.345 N 
HETATM   34  C13 UNL     1     -14.984  10.785  22.726  1.00  0.00     0.259 C 
ATOM     35  H9  UNL     1     -14.869  12.792  23.560  1.00  0.00     0.164 HD
HETATM   36  N10 UNL     1     -14.921   9.491  23.405  1.00  0.00    -0.119 NA
HETATM   37  N11 UNL     1     -14.209   9.850  24.575  1.00  0.00    -0.273 N 
ATOM     38  H11 UNL     1     -13.723   9.196  25.188  1.00  0.00     0.185 HD
ENDBRANCH  30  32
ENDBRANCH  28  30
ENDBRANCH  25  26
ENDBRANCH  24  25
ENDBRANCH  17  24
ENDBRANCH  11  13
BRANCH  11  39
HETATM   39  C8  UNL     1     -16.799   8.218  26.394  1.00  0.00     0.311 C 
BRANCH  39  40
HETATM   40  O2  UNL     1     -16.641   9.603  26.402  1.00  0.00    -0.366 OA
ATOM     41  H2  UNL     1     -17.219  10.027  25.780  1.00  0.00     0.213 HD
ENDBRANCH  39  40
BRANCH  39  42
HETATM   42  O3  UNL     1     -16.068   7.572  25.430  1.00  0.00    -0.366 OA
ATOM     43  H3  UNL     1     -15.869   6.667  25.639  1.00  0.00     0.213 HD
ENDBRANCH  39  42
ENDBRANCH  11  39
ENDBRANCH   9  10
ENDBRANCH   5   9
ENDBRANCH   1   5
TORSDOF 13
ENDMDL
MODEL 3
REMARK VINA RESULT: -8.541695934      0.968      1.153
REMARK  13 active torsions:
REMARK  status: ('A' for Active; 'I' for Inactive)
REMARK    1  A    between atoms: C2_2  and  C3_6 
REMARK    2  A    between atoms: C4_9  and  C5_10 
REMARK    3  A    between atoms: C5_10  and  C8_22 
REMARK    4  A    between atoms: N3_11  and  O1_13 
REMARK    5  A    between atoms: O1_13  and  C6_14 
REMARK    6  A    between atoms: C6_14  and  N5_18 
REMARK    7  A    between atoms: C8_22  and  O2_23 
REMARK    8  A    between atoms: C8_22  and  O3_25 
REMARK    9  A    between atoms: C9_28  and  C10_29 
REMARK   10  A    between atoms: C10_29  and  O5_30 
REMARK   11  A    between atoms: O5_30  and  C11_31 
REMARK       I    between atoms: C11_31  and  N7_33 
REMARK   12  A    between atoms: N7_33  and  N8_35 
REMARK   13  A    between atoms: N8_35  and  C12_37 
ROOT
HETATM    1  N5  UNL     1     -19.293   3.896  26.221  1.00  0.00    -0.258 N 
ATOM      2  H5  UNL     1     -19.892   3.425  26.900  1.00  0.00     0.181 HD
HETATM    3  C7  UNL     1     -19.857   4.291  25.004  1.00  0.00     0.185 C 
HETATM    4  N6  UNL     1     -20.342   4.614  24.005  1.00  0.00    -0.172 NA
ENDROOT
BRANCH   1   5
HETATM    5  C6  UNL     1     -17.927   4.116  26.560  1.00  0.00     0.249 C 
HETATM    6  N4  UNL     1     -17.209   3.196  27.051  1.00  0.00    -0.363 N 
ATOM      7  H42 UNL     1     -16.231   3.353  27.294  1.00  0.00     0.159 HD
ATOM      8  H41 UNL     1     -17.632   2.280  27.205  1.00  0.00     0.159 HD
BRANCH   5   9
HETATM    9  O1  UNL     1     -17.346   5.374  26.350  1.00  0.00    -0.200 OA
BRANCH   9  10
HETATM   10  N3  UNL     1     -16.793   6.098  27.368  1.00  0.00    -0.253 N 
HETATM   11  C5  UNL     1     -17.308   7.178  27.814  1.00  0.00     0.138 C 
ATOM     12  H3  UNL     1     -15.929   5.759  27.793  1.00  0.00     0.195 HD
BRANCH  11  13
HETATM   13  C4  UNL     1     -16.650   7.893  28.909  1.00  0.00     0.178 A 
HETATM   14  N2  UNL     1     -16.355   7.444  30.137  1.00  0.00    -0.331 N 
HETATM   15  C3  UNL     1     -15.738   8.437  30.859  1.00  0.00     0.088 A 
ATOM     16  H2  UNL     1     -16.558   6.506  30.483  1.00  0.00     0.168 HD
HETATM   17  C9  UNL     1     -15.683   9.486  30.004  1.00  0.00     0.108 A 
HETATM   18  O4  UNL     1     -16.240   9.117  28.849  1.00  0.00    -0.291 OA
BRANCH  15  19
HETATM   19  C2  UNL     1     -15.273   8.341  32.216  1.00  0.00     0.028 C 
HETATM   20  C1  UNL     1     -13.932   7.880  32.607  1.00  0.00     0.070 C 
HETATM   21  N1  UNL     1     -16.098   8.689  33.166  1.00  0.00    -0.401 N 
ATOM     22  H12 UNL     1     -15.768   8.621  34.129  1.00  0.00     0.156 HD
ATOM     23  H11 UNL     1     -17.027   9.010  32.895  1.00  0.00     0.156 HD
ENDBRANCH  15  19
BRANCH  17  24
HETATM   24  C10 UNL     1     -15.121  10.839  30.230  1.00  0.00     0.248 C 
BRANCH  24  25
HETATM   25  O5  UNL     1     -13.803  10.924  29.646  1.00  0.00    -0.296 OA
BRANCH  25  26
HETATM   26  C11 UNL     1     -13.571  11.570  28.460  1.00  0.00     0.379 C 
HETATM   27  O6  UNL     1     -12.843  12.591  28.404  1.00  0.00    -0.237 OA
HETATM   28  N7  UNL     1     -14.145  11.114  27.240  1.00  0.00    -0.243 N 
ATOM     29  H7  UNL     1     -14.741  10.286  27.257  1.00  0.00     0.192 HD
BRANCH  28  30
HETATM   30  N8  UNL     1     -13.923  11.758  26.021  1.00  0.00    -0.266 N 
ATOM     31  H8  UNL     1     -13.492  12.682  26.014  1.00  0.00     0.190 HD
BRANCH  30  32
HETATM   32  C12 UNL     1     -14.288  11.146  24.787  1.00  0.00     0.207 C 
HETATM   33  N9  UNL     1     -14.724  11.732  23.734  1.00  0.00    -0.345 N 
HETATM   34  C13 UNL     1     -14.973  10.767  22.719  1.00  0.00     0.259 C 
ATOM     35  H9  UNL     1     -14.870  12.737  23.638  1.00  0.00     0.164 HD
HETATM   36  N10 UNL     1     -14.917   9.445  23.344  1.00  0.00    -0.119 NA
HETATM   37  N11 UNL     1     -14.221   9.755  24.536  1.00  0.00    -0.273 N 
ATOM     38  H11 UNL     1     -13.741   9.075  25.127  1.00  0.00     0.185 HD
ENDBRANCH  30  32
ENDBRANCH  28  30
ENDBRANCH  25  26
ENDBRANCH  24  25
ENDBRANCH  17  24
ENDBRANCH  11  13
BRANCH  11  39
HETATM   39  C8  UNL     1     -18.558   7.698  27.219  1.00  0.00     0.311 C 
BRANCH  39  40
HETATM   40  O2  UNL     1     -19.647   6.874  27.501  1.00  0.00    -0.366 OA
ATOM     41  H2  UNL     1     -19.856   6.872  28.427  1.00  0.00     0.213 HD
ENDBRANCH  39  40
BRANCH  39  42
HETATM   42  O3  UNL     1     -18.780   9.029  27.467  1.00  0.00    -0.366 OA
ATOM     43  H3  UNL     1     -19.698   9.257  27.551  1.00  0.00     0.213 HD
ENDBRANCH  39  42
ENDBRANCH  11  39
ENDBRANCH   9  10
ENDBRANCH   5   9
ENDBRANCH   1   5
TORSDOF 13
ENDMDL
MODEL 4
REMARK VINA RESULT: -8.455868217      1.512      1.782
REMARK  13 active torsions:
REMARK  status: ('A' for Active; 'I' for Inactive)
REMARK    1  A    between atoms: C2_2  and  C3_6 
REMARK    2  A    between atoms: C4_9  and  C5_10 
REMARK    3  A    between atoms: C5_10  and  C8_22 
REMARK    4  A    between atoms: N3_11  and  O1_13 
REMARK    5  A    between atoms: O1_13  and  C6_14 
REMARK    6  A    between atoms: C6_14  and  N5_18 
REMARK    7  A    between atoms: C8_22  and  O2_23 
REMARK    8  A    between atoms: C8_22  and  O3_25 
REMARK    9  A    between atoms: C9_28  and  C10_29 
REMARK   10  A    between atoms: C10_29  and  O5_30 
REMARK   11  A    between atoms: O5_30  and  C11_31 
REMARK       I    between atoms: C11_31  and  N7_33 
REMARK   12  A    between atoms: N7_33  and  N8_35 
REMARK   13  A    between atoms: N8_35  and  C12_37 
ROOT
HETATM    1  N5  UNL     1     -19.818   4.343  27.069  1.00  0.00    -0.258 N 
ATOM      2  H5  UNL     1     -19.528   3.500  27.567  1.00  0.00     0.181 HD
HETATM    3  C7  UNL     1     -21.185   4.615  26.968  1.00  0.00     0.185 C 
HETATM    4  N6  UNL     1     -22.320   4.826  26.899  1.00  0.00    -0.172 NA
ENDROOT
BRANCH   1   5
HETATM    5  C6  UNL     1     -18.808   5.181  26.512  1.00  0.00     0.249 C 
HETATM    6  N4  UNL     1     -18.976   5.779  25.409  1.00  0.00    -0.363 N 
ATOM      7  H42 UNL     1     -18.254   6.378  25.012  1.00  0.00     0.159 HD
ATOM      8  H41 UNL     1     -19.859   5.647  24.916  1.00  0.00     0.159 HD
BRANCH   5   9
HETATM    9  O1  UNL     1     -17.594   5.361  27.191  1.00  0.00    -0.200 OA
BRANCH   9  10
HETATM   10  N3  UNL     1     -17.409   6.374  28.089  1.00  0.00    -0.253 N 
HETATM   11  C5  UNL     1     -16.558   7.311  27.917  1.00  0.00     0.138 C 
ATOM     12  H3  UNL     1     -17.976   6.382  28.937  1.00  0.00     0.195 HD
BRANCH  11  13
HETATM   13  C4  UNL     1     -16.422   8.358  28.929  1.00  0.00     0.178 A 
HETATM   14  N2  UNL     1     -17.247   8.642  29.948  1.00  0.00    -0.331 N 
HETATM   15  C3  UNL     1     -16.749   9.705  30.664  1.00  0.00     0.088 A 
ATOM     16  H2  UNL     1     -18.112   8.145  30.159  1.00  0.00     0.168 HD
HETATM   17  C9  UNL     1     -15.601  10.031  30.025  1.00  0.00     0.108 A 
HETATM   18  O4  UNL     1     -15.444   9.200  28.993  1.00  0.00    -0.291 OA
BRANCH  15  19
HETATM   19  C2  UNL     1     -17.349  10.305  31.825  1.00  0.00     0.028 C 
HETATM   20  C1  UNL     1     -17.977  11.634  31.847  1.00  0.00     0.070 C 
HETATM   21  N1  UNL     1     -17.336   9.619  32.938  1.00  0.00    -0.401 N 
ATOM     22  H12 UNL     1     -17.762  10.045  33.761  1.00  0.00     0.156 HD
ATOM     23  H11 UNL     1     -16.901   8.697  32.922  1.00  0.00     0.156 HD
ENDBRANCH  15  19
BRANCH  17  24
HETATM   24  C10 UNL     1     -14.631  11.105  30.348  1.00  0.00     0.248 C 
BRANCH  24  25
HETATM   25  O5  UNL     1     -13.484  11.005  29.477  1.00  0.00    -0.296 OA
BRANCH  25  26
HETATM   26  C11 UNL     1     -13.417  11.673  28.282  1.00  0.00     0.379 C 
HETATM   27  O6  UNL     1     -12.925  12.826  28.206  1.00  0.00    -0.237 OA
HETATM   28  N7  UNL     1     -13.901  11.093  27.076  1.00  0.00    -0.243 N 
ATOM     29  H7  UNL     1     -14.306  10.157  27.110  1.00  0.00     0.192 HD
BRANCH  28  30
HETATM   30  N8  UNL     1     -13.843  11.757  25.849  1.00  0.00    -0.266 N 
ATOM     31  H8  UNL     1     -13.492  12.713  25.814  1.00  0.00     0.190 HD
BRANCH  30  32
HETATM   32  C12 UNL     1     -14.266  11.121  24.646  1.00  0.00     0.207 C 
HETATM   33  N9  UNL     1     -14.552  11.687  23.533  1.00  0.00    -0.345 N 
HETATM   34  C13 UNL     1     -14.932  10.702  22.580  1.00  0.00     0.259 C 
ATOM     35  H9  UNL     1     -14.512  12.692  23.357  1.00  0.00     0.164 HD
HETATM   36  N10 UNL     1     -15.137   9.447  23.301  1.00  0.00    -0.119 NA
HETATM   37  N11 UNL     1     -14.440   9.724  24.501  1.00  0.00    -0.273 N 
ATOM     38  H11 UNL     1     -14.112   9.021  25.163  1.00  0.00     0.185 HD
ENDBRANCH  30  32
ENDBRANCH  28  30
ENDBRANCH  25  26
ENDBRANCH  24  25
ENDBRANCH  17  24
ENDBRANCH  11  13
BRANCH  11  39
HETATM   39  C8  UNL     1     -15.718   7.327  26.699  1.00  0.00     0.311 C 
BRANCH  39  40
HETATM   40  O2  UNL     1     -16.451   7.690  25.570  1.00  0.00    -0.366 OA
ATOM     41  H2  UNL     1     -16.163   7.219  24.797  1.00  0.00     0.213 HD
ENDBRANCH  39  40
BRANCH  39  42
HETATM   42  O3  UNL     1     -14.537   8.010  26.849  1.00  0.00    -0.366 OA
ATOM     43  H3  UNL     1     -14.508   8.835  26.380  1.00  0.00     0.213 HD
ENDBRANCH  39  42
ENDBRANCH  11  39
ENDBRANCH   9  10
ENDBRANCH   5   9
ENDBRANCH   1   5
TORSDOF 13
ENDMDL
MODEL 5
REMARK VINA RESULT: -8.345466952      1.672      2.143
REMARK  13 active torsions:
REMARK  status: ('A' for Active; 'I' for Inactive)
REMARK    1  A    between atoms: C2_2  and  C3_6 
REMARK    2  A    between atoms: C4_9  and  C5_10 
REMARK    3  A    between atoms: C5_10  and  C8_22 
REMARK    4  A    between atoms: N3_11  and  O1_13 
REMARK    5  A    between atoms: O1_13  and  C6_14 
REMARK    6  A    between atoms: C6_14  and  N5_18 
REMARK    7  A    between atoms: C8_22  and  O2_23 
REMARK    8  A    between atoms: C8_22  and  O3_25 
REMARK    9  A    between atoms: C9_28  and  C10_29 
REMARK   10  A    between atoms: C10_29  and  O5_30 
REMARK   11  A    between atoms: O5_30  and  C11_31 
REMARK       I    between atoms: C11_31  and  N7_33 
REMARK   12  A    between atoms: N7_33  and  N8_35 
REMARK   13  A    between atoms: N8_35  and  C12_37 
ROOT
HETATM    1  N5  UNL     1     -20.703   4.643  25.112  1.00  0.00    -0.258 N 
ATOM      2  H5  UNL     1     -21.224   5.306  24.537  1.00  0.00     0.181 HD
HETATM    3  C7  UNL     1     -19.820   3.766  24.476  1.00  0.00     0.185 C 
HETATM    4  N6  UNL     1     -19.091   3.051  23.932  1.00  0.00    -0.172 NA
ENDROOT
BRANCH   1   5
HETATM    5  C6  UNL     1     -20.914   4.657  26.521  1.00  0.00     0.249 C 
HETATM    6  N4  UNL     1     -22.054   4.895  27.018  1.00  0.00    -0.363 N 
ATOM      7  H42 UNL     1     -22.205   4.905  28.027  1.00  0.00     0.159 HD
ATOM      8  H41 UNL     1     -22.831   5.081  26.385  1.00  0.00     0.159 HD
BRANCH   5   9
HETATM    9  O1  UNL     1     -19.846   4.402  27.392  1.00  0.00    -0.200 OA
BRANCH   9  10
HETATM   10  N3  UNL     1     -19.169   5.407  28.025  1.00  0.00    -0.253 N 
HETATM   11  C5  UNL     1     -17.939   5.667  27.800  1.00  0.00     0.138 C 
ATOM     12  H3  UNL     1     -19.670   5.976  28.708  1.00  0.00     0.195 HD
BRANCH  11  13
HETATM   13  C4  UNL     1     -17.290   6.761  28.522  1.00  0.00     0.178 A 
HETATM   14  N2  UNL     1     -16.742   6.742  29.745  1.00  0.00    -0.331 N 
HETATM   15  C3  UNL     1     -16.239   7.985  30.048  1.00  0.00     0.088 A 
ATOM     16  H2  UNL     1     -16.704   5.927  30.358  1.00  0.00     0.168 HD
HETATM   17  C9  UNL     1     -16.514   8.733  28.954  1.00  0.00     0.108 A 
HETATM   18  O4  UNL     1     -17.143   7.962  28.065  1.00  0.00    -0.291 OA
BRANCH  15  19
HETATM   19  C2  UNL     1     -15.578   8.362  31.268  1.00  0.00     0.028 C 
HETATM   20  C1  UNL     1     -14.136   8.213  31.516  1.00  0.00     0.070 C 
HETATM   21  N1  UNL     1     -16.309   8.875  32.221  1.00  0.00    -0.401 N 
ATOM     22  H12 UNL     1     -15.840   9.142  33.087  1.00  0.00     0.156 HD
ATOM     23  H11 UNL     1     -17.309   8.979  32.049  1.00  0.00     0.156 HD
ENDBRANCH  15  19
BRANCH  17  24
HETATM   24  C10 UNL     1     -16.206  10.161  28.703  1.00  0.00     0.248 C 
BRANCH  24  25
HETATM   25  O5  UNL     1     -14.800  10.313  28.407  1.00  0.00    -0.296 OA
BRANCH  25  26
HETATM   26  C11 UNL     1     -14.357  10.767  27.192  1.00  0.00     0.379 C 
HETATM   27  O6  UNL     1     -13.155  10.646  26.849  1.00  0.00    -0.237 OA
HETATM   28  N7  UNL     1     -15.237  11.394  26.266  1.00  0.00    -0.243 N 
ATOM     29  H7  UNL     1     -16.219  11.504  26.519  1.00  0.00     0.192 HD
BRANCH  28  30
HETATM   30  N8  UNL     1     -14.806  11.864  25.024  1.00  0.00    -0.266 N 
ATOM     31  H8  UNL     1     -14.387  12.791  24.957  1.00  0.00     0.190 HD
BRANCH  30  32
HETATM   32  C12 UNL     1     -14.942  11.071  23.848  1.00  0.00     0.207 C 
HETATM   33  N9  UNL     1     -15.252  11.478  22.673  1.00  0.00    -0.345 N 
HETATM   34  C13 UNL     1     -15.283  10.374  21.777  1.00  0.00     0.259 C 
ATOM     35  H9  UNL     1     -15.445  12.447  22.419  1.00  0.00     0.164 HD
HETATM   36  N10 UNL     1     -15.238   9.153  22.581  1.00  0.00    -0.119 NA
HETATM   37  N11 UNL     1     -14.749   9.669  23.804  1.00  0.00    -0.273 N 
ATOM     38  H11 UNL     1     -14.322   9.114  24.545  1.00  0.00     0.185 HD
ENDBRANCH  30  32
ENDBRANCH  28  30
ENDBRANCH  25  26
ENDBRANCH  24  25
ENDBRANCH  17  24
ENDBRANCH  11  13
BRANCH  11  39
HETATM   39  C8  UNL     1     -17.184   4.859  26.818  1.00  0.00     0.311 C 
BRANCH  39  40
HETATM   40  O2  UNL     1     -15.894   5.352  26.627  1.00  0.00    -0.366 OA
ATOM     41  H2  UNL     1     -15.521   5.687  27.434  1.00  0.00     0.213 HD
ENDBRANCH  39  40
BRANCH  39  42
HETATM   42  O3  UNL     1     -17.244   3.508  27.046  1.00  0.00    -0.366 OA
ATOM     43  H3  UNL     1     -16.610   3.006  26.548  1.00  0.00     0.213 HD
ENDBRANCH  39  42
ENDBRANCH  11  39
ENDBRANCH   9  10
ENDBRANCH   5   9
ENDBRANCH   1   5
TORSDOF 13
ENDMDL
