MODEL 1
REMARK VINA RESULT: -8.396052566      0.000      0.000
REMARK  9 active torsions:
REMARK  status: ('A' for Active; 'I' for Inactive)
REMARK    1  A    between atoms: O1_2  and  C2_3 
REMARK    2  A    between atoms: C2_3  and  C3_5 
REMARK    3  A    between atoms: N4_12  and  C6_13 
REMARK    4  A    between atoms: C6_13  and  C7_14 
REMARK    5  A    between atoms: C7_14  and  O3_15 
REMARK    6  A    between atoms: C7_14  and  C8_17 
REMARK    7  A    between atoms: C10_21  and  N6_22 
REMARK    8  A    between atoms: N11_37  and  C15_38 
REMARK    9  A    between atoms: C15_38  and  N12_39 
ROOT
HETATM    1  C3  UNL     1     -14.695  10.238  27.017  1.00  0.00     0.167 A 
HETATM    2  N1  UNL     1     -14.443  10.794  28.197  1.00  0.00    -0.180 N 
ATOM      3  H1  UNL     1     -14.175  11.763  28.364  1.00  0.00     0.184 HD
HETATM    4  C4  UNL     1     -14.607   9.843  29.125  1.00  0.00     0.711 A 
HETATM    5  N2  UNL     1     -14.968   8.653  28.566  1.00  0.00    -0.062 N 
HETATM    6  C5  UNL     1     -15.026   8.887  27.256  1.00  0.00     0.190 A 
HETATM    7  N3  UNL     1     -15.354   7.952  26.253  1.00  0.00    -0.077 NA
HETATM    8  N4  UNL     1     -15.239   7.422  29.191  1.00  0.00    -0.226 N 
HETATM    9  C12 UNL     1     -14.827   7.001  30.517  1.00  0.00     0.166 C 
HETATM   10  N8  UNL     1     -15.042   5.639  30.874  1.00  0.00    -0.079 NA
HETATM   11  C13 UNL     1     -14.298   7.753  31.466  1.00  0.00     0.133 C 
HETATM   12  N9  UNL     1     -13.998   7.052  32.652  1.00  0.00    -0.095 NA
HETATM   13  C14 UNL     1     -13.996   9.191  31.499  1.00  0.00     0.147 C 
HETATM   14  N10 UNL     1     -13.337   9.671  32.479  1.00  0.00    -0.383 N 
ATOM     15 1H10 UNL     1     -13.127  10.669  32.502  1.00  0.00     0.157 HD
ATOM     16 2H10 UNL     1     -13.049   9.001  33.193  1.00  0.00     0.157 HD
HETATM   17  N11 UNL     1     -14.398  10.129  30.499  1.00  0.00    -0.147 N 
ENDROOT
BRANCH   8  18
HETATM   18  C6  UNL     1     -16.019   6.513  28.470  1.00  0.00     0.156 C 
BRANCH  18  19
HETATM   19  C7  UNL     1     -17.466   6.441  28.571  1.00  0.00     0.100 C 
BRANCH  19  20
HETATM   20  O3  UNL     1     -17.879   7.000  29.697  1.00  0.00    -0.358 OA
ATOM     21  H3  UNL     1     -17.749   7.941  29.668  1.00  0.00     0.217 HD
ENDBRANCH  19  20
BRANCH  19  22
HETATM   22  C8  UNL     1     -18.491   5.927  27.767  1.00  0.00     0.083 A 
HETATM   23  C9  UNL     1     -18.720   4.596  27.540  1.00  0.00     0.126 A 
HETATM   24  N5  UNL     1     -19.713   4.135  26.714  1.00  0.00    -0.201 N 
HETATM   25  C10 UNL     1     -20.504   5.031  26.096  1.00  0.00     0.678 A 
ATOM     26  H5  UNL     1     -19.850   3.134  26.572  1.00  0.00     0.183 HD
HETATM   27  N7  UNL     1     -20.321   6.343  26.285  1.00  0.00    -0.156 N 
HETATM   28  C11 UNL     1     -19.357   6.771  27.084  1.00  0.00     0.274 A 
ATOM     29  H7  UNL     1     -20.925   7.015  25.811  1.00  0.00     0.187 HD
HETATM   30  O4  UNL     1     -19.217   8.035  27.238  1.00  0.00    -0.267 OA
BRANCH  25  31
HETATM   31  N6  UNL     1     -21.467   4.646  25.296  1.00  0.00    -0.234 N 
ATOM     32  H62 UNL     1     -22.314   4.256  25.711  1.00  0.00     0.174 HD
ATOM     33  H61 UNL     1     -21.378   4.731  24.284  1.00  0.00     0.174 HD
ENDBRANCH  25  31
ENDBRANCH  19  22
ENDBRANCH  18  19
ENDBRANCH   8  18
BRANCH  17  34
HETATM   34  C15 UNL     1     -14.611  11.504  30.958  1.00  0.00     0.289 C 
BRANCH  34  35
HETATM   35  N12 UNL     1     -16.007  11.586  31.328  1.00  0.00    -0.324 N 
HETATM   36  N13 UNL     1     -16.401  12.413  32.185  1.00  0.00    -0.348 N 
ATOM     37 2H13 UNL     1     -15.713  13.030  32.618  1.00  0.00     0.176 HD
ATOM     38 1H13 UNL     1     -17.385  12.471  32.447  1.00  0.00     0.176 HD
ATOM     39  H12 UNL     1     -16.680  10.962  30.886  1.00  0.00     0.181 HD
ENDBRANCH  34  35
ENDBRANCH  17  34
BRANCH   1  40
HETATM   40  C2  UNL     1     -14.658  10.821  25.690  1.00  0.00     0.313 C 
HETATM   41  O2  UNL     1     -15.225  11.956  25.544  1.00  0.00    -0.257 OA
BRANCH  40  42
HETATM   42  O1  UNL     1     -14.043  10.189  24.634  1.00  0.00    -0.321 OA
HETATM   43  C1  UNL     1     -14.644  10.104  23.370  1.00  0.00     0.213 C 
ENDBRANCH  40  42
ENDBRANCH   1  40
TORSDOF 9
ENDMDL
MODEL 2
REMARK VINA RESULT: -8.326755978      2.334      5.998
REMARK  9 active torsions:
REMARK  status: ('A' for Active; 'I' for Inactive)
REMARK    1  A    between atoms: O1_2  and  C2_3 
REMARK    2  A    between atoms: C2_3  and  C3_5 
REMARK    3  A    between atoms: N4_12  and  C6_13 
REMARK    4  A    between atoms: C6_13  and  C7_14 
REMARK    5  A    between atoms: C7_14  and  O3_15 
REMARK    6  A    between atoms: C7_14  and  C8_17 
REMARK    7  A    between atoms: C10_21  and  N6_22 
REMARK    8  A    between atoms: N11_37  and  C15_38 
REMARK    9  A    between atoms: C15_38  and  N12_39 
ROOT
HETATM    1  C3  UNL     1     -16.680   6.959  29.426  1.00  0.00     0.167 A 
HETATM    2  N1  UNL     1     -16.170   7.701  30.401  1.00  0.00    -0.180 N 
ATOM      3  H1  UNL     1     -16.374   7.615  31.397  1.00  0.00     0.184 HD
HETATM    4  C4  UNL     1     -15.339   8.584  29.834  1.00  0.00     0.711 A 
HETATM    5  N2  UNL     1     -15.294   8.432  28.480  1.00  0.00    -0.062 N 
HETATM    6  C5  UNL     1     -16.124   7.424  28.215  1.00  0.00     0.190 A 
HETATM    7  N3  UNL     1     -16.420   6.897  26.941  1.00  0.00    -0.077 NA
HETATM    8  N4  UNL     1     -14.547   9.150  27.528  1.00  0.00    -0.226 N 
HETATM    9  C12 UNL     1     -13.953  10.464  27.687  1.00  0.00     0.166 C 
HETATM   10  N8  UNL     1     -13.406  11.086  26.528  1.00  0.00    -0.079 NA
HETATM   11  C13 UNL     1     -13.823  11.152  28.807  1.00  0.00     0.133 C 
HETATM   12  N9  UNL     1     -13.204  12.408  28.640  1.00  0.00    -0.095 NA
HETATM   13  C14 UNL     1     -14.192  10.819  30.190  1.00  0.00     0.147 C 
HETATM   14  N10 UNL     1     -14.110  11.714  31.095  1.00  0.00    -0.383 N 
ATOM     15 1H10 UNL     1     -14.365  11.482  32.055  1.00  0.00     0.157 HD
ATOM     16 2H10 UNL     1     -13.789  12.631  30.785  1.00  0.00     0.157 HD
HETATM   17  N11 UNL     1     -14.641   9.534  30.625  1.00  0.00    -0.147 N 
ENDROOT
BRANCH   8  18
HETATM   18  C6  UNL     1     -14.322   8.516  26.302  1.00  0.00     0.156 C 
BRANCH  18  19
HETATM   19  C7  UNL     1     -15.041   8.846  25.084  1.00  0.00     0.100 C 
BRANCH  19  20
HETATM   20  O3  UNL     1     -15.983   7.949  24.847  1.00  0.00    -0.358 OA
ATOM     21  H3  UNL     1     -16.077   7.805  23.912  1.00  0.00     0.217 HD
ENDBRANCH  19  20
BRANCH  19  22
HETATM   22  C8  UNL     1     -14.960   9.872  24.134  1.00  0.00     0.083 A 
HETATM   23  C9  UNL     1     -14.816  11.202  24.423  1.00  0.00     0.126 A 
HETATM   24  N5  UNL     1     -14.778  12.180  23.461  1.00  0.00    -0.201 N 
HETATM   25  C10 UNL     1     -14.888  11.817  22.170  1.00  0.00     0.678 A 
ATOM     26  H5  UNL     1     -14.669  13.161  23.719  1.00  0.00     0.183 HD
HETATM   27  N7  UNL     1     -15.031  10.529  21.836  1.00  0.00    -0.156 N 
HETATM   28  C11 UNL     1     -15.065   9.599  22.776  1.00  0.00     0.274 A 
ATOM     29  H7  UNL     1     -15.112  10.264  20.854  1.00  0.00     0.187 HD
HETATM   30  O4  UNL     1     -15.203   8.378  22.413  1.00  0.00    -0.267 OA
BRANCH  25  31
HETATM   31  N6  UNL     1     -14.858  12.710  21.212  1.00  0.00    -0.234 N 
ATOM     32  H62 UNL     1     -15.744  13.062  20.851  1.00  0.00     0.174 HD
ATOM     33  H61 UNL     1     -13.974  13.047  20.833  1.00  0.00     0.174 HD
ENDBRANCH  25  31
ENDBRANCH  19  22
ENDBRANCH  18  19
ENDBRANCH   8  18
BRANCH  17  34
HETATM   34  C15 UNL     1     -14.338   9.184  32.015  1.00  0.00     0.289 C 
BRANCH  34  35
HETATM   35  N12 UNL     1     -13.011   8.612  31.999  1.00  0.00    -0.324 N 
HETATM   36  N13 UNL     1     -12.241   8.737  32.983  1.00  0.00    -0.348 N 
ATOM     37 2H13 UNL     1     -12.572   9.254  33.797  1.00  0.00     0.176 HD
ATOM     38 1H13 UNL     1     -11.304   8.334  32.972  1.00  0.00     0.176 HD
ATOM     39  H12 UNL     1     -12.695   8.099  31.177  1.00  0.00     0.181 HD
ENDBRANCH  34  35
ENDBRANCH  17  34
BRANCH   1  40
HETATM   40  C2  UNL     1     -17.632   5.867  29.491  1.00  0.00     0.313 C 
HETATM   41  O2  UNL     1     -17.156   4.701  29.704  1.00  0.00    -0.257 OA
BRANCH  40  42
HETATM   42  O1  UNL     1     -18.984   6.069  29.333  1.00  0.00    -0.321 OA
HETATM   43  C1  UNL     1     -19.651   5.723  28.150  1.00  0.00     0.213 C 
ENDBRANCH  40  42
ENDBRANCH   1  40
TORSDOF 9
ENDMDL
MODEL 3
REMARK VINA RESULT: -8.241057087      1.112      1.178
REMARK  9 active torsions:
REMARK  status: ('A' for Active; 'I' for Inactive)
REMARK    1  A    between atoms: O1_2  and  C2_3 
REMARK    2  A    between atoms: C2_3  and  C3_5 
REMARK    3  A    between atoms: N4_12  and  C6_13 
REMARK    4  A    between atoms: C6_13  and  C7_14 
REMARK    5  A    between atoms: C7_14  and  O3_15 
REMARK    6  A    between atoms: C7_14  and  C8_17 
REMARK    7  A    between atoms: C10_21  and  N6_22 
REMARK    8  A    between atoms: N11_37  and  C15_38 
REMARK    9  A    between atoms: C15_38  and  N12_39 
ROOT
HETATM    1  C3  UNL     1     -14.566  10.532  27.959  1.00  0.00     0.167 A 
HETATM    2  N1  UNL     1     -14.435  10.944  29.214  1.00  0.00    -0.180 N 
ATOM      3  H1  UNL     1     -14.268  11.902  29.522  1.00  0.00     0.184 HD
HETATM    4  C4  UNL     1     -14.562   9.868  30.000  1.00  0.00     0.711 A 
HETATM    5  N2  UNL     1     -14.778   8.737  29.270  1.00  0.00    -0.062 N 
HETATM    6  C5  UNL     1     -14.782   9.138  27.999  1.00  0.00     0.190 A 
HETATM    7  N3  UNL     1     -14.963   8.321  26.865  1.00  0.00    -0.077 NA
HETATM    8  N4  UNL     1     -14.967   7.415  29.712  1.00  0.00    -0.226 N 
HETATM    9  C12 UNL     1     -14.595   6.857  30.998  1.00  0.00     0.166 C 
HETATM   10  N8  UNL     1     -14.702   5.446  31.162  1.00  0.00    -0.079 NA
HETATM   11  C13 UNL     1     -14.193   7.518  32.070  1.00  0.00     0.133 C 
HETATM   12  N9  UNL     1     -13.897   6.692  33.174  1.00  0.00    -0.095 NA
HETATM   13  C14 UNL     1     -14.029   8.958  32.307  1.00  0.00     0.147 C 
HETATM   14  N10 UNL     1     -13.474   9.358  33.384  1.00  0.00    -0.383 N 
ATOM     15 1H10 UNL     1     -13.360  10.358  33.549  1.00  0.00     0.157 HD
ATOM     16 2H10 UNL     1     -13.167   8.625  34.024  1.00  0.00     0.157 HD
HETATM   17  N11 UNL     1     -14.459   9.985  31.411  1.00  0.00    -0.147 N 
ENDROOT
BRANCH   8  18
HETATM   18  C6  UNL     1     -15.617   6.548  28.829  1.00  0.00     0.156 C 
BRANCH  18  19
HETATM   19  C7  UNL     1     -17.062   6.459  28.708  1.00  0.00     0.100 C 
BRANCH  19  20
HETATM   20  O3  UNL     1     -17.648   7.079  29.719  1.00  0.00    -0.358 OA
ATOM     21  H3  UNL     1     -18.251   6.494  30.162  1.00  0.00     0.217 HD
ENDBRANCH  19  20
BRANCH  19  22
HETATM   22  C8  UNL     1     -17.946   5.880  27.788  1.00  0.00     0.083 A 
HETATM   23  C9  UNL     1     -18.202   4.540  27.680  1.00  0.00     0.126 A 
HETATM   24  N5  UNL     1     -19.048   4.011  26.739  1.00  0.00    -0.201 N 
HETATM   25  C10 UNL     1     -19.658   4.847  25.879  1.00  0.00     0.678 A 
ATOM     26  H5  UNL     1     -19.211   3.004  26.692  1.00  0.00     0.183 HD
HETATM   27  N7  UNL     1     -19.441   6.166  25.944  1.00  0.00    -0.156 N 
HETATM   28  C11 UNL     1     -18.621   6.660  26.858  1.00  0.00     0.274 A 
ATOM     29  H7  UNL     1     -19.909   6.791  25.288  1.00  0.00     0.187 HD
HETATM   30  O4  UNL     1     -18.442   7.928  26.886  1.00  0.00    -0.267 OA
BRANCH  25  31
HETATM   31  N6  UNL     1     -20.475   4.394  24.961  1.00  0.00    -0.234 N 
ATOM     32  H62 UNL     1     -21.471   4.588  25.061  1.00  0.00     0.174 HD
ATOM     33  H61 UNL     1     -20.129   3.862  24.164  1.00  0.00     0.174 HD
ENDBRANCH  25  31
ENDBRANCH  19  22
ENDBRANCH  18  19
ENDBRANCH   8  18
BRANCH  17  34
HETATM   34  C15 UNL     1     -14.825  11.263  32.026  1.00  0.00     0.289 C 
BRANCH  34  35
HETATM   35  N12 UNL     1     -13.658  12.108  31.907  1.00  0.00    -0.324 N 
HETATM   36  N13 UNL     1     -13.187  12.704  32.905  1.00  0.00    -0.348 N 
ATOM     37 2H13 UNL     1     -13.646  12.580  33.808  1.00  0.00     0.176 HD
ATOM     38 1H13 UNL     1     -12.363  13.301  32.822  1.00  0.00     0.176 HD
ATOM     39  H12 UNL     1     -13.212  12.222  30.997  1.00  0.00     0.181 HD
ENDBRANCH  34  35
ENDBRANCH  17  34
BRANCH   1  40
HETATM   40  C2  UNL     1     -14.507  11.288  26.723  1.00  0.00     0.313 C 
HETATM   41  O2  UNL     1     -13.592  12.175  26.634  1.00  0.00    -0.257 OA
BRANCH  40  42
HETATM   42  O1  UNL     1     -15.390  11.067  25.691  1.00  0.00    -0.321 OA
HETATM   43  C1  UNL     1     -15.031  11.274  24.352  1.00  0.00     0.213 C 
ENDBRANCH  40  42
ENDBRANCH   1  40
TORSDOF 9
ENDMDL
MODEL 4
REMARK VINA RESULT: -8.134047158      1.434      1.468
REMARK  9 active torsions:
REMARK  status: ('A' for Active; 'I' for Inactive)
REMARK    1  A    between atoms: O1_2  and  C2_3 
REMARK    2  A    between atoms: C2_3  and  C3_5 
REMARK    3  A    between atoms: N4_12  and  C6_13 
REMARK    4  A    between atoms: C6_13  and  C7_14 
REMARK    5  A    between atoms: C7_14  and  O3_15 
REMARK    6  A    between atoms: C7_14  and  C8_17 
REMARK    7  A    between atoms: C10_21  and  N6_22 
REMARK    8  A    between atoms: N11_37  and  C15_38 
REMARK    9  A    between atoms: C15_38  and  N12_39 
ROOT
HETATM    1  C3  UNL     1     -14.748  10.623  27.616  1.00  0.00     0.167 A 
HETATM    2  N1  UNL     1     -14.953  11.150  28.817  1.00  0.00    -0.180 N 
ATOM      3  H1  UNL     1     -15.028  12.143  29.037  1.00  0.00     0.184 HD
HETATM    4  C4  UNL     1     -15.042  10.135  29.686  1.00  0.00     0.711 A 
HETATM    5  N2  UNL     1     -14.896   8.930  29.065  1.00  0.00    -0.062 N 
HETATM    6  C5  UNL     1     -14.713   9.221  27.778  1.00  0.00     0.190 A 
HETATM    7  N3  UNL     1     -14.508   8.297  26.732  1.00  0.00    -0.077 NA
HETATM    8  N4  UNL     1     -14.931   7.636  29.616  1.00  0.00    -0.226 N 
HETATM    9  C12 UNL     1     -14.734   7.266  31.004  1.00  0.00     0.166 C 
HETATM   10  N8  UNL     1     -14.616   5.880  31.309  1.00  0.00    -0.079 NA
HETATM   11  C13 UNL     1     -14.686   8.076  32.047  1.00  0.00     0.133 C 
HETATM   12  N9  UNL     1     -14.478   7.416  33.276  1.00  0.00    -0.095 NA
HETATM   13  C14 UNL     1     -14.836   9.535  32.142  1.00  0.00     0.147 C 
HETATM   14  N10 UNL     1     -14.595  10.120  33.248  1.00  0.00    -0.383 N 
ATOM     15 1H10 UNL     1     -14.700  11.133  33.314  1.00  0.00     0.157 HD
ATOM     16 2H10 UNL     1     -14.298   9.517  34.016  1.00  0.00     0.157 HD
HETATM   17  N11 UNL     1     -15.252  10.381  31.068  1.00  0.00    -0.147 N 
ENDROOT
BRANCH   8  18
HETATM   18  C6  UNL     1     -15.219   6.589  28.734  1.00  0.00     0.156 C 
BRANCH  18  19
HETATM   19  C7  UNL     1     -16.564   6.112  28.468  1.00  0.00     0.100 C 
BRANCH  19  20
HETATM   20  O3  UNL     1     -17.399   6.538  29.401  1.00  0.00    -0.358 OA
ATOM     21  H3  UNL     1     -17.078   7.343  29.792  1.00  0.00     0.217 HD
ENDBRANCH  19  20
BRANCH  19  22
HETATM   22  C8  UNL     1     -17.157   5.325  27.472  1.00  0.00     0.083 A 
HETATM   23  C9  UNL     1     -17.155   3.956  27.447  1.00  0.00     0.126 A 
HETATM   24  N5  UNL     1     -17.717   3.223  26.433  1.00  0.00    -0.201 N 
HETATM   25  C10 UNL     1     -18.298   3.877  25.412  1.00  0.00     0.678 A 
ATOM     26  H5  UNL     1     -17.693   2.202  26.452  1.00  0.00     0.183 HD
HETATM   27  N7  UNL     1     -18.326   5.215  25.389  1.00  0.00    -0.156 N 
HETATM   28  C11 UNL     1     -17.780   5.907  26.376  1.00  0.00     0.274 A 
ATOM     29  H7  UNL     1     -18.770   5.701  24.611  1.00  0.00     0.187 HD
HETATM   30  O4  UNL     1     -17.829   7.185  26.316  1.00  0.00    -0.267 OA
BRANCH  25  31
HETATM   31  N6  UNL     1     -18.849   3.226  24.417  1.00  0.00    -0.234 N 
ATOM     32  H62 UNL     1     -18.337   2.446  24.006  1.00  0.00     0.174 HD
ATOM     33  H61 UNL     1     -19.767   3.489  24.060  1.00  0.00     0.174 HD
ENDBRANCH  25  31
ENDBRANCH  19  22
ENDBRANCH  18  19
ENDBRANCH   8  18
BRANCH  17  34
HETATM   34  C15 UNL     1     -15.961  11.604  31.451  1.00  0.00     0.289 C 
BRANCH  34  35
HETATM   35  N12 UNL     1     -17.368  11.312  31.294  1.00  0.00    -0.324 N 
HETATM   36  N13 UNL     1     -18.238  11.958  31.928  1.00  0.00    -0.348 N 
ATOM     37 2H13 UNL     1     -17.930  12.697  32.559  1.00  0.00     0.176 HD
ATOM     38 1H13 UNL     1     -19.231  11.752  31.818  1.00  0.00     0.176 HD
ATOM     39  H12 UNL     1     -17.659  10.568  30.659  1.00  0.00     0.181 HD
ENDBRANCH  34  35
ENDBRANCH  17  34
BRANCH   1  40
HETATM   40  C2  UNL     1     -14.576  11.275  26.333  1.00  0.00     0.313 C 
HETATM   41  O2  UNL     1     -13.623  12.121  26.241  1.00  0.00    -0.257 OA
BRANCH  40  42
HETATM   42  O1  UNL     1     -15.394  11.002  25.261  1.00  0.00    -0.321 OA
HETATM   43  C1  UNL     1     -15.036  11.347  23.950  1.00  0.00     0.213 C 
ENDBRANCH  40  42
ENDBRANCH   1  40
TORSDOF 9
ENDMDL
MODEL 5
REMARK VINA RESULT: -8.005171201      1.250      1.642
REMARK  9 active torsions:
REMARK  status: ('A' for Active; 'I' for Inactive)
REMARK    1  A    between atoms: O1_2  and  C2_3 
REMARK    2  A    between atoms: C2_3  and  C3_5 
REMARK    3  A    between atoms: N4_12  and  C6_13 
REMARK    4  A    between atoms: C6_13  and  C7_14 
REMARK    5  A    between atoms: C7_14  and  O3_15 
REMARK    6  A    between atoms: C7_14  and  C8_17 
REMARK    7  A    between atoms: C10_21  and  N6_22 
REMARK    8  A    between atoms: N11_37  and  C15_38 
REMARK    9  A    between atoms: C15_38  and  N12_39 
ROOT
HETATM    1  C3  UNL     1     -14.513  10.707  27.978  1.00  0.00     0.167 A 
HETATM    2  N1  UNL     1     -14.373  11.108  29.236  1.00  0.00    -0.180 N 
ATOM      3  H1  UNL     1     -14.201  12.063  29.551  1.00  0.00     0.184 HD
HETATM    4  C4  UNL     1     -14.499  10.026  30.013  1.00  0.00     0.711 A 
HETATM    5  N2  UNL     1     -14.723   8.902  29.275  1.00  0.00    -0.062 N 
HETATM    6  C5  UNL     1     -14.734   9.314  28.008  1.00  0.00     0.190 A 
HETATM    7  N3  UNL     1     -14.925   8.507  26.867  1.00  0.00    -0.077 NA
HETATM    8  N4  UNL     1     -14.915   7.577  29.707  1.00  0.00    -0.226 N 
HETATM    9  C12 UNL     1     -14.536   7.007  30.986  1.00  0.00     0.166 C 
HETATM   10  N8  UNL     1     -14.647   5.595  31.138  1.00  0.00    -0.079 NA
HETATM   11  C13 UNL     1     -14.126   7.657  32.061  1.00  0.00     0.133 C 
HETATM   12  N9  UNL     1     -13.826   6.821  33.157  1.00  0.00    -0.095 NA
HETATM   13  C14 UNL     1     -13.955   9.095  32.309  1.00  0.00     0.147 C 
HETATM   14  N10 UNL     1     -13.393   9.483  33.386  1.00  0.00    -0.383 N 
ATOM     15 1H10 UNL     1     -13.274  10.482  33.559  1.00  0.00     0.157 HD
ATOM     16 2H10 UNL     1     -13.084   8.744  34.018  1.00  0.00     0.157 HD
HETATM   17  N11 UNL     1     -14.387  10.130  31.424  1.00  0.00    -0.147 N 
ENDROOT
BRANCH   8  18
HETATM   18  C6  UNL     1     -15.573   6.719  28.820  1.00  0.00     0.156 C 
BRANCH  18  19
HETATM   19  C7  UNL     1     -17.018   6.629  28.715  1.00  0.00     0.100 C 
BRANCH  19  20
HETATM   20  O3  UNL     1     -17.594   7.203  29.759  1.00  0.00    -0.358 OA
ATOM     21  H3  UNL     1     -18.531   7.045  29.750  1.00  0.00     0.217 HD
ENDBRANCH  19  20
BRANCH  19  22
HETATM   22  C8  UNL     1     -17.912   6.086  27.783  1.00  0.00     0.083 A 
HETATM   23  C9  UNL     1     -18.374   6.731  26.667  1.00  0.00     0.126 A 
HETATM   24  N5  UNL     1     -19.278   6.175  25.799  1.00  0.00    -0.201 N 
HETATM   25  C10 UNL     1     -19.736   4.936  26.052  1.00  0.00     0.678 A 
ATOM     26  H5  UNL     1     -19.597   6.691  24.978  1.00  0.00     0.183 HD
HETATM   27  N7  UNL     1     -19.316   4.263  27.130  1.00  0.00    -0.156 N 
HETATM   28  C11 UNL     1     -18.443   4.815  27.958  1.00  0.00     0.274 A 
ATOM     29  H7  UNL     1     -19.668   3.324  27.313  1.00  0.00     0.187 HD
HETATM   30  O4  UNL     1     -18.067   4.136  28.977  1.00  0.00    -0.267 OA
BRANCH  25  31
HETATM   31  N6  UNL     1     -20.601   4.358  25.256  1.00  0.00    -0.234 N 
ATOM     32  H62 UNL     1     -20.650   4.671  24.286  1.00  0.00     0.174 HD
ATOM     33  H61 UNL     1     -21.211   3.615  25.592  1.00  0.00     0.174 HD
ENDBRANCH  25  31
ENDBRANCH  19  22
ENDBRANCH  18  19
ENDBRANCH   8  18
BRANCH  17  34
HETATM   34  C15 UNL     1     -14.745  11.404  32.052  1.00  0.00     0.289 C 
BRANCH  34  35
HETATM   35  N12 UNL     1     -13.546  12.211  32.023  1.00  0.00    -0.324 N 
HETATM   36  N13 UNL     1     -13.086  12.725  33.071  1.00  0.00    -0.348 N 
ATOM     37 2H13 UNL     1     -13.579  12.562  33.949  1.00  0.00     0.176 HD
ATOM     38 1H13 UNL     1     -12.239  13.294  33.051  1.00  0.00     0.176 HD
ATOM     39  H12 UNL     1     -13.066  12.365  31.136  1.00  0.00     0.181 HD
ENDBRANCH  34  35
ENDBRANCH  17  34
BRANCH   1  40
HETATM   40  C2  UNL     1     -14.459  11.473  26.748  1.00  0.00     0.313 C 
HETATM   41  O2  UNL     1     -13.518  12.331  26.645  1.00  0.00    -0.257 OA
BRANCH  40  42
HETATM   42  O1  UNL     1     -15.373  11.291  25.736  1.00  0.00    -0.321 OA
HETATM   43  C1  UNL     1     -14.985  11.229  24.390  1.00  0.00     0.213 C 
ENDBRANCH  40  42
ENDBRANCH   1  40
TORSDOF 9
ENDMDL
