MODEL 1
REMARK VINA RESULT: -9.735178955      0.000      0.000
REMARK  10 active torsions:
REMARK  status: ('A' for Active; 'I' for Inactive)
REMARK    1  A    between atoms: N2_4  and  N3_6 
REMARK    2  A    between atoms: N3_6  and  C1_8 
REMARK    3  A    between atoms: C1_8  and  C2_13 
REMARK    4  A    between atoms: N4_9  and  O1_11 
REMARK    5  A    between atoms: C2_13  and  S1_15 
REMARK    6  A    between atoms: S1_15  and  C3_16 
REMARK    7  A    between atoms: N5_18  and  C5_19 
REMARK    8  A    between atoms: C7_26  and  N8_27 
REMARK    9  A    between atoms: C8_34  and  N11_35 
REMARK       I    between atoms: N11_35  and  C9_37 
REMARK       I    between atoms: C9_37  and  N12_38 
REMARK       I    between atoms: C9_37  and  N13_42 
REMARK   10  A    between atoms: C11_47  and  O5_48 
ROOT
HETATM    1  C3  UNL     1     -14.826   9.440  26.071  1.00  0.00     0.058 A 
HETATM    2  C4  UNL     1     -15.941   8.640  25.934  1.00  0.00     0.138 A 
HETATM    3  N5  UNL     1     -16.717   8.351  27.007  1.00  0.00    -0.140 N 
HETATM    4  C8  UNL     1     -16.392   8.853  28.225  1.00  0.00     0.129 A 
HETATM    5  C10 UNL     1     -15.292   9.653  28.403  1.00  0.00     0.087 A 
HETATM    6  C11 UNL     1     -14.496   9.952  27.316  1.00  0.00     0.087 A 
ENDROOT
BRANCH   1   7
HETATM    7  S1  UNL     1     -13.822   9.810  24.662  1.00  0.00    -0.040 SA
BRANCH   7   8
HETATM    8  C2  UNL     1     -14.790   9.910  23.166  1.00  0.00     0.260 C 
HETATM    9  O2  UNL     1     -15.415   8.900  22.779  1.00  0.00    -0.276 OA
BRANCH   8  10
HETATM   10  C1  UNL     1     -14.834  11.164  22.427  1.00  0.00     0.199 C 
HETATM   11  N4  UNL     1     -15.276  11.205  21.225  1.00  0.00    -0.248 N 
ATOM     12  H4  UNL     1     -15.605  10.351  20.774  1.00  0.00     0.196 HD
BRANCH  10  13
HETATM   13  N3  UNL     1     -14.374  12.343  23.065  1.00  0.00    -0.266 N 
ATOM     14  H3  UNL     1     -14.831  12.819  23.843  1.00  0.00     0.190 HD
BRANCH  13  15
HETATM   15  N2  UNL     1     -13.206  12.733  22.455  1.00  0.00    -0.248 N 
HETATM   16  N1  UNL     1     -12.997  13.854  21.973  1.00  0.00    -0.331 N 
ATOM     17  H12 UNL     1     -13.759  14.528  22.044  1.00  0.00     0.178 HD
ATOM     18  H11 UNL     1     -12.130  14.143  21.520  1.00  0.00     0.178 HD
ATOM     19  H2  UNL     1     -12.455  12.046  22.394  1.00  0.00     0.207 HD
ENDBRANCH  13  15
ENDBRANCH  10  13
BRANCH  11  20
HETATM   20  O1  UNL     1     -15.309  12.389  20.546  1.00  0.00    -0.288 OA
ATOM     21  H1  UNL     1     -15.617  12.416  19.648  1.00  0.00     0.244 HD
ENDBRANCH  11  20
ENDBRANCH   8  10
ENDBRANCH   7   8
ENDBRANCH   1   7
BRANCH   6  22
HETATM   22  O5  UNL     1     -13.386  10.762  27.513  1.00  0.00    -0.359 OA
ATOM     23  H5  UNL     1     -13.140  11.082  28.373  1.00  0.00     0.217 HD
ENDBRANCH   6  22
BRANCH   3  24
HETATM   24  C5  UNL     1     -17.863   7.524  26.841  1.00  0.00     0.706 A 
HETATM   25  N6  UNL     1     -17.725   6.202  26.685  1.00  0.00    -0.171 N 
HETATM   26  C6  UNL     1     -18.793   5.357  26.523  1.00  0.00     0.167 A 
ATOM     27  H6  UNL     1     -16.785   5.806  26.687  1.00  0.00     0.186 HD
HETATM   28  N7  UNL     1     -18.606   4.106  26.371  1.00  0.00    -0.382 N 
HETATM   29  C7  UNL     1     -20.032   5.904  26.523  1.00  0.00     0.233 A 
ATOM     30  H72 UNL     1     -17.673   3.694  26.370  1.00  0.00     0.157 HD
ATOM     31  H71 UNL     1     -19.400   3.477  26.250  1.00  0.00     0.157 HD
HETATM   32  N9  UNL     1     -20.130   7.247  26.684  1.00  0.00    -0.263 N 
HETATM   33  N10 UNL     1     -19.087   8.041  26.839  1.00  0.00    -0.130 N 
ATOM     34  H9  UNL     1     -21.060   7.667  26.686  1.00  0.00     0.189 HD
ATOM     35  H10 UNL     1     -19.219   9.046  26.955  1.00  0.00     0.205 HD
BRANCH  29  36
HETATM   36  N8  UNL     1     -21.246   5.203  26.368  1.00  0.00    -0.092 N 
HETATM   37  O3  UNL     1     -22.079   4.977  27.252  1.00  0.00    -0.530 OA
HETATM   38  O4  UNL     1     -21.590   4.709  25.106  1.00  0.00    -0.530 OA
ENDBRANCH  29  36
ENDBRANCH   3  24
BRANCH   4  39
HETATM   39  N11 UNL     1     -17.163   8.536  29.173  1.00  0.00    -0.326 N 
HETATM   40  C9  UNL     1     -16.915   7.756  30.334  1.00  0.00     0.481 C 
HETATM   41  N12 UNL     1     -16.569   6.411  29.937  1.00  0.00    -0.033 N 
HETATM   42  N13 UNL     1     -15.867   8.309  31.179  1.00  0.00    -0.033 N 
ATOM     43 3H12 UNL     1     -17.276   5.991  29.332  1.00  0.00     0.278 HD
ATOM     44 2H12 UNL     1     -15.788   6.389  29.281  1.00  0.00     0.278 HD
ATOM     45 1H12 UNL     1     -16.391   5.851  30.771  1.00  0.00     0.278 HD
ATOM     46 3H13 UNL     1     -15.008   8.453  30.646  1.00  0.00     0.278 HD
ATOM     47 2H13 UNL     1     -16.072   9.277  31.428  1.00  0.00     0.278 HD
ATOM     48 1H13 UNL     1     -15.689   7.749  32.013  1.00  0.00     0.278 HD
ATOM     49  H11 UNL     1     -18.113   8.898  29.093  1.00  0.00     0.164 HD
ENDBRANCH   4  39
TORSDOF 10
ENDMDL
MODEL 2
REMARK VINA RESULT: -9.594201617      3.527      8.012
REMARK  10 active torsions:
REMARK  status: ('A' for Active; 'I' for Inactive)
REMARK    1  A    between atoms: N2_4  and  N3_6 
REMARK    2  A    between atoms: N3_6  and  C1_8 
REMARK    3  A    between atoms: C1_8  and  C2_13 
REMARK    4  A    between atoms: N4_9  and  O1_11 
REMARK    5  A    between atoms: C2_13  and  S1_15 
REMARK    6  A    between atoms: S1_15  and  C3_16 
REMARK    7  A    between atoms: N5_18  and  C5_19 
REMARK    8  A    between atoms: C7_26  and  N8_27 
REMARK    9  A    between atoms: C8_34  and  N11_35 
REMARK       I    between atoms: N11_35  and  C9_37 
REMARK       I    between atoms: C9_37  and  N12_38 
REMARK       I    between atoms: C9_37  and  N13_42 
REMARK   10  A    between atoms: C11_47  and  O5_48 
ROOT
HETATM    1  C3  UNL     1     -16.607   6.966  28.702  1.00  0.00     0.058 A 
HETATM    2  C4  UNL     1     -16.585   7.993  29.623  1.00  0.00     0.138 A 
HETATM    3  N5  UNL     1     -15.919   9.143  29.357  1.00  0.00    -0.140 N 
HETATM    4  C8  UNL     1     -15.269   9.282  28.174  1.00  0.00     0.129 A 
HETATM    5  C10 UNL     1     -15.266   8.285  27.232  1.00  0.00     0.087 A 
HETATM    6  C11 UNL     1     -15.941   7.111  27.494  1.00  0.00     0.087 A 
ENDROOT
BRANCH   1   7
HETATM    7  S1  UNL     1     -17.481   5.470  29.063  1.00  0.00    -0.040 SA
BRANCH   7   8
HETATM    8  C2  UNL     1     -19.118   5.472  28.353  1.00  0.00     0.260 C 
HETATM    9  O2  UNL     1     -20.093   5.757  29.080  1.00  0.00    -0.276 OA
BRANCH   8  10
HETATM   10  C1  UNL     1     -19.287   5.141  26.945  1.00  0.00     0.199 C 
HETATM   11  N4  UNL     1     -19.230   6.049  26.044  1.00  0.00    -0.248 N 
ATOM     12  H4  UNL     1     -19.064   7.020  26.309  1.00  0.00     0.196 HD
BRANCH  10  13
HETATM   13  N3  UNL     1     -19.517   3.789  26.591  1.00  0.00    -0.266 N 
ATOM     14  H3  UNL     1     -20.364   3.255  26.787  1.00  0.00     0.190 HD
BRANCH  13  15
HETATM   15  N2  UNL     1     -18.403   3.322  25.937  1.00  0.00    -0.248 N 
HETATM   16  N1  UNL     1     -18.403   2.810  24.809  1.00  0.00    -0.331 N 
ATOM     17  H12 UNL     1     -19.307   2.738  24.344  1.00  0.00     0.178 HD
ATOM     18  H11 UNL     1     -17.575   2.464  24.324  1.00  0.00     0.178 HD
ATOM     19  H2  UNL     1     -17.506   3.403  26.417  1.00  0.00     0.207 HD
ENDBRANCH  13  15
ENDBRANCH  10  13
BRANCH  11  20
HETATM   20  O1  UNL     1     -19.391   5.722  24.729  1.00  0.00    -0.288 OA
ATOM     21  H1  UNL     1     -19.087   6.312  24.049  1.00  0.00     0.244 HD
ENDBRANCH  11  20
ENDBRANCH   8  10
ENDBRANCH   7   8
ENDBRANCH   1   7
BRANCH   6  22
HETATM   22  O5  UNL     1     -15.928   6.112  26.532  1.00  0.00    -0.359 OA
ATOM     23  H5  UNL     1     -15.187   5.977  25.953  1.00  0.00     0.217 HD
ENDBRANCH   6  22
BRANCH   3  24
HETATM   24  C5  UNL     1     -15.912  10.188  30.321  1.00  0.00     0.706 A 
HETATM   25  N6  UNL     1     -14.756  10.635  30.824  1.00  0.00    -0.171 N 
HETATM   26  C6  UNL     1     -14.688  11.641  31.755  1.00  0.00     0.167 A 
ATOM     27  H6  UNL     1     -13.887  10.209  30.502  1.00  0.00     0.186 HD
HETATM   28  N7  UNL     1     -13.561  12.024  32.208  1.00  0.00    -0.382 N 
HETATM   29  C7  UNL     1     -15.854  12.192  32.169  1.00  0.00     0.233 A 
ATOM     30  H72 UNL     1     -12.683  11.609  31.896  1.00  0.00     0.157 HD
ATOM     31  H71 UNL     1     -13.510  12.771  32.899  1.00  0.00     0.157 HD
HETATM   32  N9  UNL     1     -17.005  11.711  31.635  1.00  0.00    -0.263 N 
HETATM   33  N10 UNL     1     -17.045  10.742  30.740  1.00  0.00    -0.130 N 
ATOM     34  H9  UNL     1     -17.887  12.122  31.942  1.00  0.00     0.189 HD
ATOM     35  H10 UNL     1     -17.940  10.419  30.373  1.00  0.00     0.205 HD
BRANCH  29  36
HETATM   36  N8  UNL     1     -15.989  13.228  33.115  1.00  0.00    -0.092 N 
HETATM   37  O3  UNL     1     -15.143  13.575  33.948  1.00  0.00    -0.530 OA
HETATM   38  O4  UNL     1     -17.170  13.976  33.142  1.00  0.00    -0.530 OA
ENDBRANCH  29  36
ENDBRANCH   3  24
BRANCH   4  39
HETATM   39  N11 UNL     1     -14.671  10.381  28.003  1.00  0.00    -0.326 N 
HETATM   40  C9  UNL     1     -14.275  11.032  26.804  1.00  0.00     0.481 C 
HETATM   41  N12 UNL     1     -13.316  10.204  26.109  1.00  0.00    -0.033 N 
HETATM   42  N13 UNL     1     -15.394  11.339  25.926  1.00  0.00    -0.033 N 
ATOM     43 3H12 UNL     1     -12.519   9.957  26.696  1.00  0.00     0.278 HD
ATOM     44 2H12 UNL     1     -13.668   9.262  25.940  1.00  0.00     0.278 HD
ATOM     45 1H12 UNL     1     -13.032  10.672  25.248  1.00  0.00     0.278 HD
ATOM     46 3H13 UNL     1     -15.937  10.500  25.723  1.00  0.00     0.278 HD
ATOM     47 2H13 UNL     1     -16.104  11.882  26.418  1.00  0.00     0.278 HD
ATOM     48 1H13 UNL     1     -15.110  11.807  25.065  1.00  0.00     0.278 HD
ATOM     49  H11 UNL     1     -14.435  10.880  28.861  1.00  0.00     0.164 HD
ENDBRANCH   4  39
TORSDOF 10
ENDMDL
MODEL 3
REMARK VINA RESULT: -9.558439730      3.505      7.941
REMARK  10 active torsions:
REMARK  status: ('A' for Active; 'I' for Inactive)
REMARK    1  A    between atoms: N2_4  and  N3_6 
REMARK    2  A    between atoms: N3_6  and  C1_8 
REMARK    3  A    between atoms: C1_8  and  C2_13 
REMARK    4  A    between atoms: N4_9  and  O1_11 
REMARK    5  A    between atoms: C2_13  and  S1_15 
REMARK    6  A    between atoms: S1_15  and  C3_16 
REMARK    7  A    between atoms: N5_18  and  C5_19 
REMARK    8  A    between atoms: C7_26  and  N8_27 
REMARK    9  A    between atoms: C8_34  and  N11_35 
REMARK       I    between atoms: N11_35  and  C9_37 
REMARK       I    between atoms: C9_37  and  N12_38 
REMARK       I    between atoms: C9_37  and  N13_42 
REMARK   10  A    between atoms: C11_47  and  O5_48 
ROOT
HETATM    1  C3  UNL     1     -16.582   6.854  28.648  1.00  0.00     0.058 A 
HETATM    2  C4  UNL     1     -16.621   7.893  29.555  1.00  0.00     0.138 A 
HETATM    3  N5  UNL     1     -15.942   9.041  29.316  1.00  0.00    -0.140 N 
HETATM    4  C8  UNL     1     -15.220   9.168  28.175  1.00  0.00     0.129 A 
HETATM    5  C10 UNL     1     -15.155   8.160  27.248  1.00  0.00     0.087 A 
HETATM    6  C11 UNL     1     -15.842   6.987  27.483  1.00  0.00     0.087 A 
ENDROOT
BRANCH   1   7
HETATM    7  S1  UNL     1     -17.472   5.359  28.973  1.00  0.00    -0.040 SA
BRANCH   7   8
HETATM    8  C2  UNL     1     -19.123   5.412  28.298  1.00  0.00     0.260 C 
HETATM    9  O2  UNL     1     -20.074   5.725  29.045  1.00  0.00    -0.276 OA
BRANCH   8  10
HETATM   10  C1  UNL     1     -19.331   5.090  26.893  1.00  0.00     0.199 C 
HETATM   11  N4  UNL     1     -19.361   6.011  26.003  1.00  0.00    -0.248 N 
ATOM     12  H4  UNL     1     -19.238   6.986  26.276  1.00  0.00     0.196 HD
BRANCH  10  13
HETATM   13  N3  UNL     1     -19.501   3.731  26.528  1.00  0.00    -0.266 N 
ATOM     14  H3  UNL     1     -20.323   3.159  26.720  1.00  0.00     0.190 HD
BRANCH  13  15
HETATM   15  N2  UNL     1     -18.367   3.319  25.871  1.00  0.00    -0.248 N 
HETATM   16  N1  UNL     1     -18.341   2.847  24.726  1.00  0.00    -0.331 N 
ATOM     17  H12 UNL     1     -19.239   2.766  24.249  1.00  0.00     0.178 HD
ATOM     18  H11 UNL     1     -17.500   2.542  24.238  1.00  0.00     0.178 HD
ATOM     19  H2  UNL     1     -17.479   3.409  26.363  1.00  0.00     0.207 HD
ENDBRANCH  13  15
ENDBRANCH  10  13
BRANCH  11  20
HETATM   20  O1  UNL     1     -19.558   5.692  24.691  1.00  0.00    -0.288 OA
ATOM     21  H1  UNL     1     -18.833   5.380  24.161  1.00  0.00     0.244 HD
ENDBRANCH  11  20
ENDBRANCH   8  10
ENDBRANCH   7   8
ENDBRANCH   1   7
BRANCH   6  22
HETATM   22  O5  UNL     1     -15.767   5.975  26.536  1.00  0.00    -0.359 OA
ATOM     23  H5  UNL     1     -14.942   5.572  26.291  1.00  0.00     0.217 HD
ENDBRANCH   6  22
BRANCH   3  24
HETATM   24  C5  UNL     1     -15.999  10.099  30.266  1.00  0.00     0.706 A 
HETATM   25  N6  UNL     1     -17.177  10.616  30.631  1.00  0.00    -0.171 N 
HETATM   26  C6  UNL     1     -17.292  11.635  31.543  1.00  0.00     0.167 A 
ATOM     27  H6  UNL     1     -18.027  10.237  30.213  1.00  0.00     0.186 HD
HETATM   28  N7  UNL     1     -18.439  12.097  31.850  1.00  0.00    -0.382 N 
HETATM   29  C7  UNL     1     -16.151  12.124  32.085  1.00  0.00     0.233 A 
ATOM     30  H72 UNL     1     -19.298  11.729  31.442  1.00  0.00     0.157 HD
ATOM     31  H71 UNL     1     -18.525  12.854  32.528  1.00  0.00     0.157 HD
HETATM   32  N9  UNL     1     -14.977  11.573  31.689  1.00  0.00    -0.263 N 
HETATM   33  N10 UNL     1     -14.891  10.592  30.809  1.00  0.00    -0.130 N 
ATOM     34  H9  UNL     1     -14.113  11.935  32.093  1.00  0.00     0.189 HD
ATOM     35  H10 UNL     1     -13.980  10.216  30.548  1.00  0.00     0.205 HD
BRANCH  29  36
HETATM   36  N8  UNL     1     -16.065  13.165  33.032  1.00  0.00    -0.092 N 
HETATM   37  O3  UNL     1     -16.970  13.948  33.344  1.00  0.00    -0.530 OA
HETATM   38  O4  UNL     1     -14.865  13.361  33.721  1.00  0.00    -0.530 OA
ENDBRANCH  29  36
ENDBRANCH   3  24
BRANCH   4  39
HETATM   39  N11 UNL     1     -14.615  10.267  28.027  1.00  0.00    -0.326 N 
HETATM   40  C9  UNL     1     -14.233  10.951  26.842  1.00  0.00     0.481 C 
HETATM   41  N12 UNL     1     -13.292  10.137  26.107  1.00  0.00    -0.033 N 
HETATM   42  N13 UNL     1     -15.364  11.293  25.992  1.00  0.00    -0.033 N 
ATOM     43 3H12 UNL     1     -12.488   9.866  26.674  1.00  0.00     0.278 HD
ATOM     44 2H12 UNL     1     -13.655   9.203  25.916  1.00  0.00     0.278 HD
ATOM     45 1H12 UNL     1     -13.018  10.629  25.256  1.00  0.00     0.278 HD
ATOM     46 3H13 UNL     1     -15.917  10.465  25.772  1.00  0.00     0.278 HD
ATOM     47 2H13 UNL     1     -16.061  11.826  26.511  1.00  0.00     0.278 HD
ATOM     48 1H13 UNL     1     -15.089  11.785  25.141  1.00  0.00     0.278 HD
ATOM     49  H11 UNL     1     -14.362  10.738  28.896  1.00  0.00     0.164 HD
ENDBRANCH   4  39
TORSDOF 10
ENDMDL
MODEL 4
REMARK VINA RESULT: -9.518465529      3.244      8.000
REMARK  10 active torsions:
REMARK  status: ('A' for Active; 'I' for Inactive)
REMARK    1  A    between atoms: N2_4  and  N3_6 
REMARK    2  A    between atoms: N3_6  and  C1_8 
REMARK    3  A    between atoms: C1_8  and  C2_13 
REMARK    4  A    between atoms: N4_9  and  O1_11 
REMARK    5  A    between atoms: C2_13  and  S1_15 
REMARK    6  A    between atoms: S1_15  and  C3_16 
REMARK    7  A    between atoms: N5_18  and  C5_19 
REMARK    8  A    between atoms: C7_26  and  N8_27 
REMARK    9  A    between atoms: C8_34  and  N11_35 
REMARK       I    between atoms: N11_35  and  C9_37 
REMARK       I    between atoms: C9_37  and  N12_38 
REMARK       I    between atoms: C9_37  and  N13_42 
REMARK   10  A    between atoms: C11_47  and  O5_48 
ROOT
HETATM    1  C3  UNL     1     -17.284   7.171  27.851  1.00  0.00     0.058 A 
HETATM    2  C4  UNL     1     -17.114   8.078  28.877  1.00  0.00     0.138 A 
HETATM    3  N5  UNL     1     -16.630   9.318  28.627  1.00  0.00    -0.140 N 
HETATM    4  C8  UNL     1     -16.311   9.670  27.356  1.00  0.00     0.129 A 
HETATM    5  C10 UNL     1     -16.465   8.798  26.308  1.00  0.00     0.087 A 
HETATM    6  C11 UNL     1     -16.957   7.533  26.553  1.00  0.00     0.087 A 
ENDROOT
BRANCH   1   7
HETATM    7  S1  UNL     1     -17.916   5.554  28.193  1.00  0.00    -0.040 SA
BRANCH   7   8
HETATM    8  C2  UNL     1     -19.568   5.340  27.551  1.00  0.00     0.260 C 
HETATM    9  O2  UNL     1     -20.541   5.690  28.253  1.00  0.00    -0.276 OA
BRANCH   8  10
HETATM   10  C1  UNL     1     -19.751   4.763  26.227  1.00  0.00     0.199 C 
HETATM   11  N4  UNL     1     -20.904   4.742  25.671  1.00  0.00    -0.248 N 
ATOM     12  H4  UNL     1     -21.711   5.134  26.157  1.00  0.00     0.196 HD
BRANCH  10  13
HETATM   13  N3  UNL     1     -18.622   4.221  25.563  1.00  0.00    -0.266 N 
ATOM     14  H3  UNL     1     -17.919   4.752  25.047  1.00  0.00     0.190 HD
BRANCH  13  15
HETATM   15  N2  UNL     1     -18.637   2.858  25.736  1.00  0.00    -0.248 N 
HETATM   16  N1  UNL     1     -18.673   2.026  24.820  1.00  0.00    -0.331 N 
ATOM     17  H12 UNL     1     -18.692   2.398  23.870  1.00  0.00     0.178 HD
ATOM     18  H11 UNL     1     -18.683   1.014  24.948  1.00  0.00     0.178 HD
ATOM     19  H2  UNL     1     -18.616   2.504  26.693  1.00  0.00     0.207 HD
ENDBRANCH  13  15
ENDBRANCH  10  13
BRANCH  11  20
HETATM   20  O1  UNL     1     -21.058   4.196  24.429  1.00  0.00    -0.288 OA
ATOM     21  H1  UNL     1     -21.751   3.568  24.266  1.00  0.00     0.244 HD
ENDBRANCH  11  20
ENDBRANCH   8  10
ENDBRANCH   7   8
ENDBRANCH   1   7
BRANCH   6  22
HETATM   22  O5  UNL     1     -17.106   6.663  25.483  1.00  0.00    -0.359 OA
ATOM     23  H5  UNL     1     -16.829   6.890  24.603  1.00  0.00     0.217 HD
ENDBRANCH   6  22
BRANCH   3  24
HETATM   24  C5  UNL     1     -16.464  10.236  29.701  1.00  0.00     0.706 A 
HETATM   25  N6  UNL     1     -15.241  10.648  30.055  1.00  0.00    -0.171 N 
HETATM   26  C6  UNL     1     -15.022  11.532  31.080  1.00  0.00     0.167 A 
ATOM     27  H6  UNL     1     -14.438  10.289  29.539  1.00  0.00     0.186 HD
HETATM   28  N7  UNL     1     -13.836  11.887  31.382  1.00  0.00    -0.382 N 
HETATM   29  C7  UNL     1     -16.103  11.996  31.751  1.00  0.00     0.233 A 
ATOM     30  H72 UNL     1     -13.022  11.537  30.876  1.00  0.00     0.157 HD
ATOM     31  H71 UNL     1     -13.672  12.544  32.144  1.00  0.00     0.157 HD
HETATM   32  N9  UNL     1     -17.325  11.555  31.363  1.00  0.00    -0.263 N 
HETATM   33  N10 UNL     1     -17.512  10.703  30.372  1.00  0.00    -0.130 N 
ATOM     34  H9  UNL     1     -18.144  11.900  31.863  1.00  0.00     0.189 HD
ATOM     35  H10 UNL     1     -18.455  10.405  30.122  1.00  0.00     0.205 HD
BRANCH  29  36
HETATM   36  N8  UNL     1     -16.080  12.904  32.830  1.00  0.00    -0.092 N 
HETATM   37  O3  UNL     1     -16.850  13.854  33.005  1.00  0.00    -0.530 OA
HETATM   38  O4  UNL     1     -15.119  12.744  33.833  1.00  0.00    -0.530 OA
ENDBRANCH  29  36
ENDBRANCH   3  24
BRANCH   4  39
HETATM   39  N11 UNL     1     -15.865  10.841  27.205  1.00  0.00    -0.326 N 
HETATM   40  C9  UNL     1     -14.789  11.318  26.409  1.00  0.00     0.481 C 
HETATM   41  N12 UNL     1     -13.556  10.723  26.872  1.00  0.00    -0.033 N 
HETATM   42  N13 UNL     1     -14.968  11.049  24.990  1.00  0.00    -0.033 N 
ATOM     43 3H12 UNL     1     -13.400  10.879  27.868  1.00  0.00     0.278 HD
ATOM     44 2H12 UNL     1     -13.602   9.704  26.892  1.00  0.00     0.278 HD
ATOM     45 1H12 UNL     1     -12.784  11.065  26.300  1.00  0.00     0.278 HD
ATOM     46 3H13 UNL     1     -15.131  10.055  24.826  1.00  0.00     0.278 HD
ATOM     47 2H13 UNL     1     -15.859  11.420  24.659  1.00  0.00     0.278 HD
ATOM     48 1H13 UNL     1     -14.196  11.391  24.418  1.00  0.00     0.278 HD
ATOM     49  H11 UNL     1     -16.354  11.559  27.740  1.00  0.00     0.164 HD
ENDBRANCH   4  39
TORSDOF 10
ENDMDL
MODEL 5
REMARK VINA RESULT: -9.505498589      1.195      1.433
REMARK  10 active torsions:
REMARK  status: ('A' for Active; 'I' for Inactive)
REMARK    1  A    between atoms: N2_4  and  N3_6 
REMARK    2  A    between atoms: N3_6  and  C1_8 
REMARK    3  A    between atoms: C1_8  and  C2_13 
REMARK    4  A    between atoms: N4_9  and  O1_11 
REMARK    5  A    between atoms: C2_13  and  S1_15 
REMARK    6  A    between atoms: S1_15  and  C3_16 
REMARK    7  A    between atoms: N5_18  and  C5_19 
REMARK    8  A    between atoms: C7_26  and  N8_27 
REMARK    9  A    between atoms: C8_34  and  N11_35 
REMARK       I    between atoms: N11_35  and  C9_37 
REMARK       I    between atoms: C9_37  and  N12_38 
REMARK       I    between atoms: C9_37  and  N13_42 
REMARK   10  A    between atoms: C11_47  and  O5_48 
ROOT
HETATM    1  C3  UNL     1     -15.838   9.545  26.824  1.00  0.00     0.058 A 
HETATM    2  C4  UNL     1     -16.897   8.772  26.394  1.00  0.00     0.138 A 
HETATM    3  N5  UNL     1     -17.449   7.844  27.212  1.00  0.00    -0.140 N 
HETATM    4  C8  UNL     1     -16.955   7.675  28.464  1.00  0.00     0.129 A 
HETATM    5  C10 UNL     1     -15.903   8.422  28.931  1.00  0.00     0.087 A 
HETATM    6  C11 UNL     1     -15.335   9.370  28.105  1.00  0.00     0.087 A 
ENDROOT
BRANCH   1   7
HETATM    7  S1  UNL     1     -15.126  10.754  25.745  1.00  0.00    -0.040 SA
BRANCH   7   8
HETATM    8  C2  UNL     1     -14.969  10.141  24.077  1.00  0.00     0.260 C 
HETATM    9  O2  UNL     1     -14.885   8.909  23.889  1.00  0.00    -0.276 OA
BRANCH   8  10
HETATM   10  C1  UNL     1     -14.942  11.085  22.969  1.00  0.00     0.199 C 
HETATM   11  N4  UNL     1     -15.292  10.729  21.790  1.00  0.00    -0.248 N 
ATOM     12  H4  UNL     1     -15.596   9.770  21.617  1.00  0.00     0.196 HD
BRANCH  10  13
HETATM   13  N3  UNL     1     -14.517  12.414  23.222  1.00  0.00    -0.266 N 
ATOM     14  H3  UNL     1     -15.023  13.110  23.770  1.00  0.00     0.190 HD
BRANCH  13  15
HETATM   15  N2  UNL     1     -13.304  12.601  22.604  1.00  0.00    -0.248 N 
HETATM   16  N1  UNL     1     -12.991  13.599  21.942  1.00  0.00    -0.331 N 
ATOM     17  H12 UNL     1     -13.699  14.329  21.859  1.00  0.00     0.178 HD
ATOM     18  H11 UNL     1     -12.091  13.738  21.482  1.00  0.00     0.178 HD
ATOM     19  H2  UNL     1     -12.609  11.861  22.697  1.00  0.00     0.207 HD
ENDBRANCH  13  15
ENDBRANCH  10  13
BRANCH  11  20
HETATM   20  O1  UNL     1     -15.259  11.627  20.763  1.00  0.00    -0.288 OA
ATOM     21  H1  UNL     1     -15.367  11.332  19.866  1.00  0.00     0.244 HD
ENDBRANCH  11  20
ENDBRANCH   8  10
ENDBRANCH   7   8
ENDBRANCH   1   7
BRANCH   6  22
HETATM   22  O5  UNL     1     -14.272  10.118  28.590  1.00  0.00    -0.359 OA
ATOM     23  H5  UNL     1     -14.207  10.371  29.503  1.00  0.00     0.217 HD
ENDBRANCH   6  22
BRANCH   3  24
HETATM   24  C5  UNL     1     -18.540   7.060  26.746  1.00  0.00     0.706 A 
HETATM   25  N6  UNL     1     -18.318   5.942  26.045  1.00  0.00    -0.171 N 
HETATM   26  C6  UNL     1     -19.331   5.146  25.573  1.00  0.00     0.167 A 
ATOM     27  H6  UNL     1     -17.354   5.670  25.854  1.00  0.00     0.186 HD
HETATM   28  N7  UNL     1     -19.065   4.096  24.903  1.00  0.00    -0.382 N 
HETATM   29  C7  UNL     1     -20.604   5.527  25.838  1.00  0.00     0.233 A 
ATOM     30  H72 UNL     1     -18.107   3.810  24.704  1.00  0.00     0.157 HD
ATOM     31  H71 UNL     1     -19.817   3.504  24.552  1.00  0.00     0.157 HD
HETATM   32  N9  UNL     1     -20.787   6.665  26.552  1.00  0.00    -0.263 N 
HETATM   33  N10 UNL     1     -19.796   7.415  26.996  1.00  0.00    -0.130 N 
ATOM     34  H9  UNL     1     -21.743   6.958  26.756  1.00  0.00     0.189 HD
ATOM     35  H10 UNL     1     -19.993   8.263  27.528  1.00  0.00     0.205 HD
BRANCH  29  36
HETATM   36  N8  UNL     1     -21.771   4.845  25.437  1.00  0.00    -0.092 N 
HETATM   37  O3  UNL     1     -21.971   4.320  24.336  1.00  0.00    -0.530 OA
HETATM   38  O4  UNL     1     -22.826   4.711  26.344  1.00  0.00    -0.530 OA
ENDBRANCH  29  36
ENDBRANCH   3  24
BRANCH   4  39
HETATM   39  N11 UNL     1     -17.522   6.789  29.163  1.00  0.00    -0.326 N 
HETATM   40  C9  UNL     1     -17.036   5.537  29.627  1.00  0.00     0.481 C 
HETATM   41  N12 UNL     1     -16.736   4.695  28.493  1.00  0.00    -0.033 N 
HETATM   42  N13 UNL     1     -15.861   5.662  30.477  1.00  0.00    -0.033 N 
ATOM     43 3H12 UNL     1     -17.534   4.592  27.864  1.00  0.00     0.278 HD
ATOM     44 2H12 UNL     1     -16.094   5.141  27.837  1.00  0.00     0.278 HD
ATOM     45 1H12 UNL     1     -16.388   3.795  28.826  1.00  0.00     0.278 HD
ATOM     46 3H13 UNL     1     -15.124   6.186  30.005  1.00  0.00     0.278 HD
ATOM     47 2H13 UNL     1     -16.041   6.294  31.257  1.00  0.00     0.278 HD
ATOM     48 1H13 UNL     1     -15.512   4.763  30.811  1.00  0.00     0.278 HD
ATOM     49  H11 UNL     1     -18.479   7.007  29.439  1.00  0.00     0.164 HD
ENDBRANCH   4  39
TORSDOF 10
ENDMDL
