MODEL 1
REMARK VINA RESULT: -10.944929750      0.000      0.000
REMARK  7 active torsions:
REMARK  status: ('A' for Active; 'I' for Inactive)
REMARK    1  A    between atoms: C1_2  and  C2_3 
REMARK       I    between atoms: C1_2  and  N2_10 
REMARK    2  A    between atoms: C2_3  and  C3_4 
REMARK    3  A    between atoms: N2_10  and  C7_12 
REMARK    4  A    between atoms: C10_15  and  C11_16 
REMARK    5  A    between atoms: C11_16  and  N3_17 
REMARK    6  A    between atoms: N7_30  and  C17_31 
REMARK    7  A    between atoms: C17_31  and  C18_32 
ROOT
HETATM    1  N3  UNL     1      49.201   7.719   0.442  1.00  0.00    -0.349 N 
ATOM      2  H3  UNL     1      49.422   6.919  -0.152  1.00  0.00     0.166 HD
HETATM    3  C12 UNL     1      48.092   8.208   0.180  1.00  0.00     0.137 A 
HETATM    4  N4  UNL     1      47.367   7.627  -0.822  1.00  0.00    -0.337 N 
ATOM      5  H4  UNL     1      47.745   6.822  -1.321  1.00  0.00     0.168 HD
HETATM    6  C13 UNL     1      46.158   8.112  -1.152  1.00  0.00     0.183 A 
HETATM    7  N5  UNL     1      45.614   9.165  -0.532  1.00  0.00    -0.336 N 
ATOM      8  H5  UNL     1      44.693   9.502  -0.813  1.00  0.00     0.168 HD
HETATM    9  C14 UNL     1      46.272   9.774   0.453  1.00  0.00     0.140 A 
HETATM   10  C15 UNL     1      47.530   9.283   0.808  1.00  0.00     0.122 A 
HETATM   11  N6  UNL     1      47.937  10.073   1.798  1.00  0.00    -0.346 N 
ATOM     12  H6  UNL     1      48.829   9.976   2.282  1.00  0.00     0.167 HD
HETATM   13  C16 UNL     1      47.037  11.001   2.074  1.00  0.00     0.185 A 
HETATM   14  N7  UNL     1      45.994  10.840   1.255  1.00  0.00    -0.323 N 
ENDROOT
BRANCH   1  15
HETATM   15  C11 UNL     1      50.228   8.000   1.362  1.00  0.00     0.101 C 
BRANCH  15  16
HETATM   16  C10 UNL     1      50.247   6.902   2.397  1.00  0.00    -0.021 A 
HETATM   17  C9  UNL     1      51.142   5.859   2.336  1.00  0.00     0.015 A 
HETATM   18  C8  UNL     1      51.141   4.869   3.290  1.00  0.00     0.030 A 
HETATM   19  C7  UNL     1      50.238   4.864   4.372  1.00  0.00     0.034 A 
HETATM   20  C29 UNL     1      49.354   5.907   4.417  1.00  0.00     0.030 A 
HETATM   21  C28 UNL     1      49.355   6.922   3.440  1.00  0.00     0.015 A 
BRANCH  19  22
HETATM   22  N2  UNL     1      50.293   3.801   5.300  1.00  0.00    -0.327 N 
HETATM   23  C1  UNL     1      51.158   3.714   6.404  1.00  0.00     0.227 C 
HETATM   24  O1  UNL     1      52.012   4.558   6.731  1.00  0.00    -0.273 OA
ATOM     25  H2  UNL     1      49.645   3.026   5.156  1.00  0.00     0.169 HD
BRANCH  23  26
HETATM   26  C2  UNL     1      51.053   2.484   7.287  1.00  0.00     0.159 C 
BRANCH  26  27
HETATM   27  C3  UNL     1      51.922   1.437   6.704  1.00  0.00     0.017 A 
HETATM   28  C4  UNL     1      51.574   0.562   5.670  1.00  0.00     0.027 A 
HETATM   29  C5  UNL     1      52.668  -0.234   5.446  1.00  0.00     0.019 A 
HETATM   30  C6  UNL     1      53.676   0.127   6.314  1.00  0.00     0.088 A 
HETATM   31  N1  UNL     1      53.191   1.135   7.055  1.00  0.00    -0.369 N 
ATOM     32  H1  UNL     1      53.713   1.613   7.789  1.00  0.00     0.165 HD
ENDBRANCH  26  27
ENDBRANCH  23  26
ENDBRANCH  19  22
ENDBRANCH  15  16
ENDBRANCH   1  15
BRANCH  14  33
HETATM   33  C17 UNL     1      44.786  11.630   1.207  1.00  0.00     0.170 C 
BRANCH  33  34
HETATM   34  C18 UNL     1      45.040  13.045   1.633  1.00  0.00    -0.039 A 
HETATM   35  C19 UNL     1      44.191  14.077   1.293  1.00  0.00     0.010 A 
HETATM   36  C20 UNL     1      44.438  15.374   1.691  1.00  0.00     0.013 A 
HETATM   37  C21 UNL     1      45.545  15.695   2.445  1.00  0.00    -0.026 A 
HETATM   38  C22 UNL     1      45.799  16.999   2.847  1.00  0.00     0.015 A 
HETATM   39  C26 UNL     1      46.403  14.673   2.791  1.00  0.00    -0.022 A 
HETATM   40  C23 UNL     1      46.904  17.313   3.599  1.00  0.00     0.043 A 
HETATM   41  C24 UNL     1      47.766  16.295   3.949  1.00  0.00     0.117 A 
HETATM   42  F1  UNL     1      48.853  16.630   4.692  1.00  0.00    -0.206 F 
HETATM   43  C25 UNL     1      47.509  14.997   3.546  1.00  0.00     0.054 A 
HETATM   44  C27 UNL     1      46.150  13.372   2.390  1.00  0.00     0.021 A 
ENDBRANCH  33  34
ENDBRANCH  14  33
TORSDOF 7
ENDMDL
MODEL 2
REMARK VINA RESULT: -10.385318213      1.013      1.397
REMARK  7 active torsions:
REMARK  status: ('A' for Active; 'I' for Inactive)
REMARK    1  A    between atoms: C1_2  and  C2_3 
REMARK       I    between atoms: C1_2  and  N2_10 
REMARK    2  A    between atoms: C2_3  and  C3_4 
REMARK    3  A    between atoms: N2_10  and  C7_12 
REMARK    4  A    between atoms: C10_15  and  C11_16 
REMARK    5  A    between atoms: C11_16  and  N3_17 
REMARK    6  A    between atoms: N7_30  and  C17_31 
REMARK    7  A    between atoms: C17_31  and  C18_32 
ROOT
HETATM    1  N3  UNL     1      49.428   7.863  -0.354  1.00  0.00    -0.349 N 
ATOM      2  H3  UNL     1      49.568   6.993  -0.870  1.00  0.00     0.166 HD
HETATM    3  C12 UNL     1      48.239   8.217  -0.344  1.00  0.00     0.137 A 
HETATM    4  N4  UNL     1      47.338   7.423  -0.996  1.00  0.00    -0.337 N 
ATOM      5  H4  UNL     1      47.655   6.576  -1.467  1.00  0.00     0.168 HD
HETATM    6  C13 UNL     1      46.036   7.755  -1.019  1.00  0.00     0.183 A 
HETATM    7  N5  UNL     1      45.565   8.853  -0.419  1.00  0.00    -0.336 N 
ATOM      8  H5  UNL     1      44.568   9.069  -0.460  1.00  0.00     0.168 HD
HETATM    9  C14 UNL     1      46.394   9.667   0.232  1.00  0.00     0.140 A 
HETATM   10  C15 UNL     1      47.750   9.338   0.266  1.00  0.00     0.122 A 
HETATM   11  N6  UNL     1      48.319  10.312   0.971  1.00  0.00    -0.346 N 
ATOM     12  H6  UNL     1      49.317  10.364   1.179  1.00  0.00     0.167 HD
HETATM   13  C16 UNL     1      47.428  11.203   1.367  1.00  0.00     0.185 A 
HETATM   14  N7  UNL     1      46.225  10.829   0.923  1.00  0.00    -0.323 N 
ENDROOT
BRANCH   1  15
HETATM   15  C11 UNL     1      50.629   8.371   0.173  1.00  0.00     0.101 C 
BRANCH  15  16
HETATM   16  C10 UNL     1      50.938   7.623   1.447  1.00  0.00    -0.021 A 
HETATM   17  C9  UNL     1      50.382   7.980   2.653  1.00  0.00     0.015 A 
HETATM   18  C8  UNL     1      50.678   7.284   3.802  1.00  0.00     0.030 A 
HETATM   19  C7  UNL     1      51.555   6.181   3.812  1.00  0.00     0.034 A 
HETATM   20  C29 UNL     1      52.099   5.840   2.604  1.00  0.00     0.030 A 
HETATM   21  C28 UNL     1      51.796   6.552   1.427  1.00  0.00     0.015 A 
BRANCH  19  22
HETATM   22  N2  UNL     1      51.818   5.531   5.038  1.00  0.00    -0.327 N 
HETATM   23  C1  UNL     1      51.261   4.312   5.462  1.00  0.00     0.227 C 
HETATM   24  O1  UNL     1      50.446   3.621   4.824  1.00  0.00    -0.273 OA
ATOM     25  H2  UNL     1      52.473   5.988   5.673  1.00  0.00     0.169 HD
BRANCH  23  26
HETATM   26  C2  UNL     1      51.682   3.779   6.819  1.00  0.00     0.159 C 
BRANCH  26  27
HETATM   27  C3  UNL     1      52.202   2.407   6.620  1.00  0.00     0.017 A 
HETATM   28  C4  UNL     1      53.522   2.066   6.306  1.00  0.00     0.027 A 
HETATM   29  C5  UNL     1      53.562   0.699   6.215  1.00  0.00     0.019 A 
HETATM   30  C6  UNL     1      52.305   0.191   6.463  1.00  0.00     0.088 A 
HETATM   31  N1  UNL     1      51.514   1.249   6.703  1.00  0.00    -0.369 N 
ATOM     32  H1  UNL     1      50.519   1.185   6.920  1.00  0.00     0.165 HD
ENDBRANCH  26  27
ENDBRANCH  23  26
ENDBRANCH  19  22
ENDBRANCH  15  16
ENDBRANCH   1  15
BRANCH  14  33
HETATM   33  C17 UNL     1      44.966  11.507   1.124  1.00  0.00     0.170 C 
BRANCH  33  34
HETATM   34  C18 UNL     1      45.173  12.922   1.576  1.00  0.00    -0.039 A 
HETATM   35  C19 UNL     1      44.309  13.938   1.225  1.00  0.00     0.010 A 
HETATM   36  C20 UNL     1      44.513  15.235   1.648  1.00  0.00     0.013 A 
HETATM   37  C21 UNL     1      45.588  15.571   2.440  1.00  0.00    -0.026 A 
HETATM   38  C22 UNL     1      45.797  16.875   2.868  1.00  0.00     0.015 A 
HETATM   39  C26 UNL     1      46.459  14.565   2.798  1.00  0.00    -0.022 A 
HETATM   40  C23 UNL     1      46.871  17.205   3.657  1.00  0.00     0.043 A 
HETATM   41  C24 UNL     1      47.747  16.203   4.019  1.00  0.00     0.117 A 
HETATM   42  F1  UNL     1      48.803  16.552   4.801  1.00  0.00    -0.206 F 
HETATM   43  C25 UNL     1      47.534  14.905   3.591  1.00  0.00     0.054 A 
HETATM   44  C27 UNL     1      46.251  13.265   2.372  1.00  0.00     0.021 A 
ENDBRANCH  33  34
ENDBRANCH  14  33
TORSDOF 7
ENDMDL
MODEL 3
REMARK VINA RESULT: -10.311522600      4.199     11.931
REMARK  7 active torsions:
REMARK  status: ('A' for Active; 'I' for Inactive)
REMARK    1  A    between atoms: C1_2  and  C2_3 
REMARK       I    between atoms: C1_2  and  N2_10 
REMARK    2  A    between atoms: C2_3  and  C3_4 
REMARK    3  A    between atoms: N2_10  and  C7_12 
REMARK    4  A    between atoms: C10_15  and  C11_16 
REMARK    5  A    between atoms: C11_16  and  N3_17 
REMARK    6  A    between atoms: N7_30  and  C17_31 
REMARK    7  A    between atoms: C17_31  and  C18_32 
ROOT
HETATM    1  N3  UNL     1      47.039   7.808   1.657  1.00  0.00    -0.349 N 
ATOM      2  H3  UNL     1      46.075   7.497   1.783  1.00  0.00     0.166 HD
HETATM    3  C12 UNL     1      47.799   7.347   2.522  1.00  0.00     0.137 A 
HETATM    4  N4  UNL     1      47.253   6.529   3.470  1.00  0.00    -0.337 N 
ATOM      5  H4  UNL     1      46.255   6.320   3.447  1.00  0.00     0.168 HD
HETATM    6  C13 UNL     1      48.026   5.998   4.433  1.00  0.00     0.183 A 
HETATM    7  N5  UNL     1      49.339   6.239   4.513  1.00  0.00    -0.336 N 
ATOM      8  H5  UNL     1      49.891   5.816   5.260  1.00  0.00     0.168 HD
HETATM    9  C14 UNL     1      49.929   7.029   3.618  1.00  0.00     0.140 A 
HETATM   10  C15 UNL     1      49.141   7.588   2.610  1.00  0.00     0.122 A 
HETATM   11  N6  UNL     1      49.984   8.314   1.881  1.00  0.00    -0.346 N 
ATOM     12  H6  UNL     1      49.715   8.855   1.059  1.00  0.00     0.167 HD
HETATM   13  C16 UNL     1      51.215   8.245   2.358  1.00  0.00     0.185 A 
HETATM   14  N7  UNL     1      51.210   7.455   3.435  1.00  0.00    -0.323 N 
ENDROOT
BRANCH   1  15
HETATM   15  C11 UNL     1      47.185   8.656   0.544  1.00  0.00     0.101 C 
BRANCH  15  16
HETATM   16  C10 UNL     1      46.667  10.022   0.920  1.00  0.00    -0.021 A 
HETATM   17  C9  UNL     1      47.466  10.962   1.527  1.00  0.00     0.015 A 
HETATM   18  C8  UNL     1      46.971  12.201   1.861  1.00  0.00     0.030 A 
HETATM   19  C7  UNL     1      45.637  12.576   1.605  1.00  0.00     0.034 A 
HETATM   20  C29 UNL     1      44.856  11.629   1.002  1.00  0.00     0.030 A 
HETATM   21  C28 UNL     1      45.362  10.359   0.659  1.00  0.00     0.015 A 
BRANCH  19  22
HETATM   22  N2  UNL     1      45.204  13.862   1.995  1.00  0.00    -0.327 N 
HETATM   23  C1  UNL     1      44.492  14.771   1.193  1.00  0.00     0.227 C 
HETATM   24  O1  UNL     1      44.138  14.583   0.015  1.00  0.00    -0.273 OA
ATOM     25  H2  UNL     1      45.428  14.159   2.945  1.00  0.00     0.169 HD
BRANCH  23  26
HETATM   26  C2  UNL     1      44.114  16.107   1.806  1.00  0.00     0.159 C 
BRANCH  26  27
HETATM   27  C3  UNL     1      45.058  16.376   2.914  1.00  0.00     0.017 A 
HETATM   28  C4  UNL     1      46.345  16.909   2.785  1.00  0.00     0.027 A 
HETATM   29  C5  UNL     1      46.863  16.991   4.052  1.00  0.00     0.019 A 
HETATM   30  C6  UNL     1      45.933  16.522   4.953  1.00  0.00     0.088 A 
HETATM   31  N1  UNL     1      44.859  16.162   4.232  1.00  0.00    -0.369 N 
ATOM     32  H1  UNL     1      44.003  15.776   4.629  1.00  0.00     0.165 HD
ENDBRANCH  26  27
ENDBRANCH  23  26
ENDBRANCH  19  22
ENDBRANCH  15  16
ENDBRANCH   1  15
BRANCH  14  33
HETATM   33  C17 UNL     1      52.336   7.100   4.267  1.00  0.00     0.170 C 
BRANCH  33  34
HETATM   34  C18 UNL     1      52.735   5.668   4.067  1.00  0.00    -0.039 A 
HETATM   35  C19 UNL     1      53.077   5.167   2.829  1.00  0.00     0.010 A 
HETATM   36  C20 UNL     1      53.440   3.847   2.661  1.00  0.00     0.013 A 
HETATM   37  C21 UNL     1      53.478   2.972   3.724  1.00  0.00    -0.026 A 
HETATM   38  C22 UNL     1      53.843   1.643   3.560  1.00  0.00     0.015 A 
HETATM   39  C26 UNL     1      53.139   3.460   4.968  1.00  0.00    -0.022 A 
HETATM   40  C23 UNL     1      53.879   0.775   4.623  1.00  0.00     0.043 A 
HETATM   41  C24 UNL     1      53.540   1.257   5.870  1.00  0.00     0.117 A 
HETATM   42  F1  UNL     1      53.583   0.380   6.907  1.00  0.00    -0.206 F 
HETATM   43  C25 UNL     1      53.178   2.582   6.029  1.00  0.00     0.054 A 
HETATM   44  C27 UNL     1      52.775   4.786   5.131  1.00  0.00     0.021 A 
ENDBRANCH  33  34
ENDBRANCH  14  33
TORSDOF 7
ENDMDL
MODEL 4
REMARK VINA RESULT: -10.304779570      4.038     11.676
REMARK  7 active torsions:
REMARK  status: ('A' for Active; 'I' for Inactive)
REMARK    1  A    between atoms: C1_2  and  C2_3 
REMARK       I    between atoms: C1_2  and  N2_10 
REMARK    2  A    between atoms: C2_3  and  C3_4 
REMARK    3  A    between atoms: N2_10  and  C7_12 
REMARK    4  A    between atoms: C10_15  and  C11_16 
REMARK    5  A    between atoms: C11_16  and  N3_17 
REMARK    6  A    between atoms: N7_30  and  C17_31 
REMARK    7  A    between atoms: C17_31  and  C18_32 
ROOT
HETATM    1  N3  UNL     1      47.648   8.629  -0.039  1.00  0.00    -0.349 N 
ATOM      2  H3  UNL     1      47.588   8.869  -1.029  1.00  0.00     0.166 HD
HETATM    3  C12 UNL     1      48.807   8.363   0.312  1.00  0.00     0.137 A 
HETATM    4  N4  UNL     1      49.785   8.430  -0.640  1.00  0.00    -0.337 N 
ATOM      5  H4  UNL     1      49.546   8.690  -1.597  1.00  0.00     0.168 HD
HETATM    6  C13 UNL     1      51.061   8.153  -0.320  1.00  0.00     0.183 A 
HETATM    7  N5  UNL     1      51.431   7.806   0.917  1.00  0.00    -0.336 N 
ATOM      8  H5  UNL     1      52.411   7.604   1.118  1.00  0.00     0.168 HD
HETATM    9  C14 UNL     1      50.523   7.723   1.887  1.00  0.00     0.140 A 
HETATM   10  C15 UNL     1      49.193   8.007   1.573  1.00  0.00     0.122 A 
HETATM   11  N6  UNL     1      48.531   7.845   2.715  1.00  0.00    -0.346 N 
ATOM     12  H6  UNL     1      47.525   7.980   2.821  1.00  0.00     0.167 HD
HETATM   13  C16 UNL     1      49.342   7.488   3.695  1.00  0.00     0.185 A 
HETATM   14  N7  UNL     1      50.584   7.404   3.211  1.00  0.00    -0.323 N 
ENDROOT
BRANCH   1  15
HETATM   15  C11 UNL     1      46.394   8.679   0.599  1.00  0.00     0.101 C 
BRANCH  15  16
HETATM   16  C10 UNL     1      46.113  10.114   0.974  1.00  0.00    -0.021 A 
HETATM   17  C9  UNL     1      47.042  10.892   1.624  1.00  0.00     0.015 A 
HETATM   18  C8  UNL     1      46.764  12.197   1.955  1.00  0.00     0.030 A 
HETATM   19  C7  UNL     1      45.530  12.806   1.653  1.00  0.00     0.034 A 
HETATM   20  C29 UNL     1      44.617  12.018   1.008  1.00  0.00     0.030 A 
HETATM   21  C28 UNL     1      44.902  10.681   0.667  1.00  0.00     0.015 A 
BRANCH  19  22
HETATM   22  N2  UNL     1      45.318  14.147   2.044  1.00  0.00    -0.327 N 
HETATM   23  C1  UNL     1      44.508  15.082   1.377  1.00  0.00     0.227 C 
HETATM   24  O1  UNL     1      43.856  14.873   0.337  1.00  0.00    -0.273 OA
ATOM     25  H2  UNL     1      45.797  14.466   2.886  1.00  0.00     0.169 HD
BRANCH  23  26
HETATM   26  C2  UNL     1      44.409  16.477   1.966  1.00  0.00     0.159 C 
BRANCH  26  27
HETATM   27  C3  UNL     1      45.371  16.560   3.089  1.00  0.00     0.017 A 
HETATM   28  C4  UNL     1      46.719  16.918   2.991  1.00  0.00     0.027 A 
HETATM   29  C5  UNL     1      47.231  16.865   4.262  1.00  0.00     0.019 A 
HETATM   30  C6  UNL     1      46.237  16.483   5.136  1.00  0.00     0.088 A 
HETATM   31  N1  UNL     1      45.132  16.308   4.393  1.00  0.00    -0.369 N 
ATOM     32  H1  UNL     1      44.227  16.023   4.768  1.00  0.00     0.165 HD
ENDBRANCH  26  27
ENDBRANCH  23  26
ENDBRANCH  19  22
ENDBRANCH  15  16
ENDBRANCH   1  15
BRANCH  14  33
HETATM   33  C17 UNL     1      51.784   7.047   3.931  1.00  0.00     0.170 C 
BRANCH  33  34
HETATM   34  C18 UNL     1      51.919   5.559   4.065  1.00  0.00    -0.039 A 
HETATM   35  C19 UNL     1      52.678   4.809   3.191  1.00  0.00     0.010 A 
HETATM   36  C20 UNL     1      52.792   3.442   3.327  1.00  0.00     0.013 A 
HETATM   37  C21 UNL     1      52.154   2.765   4.343  1.00  0.00    -0.026 A 
HETATM   38  C22 UNL     1      52.266   1.389   4.484  1.00  0.00     0.015 A 
HETATM   39  C26 UNL     1      51.393   3.504   5.224  1.00  0.00    -0.022 A 
HETATM   40  C23 UNL     1      51.627   0.720   5.499  1.00  0.00     0.043 A 
HETATM   41  C24 UNL     1      50.864   1.452   6.384  1.00  0.00     0.117 A 
HETATM   42  F1  UNL     1      50.241   0.769   7.380  1.00  0.00    -0.206 F 
HETATM   43  C25 UNL     1      50.756   2.824   6.240  1.00  0.00     0.054 A 
HETATM   44  C27 UNL     1      51.281   4.876   5.084  1.00  0.00     0.021 A 
ENDBRANCH  33  34
ENDBRANCH  14  33
TORSDOF 7
ENDMDL
MODEL 5
REMARK VINA RESULT: -10.155111399      5.296      8.779
REMARK  7 active torsions:
REMARK  status: ('A' for Active; 'I' for Inactive)
REMARK    1  A    between atoms: C1_2  and  C2_3 
REMARK       I    between atoms: C1_2  and  N2_10 
REMARK    2  A    between atoms: C2_3  and  C3_4 
REMARK    3  A    between atoms: N2_10  and  C7_12 
REMARK    4  A    between atoms: C10_15  and  C11_16 
REMARK    5  A    between atoms: C11_16  and  N3_17 
REMARK    6  A    between atoms: N7_30  and  C17_31 
REMARK    7  A    between atoms: C17_31  and  C18_32 
ROOT
HETATM    1  N3  UNL     1      50.533   8.775  -0.788  1.00  0.00    -0.349 N 
ATOM      2  H3  UNL     1      51.293   8.161  -0.493  1.00  0.00     0.166 HD
HETATM    3  C12 UNL     1      49.687   8.938   0.103  1.00  0.00     0.137 A 
HETATM    4  N4  UNL     1      49.892   8.299   1.293  1.00  0.00    -0.337 N 
ATOM      5  H4  UNL     1      50.717   7.714   1.420  1.00  0.00     0.168 HD
HETATM    6  C13 UNL     1      49.010   8.438   2.298  1.00  0.00     0.183 A 
HETATM    7  N5  UNL     1      47.910   9.191   2.187  1.00  0.00    -0.336 N 
ATOM      8  H5  UNL     1      47.265   9.271   2.974  1.00  0.00     0.168 HD
HETATM    9  C14 UNL     1      47.655   9.839   1.052  1.00  0.00     0.140 A 
HETATM   10  C15 UNL     1      48.561   9.706  -0.002  1.00  0.00     0.122 A 
HETATM   11  N6  UNL     1      48.055  10.449  -0.982  1.00  0.00    -0.346 N 
ATOM     12  H6  UNL     1      48.487  10.562  -1.899  1.00  0.00     0.167 HD
HETATM   13  C16 UNL     1      46.921  11.021  -0.616  1.00  0.00     0.185 A 
HETATM   14  N7  UNL     1      46.649  10.660   0.641  1.00  0.00    -0.323 N 
ENDROOT
BRANCH   1  15
HETATM   15  C11 UNL     1      50.699   9.232  -2.108  1.00  0.00     0.101 C 
BRANCH  15  16
HETATM   16  C10 UNL     1      51.822  10.241  -2.121  1.00  0.00    -0.021 A 
HETATM   17  C9  UNL     1      53.132   9.873  -1.926  1.00  0.00     0.015 A 
HETATM   18  C8  UNL     1      54.139  10.810  -1.941  1.00  0.00     0.030 A 
HETATM   19  C7  UNL     1      53.892  12.181  -2.154  1.00  0.00     0.034 A 
HETATM   20  C29 UNL     1      52.583  12.529  -2.345  1.00  0.00     0.030 A 
HETATM   21  C28 UNL     1      51.551  11.570  -2.331  1.00  0.00     0.015 A 
BRANCH  19  22
HETATM   22  N2  UNL     1      54.981  13.080  -2.139  1.00  0.00    -0.327 N 
HETATM   23  C1  UNL     1      55.477  13.755  -1.010  1.00  0.00     0.227 C 
HETATM   24  O1  UNL     1      55.029  13.667   0.148  1.00  0.00    -0.273 OA
ATOM     25  H2  UNL     1      55.450  13.256  -3.027  1.00  0.00     0.169 HD
BRANCH  23  26
HETATM   26  C2  UNL     1      56.665  14.679  -1.206  1.00  0.00     0.159 C 
BRANCH  26  27
HETATM   27  C3  UNL     1      56.191  16.068  -1.011  1.00  0.00     0.017 A 
HETATM   28  C4  UNL     1      56.950  17.133  -0.516  1.00  0.00     0.027 A 
HETATM   29  C5  UNL     1      56.124  18.228  -0.501  1.00  0.00     0.019 A 
HETATM   30  C6  UNL     1      54.881  17.865  -0.972  1.00  0.00     0.088 A 
HETATM   31  N1  UNL     1      54.960  16.557  -1.269  1.00  0.00    -0.369 N 
ATOM     32  H1  UNL     1      54.187  16.005  -1.642  1.00  0.00     0.165 HD
ENDBRANCH  26  27
ENDBRANCH  23  26
ENDBRANCH  19  22
ENDBRANCH  15  16
ENDBRANCH   1  15
BRANCH  14  33
HETATM   33  C17 UNL     1      45.511  11.053   1.438  1.00  0.00     0.170 C 
BRANCH  33  34
HETATM   34  C18 UNL     1      45.552  12.514   1.770  1.00  0.00    -0.039 A 
HETATM   35  C19 UNL     1      44.587  13.395   1.329  1.00  0.00     0.010 A 
HETATM   36  C20 UNL     1      44.639  14.737   1.642  1.00  0.00     0.013 A 
HETATM   37  C21 UNL     1      45.659  15.256   2.409  1.00  0.00    -0.026 A 
HETATM   38  C22 UNL     1      45.716  16.606   2.726  1.00  0.00     0.015 A 
HETATM   39  C26 UNL     1      46.630  14.387   2.856  1.00  0.00    -0.022 A 
HETATM   40  C23 UNL     1      46.735  17.119   3.491  1.00  0.00     0.043 A 
HETATM   41  C24 UNL     1      47.711  16.254   3.942  1.00  0.00     0.117 A 
HETATM   42  F1  UNL     1      48.709  16.783   4.697  1.00  0.00    -0.206 F 
HETATM   43  C25 UNL     1      47.649  14.910   3.624  1.00  0.00     0.054 A 
HETATM   44  C27 UNL     1      46.574  13.040   2.540  1.00  0.00     0.021 A 
ENDBRANCH  33  34
ENDBRANCH  14  33
TORSDOF 7
ENDMDL
