MODEL 1
REMARK VINA RESULT: -9.082926549      0.000      0.000
REMARK  9 active torsions:
REMARK  status: ('A' for Active; 'I' for Inactive)
REMARK    1  A    between atoms: C5_5  and  C6_6 
REMARK    2  A    between atoms: C6_6  and  C7_7 
REMARK    3  A    between atoms: C7_7  and  N1_8 
REMARK    4  A    between atoms: N1_8  and  C8_10 
REMARK    5  A    between atoms: C10_12  and  C11_13 
REMARK    6  A    between atoms: C11_13  and  O1_16 
REMARK    7  A    between atoms: N3_20  and  C14_21 
REMARK    8  A    between atoms: C16_23  and  C17_24 
REMARK    9  A    between atoms: C17_24  and  N4_25 
ROOT
HETATM    1  C8  UNL     1      44.821  10.492  -1.042  1.00  0.00     0.125 A 
HETATM    2  C9  UNL     1      44.169   9.282  -1.000  1.00  0.00     0.079 A 
HETATM    3  C10 UNL     1      43.362   9.168  -2.110  1.00  0.00     0.063 A 
HETATM    4  N2  UNL     1      43.553  10.312  -2.787  1.00  0.00    -0.293 N 
ATOM      5  H2  UNL     1      43.093  10.543  -3.668  1.00  0.00     0.187 HD
HETATM    6  N3  UNL     1      44.409  11.098  -2.170  1.00  0.00    -0.238 N 
ENDROOT
BRANCH   6   7
HETATM    7  C14 UNL     1      44.841  12.374  -2.610  1.00  0.00     0.080 A 
HETATM    8  C15 UNL     1      44.239  13.529  -2.150  1.00  0.00     0.042 A 
HETATM    9  C16 UNL     1      44.650  14.785  -2.575  1.00  0.00    -0.037 A 
HETATM   10  C25 UNL     1      45.686  14.822  -3.480  1.00  0.00     0.011 A 
HETATM   11  C26 UNL     1      46.294  13.657  -3.949  1.00  0.00     0.027 A 
HETATM   12  C27 UNL     1      45.876  12.419  -3.517  1.00  0.00     0.062 A 
HETATM   13 CL1  UNL     1      46.651  10.940  -4.109  1.00  0.00    -0.082 Cl
BRANCH   9  14
HETATM   14  C17 UNL     1      44.005  16.016  -2.062  1.00  0.00     0.172 C 
BRANCH  14  15
HETATM   15  N4  UNL     1      43.057  16.531  -2.992  1.00  0.00    -0.293 N 
HETATM   16  C18 UNL     1      41.757  16.132  -3.043  1.00  0.00     0.328 A 
HETATM   17  O2  UNL     1      41.226  15.290  -2.293  1.00  0.00    -0.246 OA
HETATM   18  N5  UNL     1      41.131  16.784  -4.023  1.00  0.00    -0.306 N 
HETATM   19  C19 UNL     1      42.035  17.599  -4.594  1.00  0.00     0.063 A 
ATOM     20  H5  UNL     1      40.151  16.683  -4.289  1.00  0.00     0.171 HD
HETATM   21  C20 UNL     1      41.941  18.493  -5.637  1.00  0.00     0.032 A 
HETATM   22  C24 UNL     1      43.269  17.446  -3.941  1.00  0.00     0.066 A 
HETATM   23  C21 UNL     1      43.027  19.220  -6.034  1.00  0.00     0.002 A 
HETATM   24  C22 UNL     1      44.248  19.076  -5.398  1.00  0.00     0.002 A 
HETATM   25  C23 UNL     1      44.363  18.184  -4.348  1.00  0.00     0.032 A 
ENDBRANCH  14  15
ENDBRANCH   9  14
ENDBRANCH   6   7
BRANCH   1  26
HETATM   26  N1  UNL     1      45.676  10.960  -0.165  1.00  0.00    -0.374 N 
ATOM     27  H1  UNL     1      46.648  11.129  -0.422  1.00  0.00     0.161 HD
BRANCH  26  28
HETATM   28  C7  UNL     1      45.210  11.231   1.164  1.00  0.00     0.126 C 
BRANCH  28  29
HETATM   29  C6  UNL     1      44.560  12.594   1.266  1.00  0.00     0.058 C 
BRANCH  29  30
HETATM   30  C5  UNL     1      45.424  13.579   1.951  1.00  0.00    -0.057 A 
HETATM   31  C4  UNL     1      45.174  14.926   2.037  1.00  0.00     0.007 A 
HETATM   32  C3  UNL     1      46.025  15.800   2.692  1.00  0.00     0.007 A 
HETATM   33  C2  UNL     1      47.177  15.343   3.291  1.00  0.00    -0.062 A 
HETATM   34  C1  UNL     1      48.091  16.290   3.989  1.00  0.00     0.048 C 
HETATM   35  C29 UNL     1      47.440  13.995   3.209  1.00  0.00     0.007 A 
HETATM   36  C28 UNL     1      46.596  13.124   2.561  1.00  0.00     0.007 A 
ENDBRANCH  29  30
ENDBRANCH  28  29
ENDBRANCH  26  28
ENDBRANCH   1  26
BRANCH   3  37
HETATM   37  C11 UNL     1      42.475   8.042  -2.509  1.00  0.00     0.094 C 
HETATM   38  C12 UNL     1      41.119   8.558  -2.921  1.00  0.00     0.052 C 
HETATM   39  C13 UNL     1      43.118   7.309  -3.662  1.00  0.00     0.052 C 
BRANCH  37  40
HETATM   40  O1  UNL     1      42.326   7.157  -1.462  1.00  0.00    -0.384 OA
ATOM     41  H1  UNL     1      42.193   6.276  -1.792  1.00  0.00     0.211 HD
ENDBRANCH  37  40
ENDBRANCH   3  37
TORSDOF 9
ENDMDL
MODEL 2
REMARK VINA RESULT: -8.994744956      3.845      7.120
REMARK  9 active torsions:
REMARK  status: ('A' for Active; 'I' for Inactive)
REMARK    1  A    between atoms: C5_5  and  C6_6 
REMARK    2  A    between atoms: C6_6  and  C7_7 
REMARK    3  A    between atoms: C7_7  and  N1_8 
REMARK    4  A    between atoms: N1_8  and  C8_10 
REMARK    5  A    between atoms: C10_12  and  C11_13 
REMARK    6  A    between atoms: C11_13  and  O1_16 
REMARK    7  A    between atoms: N3_20  and  C14_21 
REMARK    8  A    between atoms: C16_23  and  C17_24 
REMARK    9  A    between atoms: C17_24  and  N4_25 
ROOT
HETATM    1  C8  UNL     1      46.087   8.556   0.252  1.00  0.00     0.125 A 
HETATM    2  C9  UNL     1      47.043   7.661   0.671  1.00  0.00     0.079 A 
HETATM    3  C10 UNL     1      48.176   8.352   1.038  1.00  0.00     0.063 A 
HETATM    4  N2  UNL     1      47.869   9.644   0.828  1.00  0.00    -0.293 N 
ATOM      5  H2  UNL     1      48.504  10.422   1.004  1.00  0.00     0.187 HD
HETATM    6  N3  UNL     1      46.643   9.776   0.367  1.00  0.00    -0.238 N 
ENDROOT
BRANCH   6   7
HETATM    7  C14 UNL     1      45.998  10.996   0.046  1.00  0.00     0.080 A 
HETATM    8  C15 UNL     1      45.315  11.716   1.007  1.00  0.00     0.042 A 
HETATM    9  C16 UNL     1      44.676  12.910   0.706  1.00  0.00    -0.037 A 
HETATM   10  C25 UNL     1      44.755  13.342  -0.598  1.00  0.00     0.011 A 
HETATM   11  C26 UNL     1      45.442  12.616  -1.572  1.00  0.00     0.027 A 
HETATM   12  C27 UNL     1      46.071  11.433  -1.257  1.00  0.00     0.062 A 
HETATM   13 CL1  UNL     1      46.946  10.513  -2.492  1.00  0.00    -0.082 Cl
BRANCH   9  14
HETATM   14  C17 UNL     1      43.960  13.680   1.751  1.00  0.00     0.172 C 
BRANCH  14  15
HETATM   15  N4  UNL     1      44.613  14.916   2.024  1.00  0.00    -0.293 N 
HETATM   16  C18 UNL     1      44.132  16.127   1.630  1.00  0.00     0.328 A 
HETATM   17  O2  UNL     1      43.073  16.318   1.001  1.00  0.00    -0.246 OA
HETATM   18  N5  UNL     1      44.971  17.086   2.021  1.00  0.00    -0.306 N 
HETATM   19  C19 UNL     1      45.985  16.483   2.666  1.00  0.00     0.063 A 
ATOM     20  H5  UNL     1      44.864  18.088   1.861  1.00  0.00     0.171 HD
HETATM   21  C20 UNL     1      47.117  16.981   3.274  1.00  0.00     0.032 A 
HETATM   22  C24 UNL     1      45.766  15.097   2.674  1.00  0.00     0.066 A 
HETATM   23  C21 UNL     1      48.012  16.143   3.876  1.00  0.00     0.002 A 
HETATM   24  C22 UNL     1      47.804  14.775   3.889  1.00  0.00     0.002 A 
HETATM   25  C23 UNL     1      46.675  14.256   3.285  1.00  0.00     0.032 A 
ENDBRANCH  14  15
ENDBRANCH   9  14
ENDBRANCH   6   7
BRANCH   1  26
HETATM   26  N1  UNL     1      44.878   8.281  -0.170  1.00  0.00    -0.374 N 
ATOM     27  H1  UNL     1      44.095   8.230   0.482  1.00  0.00     0.161 HD
BRANCH  26  28
HETATM   28  C7  UNL     1      44.680   8.053  -1.572  1.00  0.00     0.126 C 
BRANCH  28  29
HETATM   29  C6  UNL     1      43.234   7.735  -1.891  1.00  0.00     0.058 C 
BRANCH  29  30
HETATM   30  C5  UNL     1      42.556   8.849  -2.589  1.00  0.00    -0.057 A 
HETATM   31  C4  UNL     1      43.164  10.007  -3.006  1.00  0.00     0.007 A 
HETATM   32  C3  UNL     1      42.473  11.017  -3.653  1.00  0.00     0.007 A 
HETATM   33  C2  UNL     1      41.125  10.897  -3.907  1.00  0.00    -0.062 A 
HETATM   34  C1  UNL     1      40.388  11.991  -4.600  1.00  0.00     0.048 C 
HETATM   35  C29 UNL     1      40.505   9.741  -3.493  1.00  0.00     0.007 A 
HETATM   36  C28 UNL     1      41.188   8.735  -2.851  1.00  0.00     0.007 A 
ENDBRANCH  29  30
ENDBRANCH  28  29
ENDBRANCH  26  28
ENDBRANCH   1  26
BRANCH   3  37
HETATM   37  C11 UNL     1      49.465   7.825   1.563  1.00  0.00     0.094 C 
HETATM   38  C12 UNL     1      49.354   7.533   3.039  1.00  0.00     0.052 C 
HETATM   39  C13 UNL     1      49.809   6.562   0.812  1.00  0.00     0.052 C 
BRANCH  37  40
HETATM   40  O1  UNL     1      50.475   8.742   1.356  1.00  0.00    -0.384 OA
ATOM     41  H1  UNL     1      51.323   8.321   1.437  1.00  0.00     0.211 HD
ENDBRANCH  37  40
ENDBRANCH   3  37
TORSDOF 9
ENDMDL
MODEL 3
REMARK VINA RESULT: -8.870589962      2.253      8.133
REMARK  9 active torsions:
REMARK  status: ('A' for Active; 'I' for Inactive)
REMARK    1  A    between atoms: C5_5  and  C6_6 
REMARK    2  A    between atoms: C6_6  and  C7_7 
REMARK    3  A    between atoms: C7_7  and  N1_8 
REMARK    4  A    between atoms: N1_8  and  C8_10 
REMARK    5  A    between atoms: C10_12  and  C11_13 
REMARK    6  A    between atoms: C11_13  and  O1_16 
REMARK    7  A    between atoms: N3_20  and  C14_21 
REMARK    8  A    between atoms: C16_23  and  C17_24 
REMARK    9  A    between atoms: C17_24  and  N4_25 
ROOT
HETATM    1  C8  UNL     1      42.572  15.169  -3.171  1.00  0.00     0.125 A 
HETATM    2  C9  UNL     1      42.424  16.442  -3.671  1.00  0.00     0.079 A 
HETATM    3  C10 UNL     1      43.579  17.154  -3.435  1.00  0.00     0.063 A 
HETATM    4  N2  UNL     1      44.388  16.289  -2.801  1.00  0.00    -0.293 N 
ATOM      5  H2  UNL     1      45.332  16.510  -2.484  1.00  0.00     0.187 HD
HETATM    6  N3  UNL     1      43.807  15.118  -2.641  1.00  0.00    -0.238 N 
ENDROOT
BRANCH   6   7
HETATM    7  C14 UNL     1      44.378  13.979  -2.020  1.00  0.00     0.080 A 
HETATM    8  C15 UNL     1      44.245  13.766  -0.662  1.00  0.00     0.042 A 
HETATM    9  C16 UNL     1      44.801  12.657  -0.040  1.00  0.00    -0.037 A 
HETATM   10  C25 UNL     1      45.494  11.781  -0.844  1.00  0.00     0.011 A 
HETATM   11  C26 UNL     1      45.632  11.995  -2.215  1.00  0.00     0.027 A 
HETATM   12  C27 UNL     1      45.074  13.099  -2.817  1.00  0.00     0.062 A 
HETATM   13 CL1  UNL     1      45.247  13.369  -4.559  1.00  0.00    -0.082 Cl
BRANCH   9  14
HETATM   14  C17 UNL     1      44.637  12.433   1.415  1.00  0.00     0.172 C 
BRANCH  14  15
HETATM   15  N4  UNL     1      45.769  12.902   2.143  1.00  0.00    -0.293 N 
HETATM   16  C18 UNL     1      46.764  12.090   2.595  1.00  0.00     0.328 A 
HETATM   17  O2  UNL     1      46.826  10.857   2.430  1.00  0.00    -0.246 OA
HETATM   18  N5  UNL     1      47.669  12.820   3.247  1.00  0.00    -0.306 N 
HETATM   19  C19 UNL     1      47.249  14.097   3.206  1.00  0.00     0.063 A 
ATOM     20  H5  UNL     1      48.520  12.474   3.692  1.00  0.00     0.171 HD
HETATM   21  C20 UNL     1      47.788  15.260   3.710  1.00  0.00     0.032 A 
HETATM   22  C24 UNL     1      46.037  14.159   2.502  1.00  0.00     0.066 A 
HETATM   23  C21 UNL     1      47.156  16.458   3.528  1.00  0.00     0.002 A 
HETATM   24  C22 UNL     1      45.959  16.530   2.836  1.00  0.00     0.002 A 
HETATM   25  C23 UNL     1      45.403  15.374   2.323  1.00  0.00     0.032 A 
ENDBRANCH  14  15
ENDBRANCH   9  14
ENDBRANCH   6   7
BRANCH   1  26
HETATM   26  N1  UNL     1      41.692  14.199  -3.208  1.00  0.00    -0.374 N 
ATOM     27  H1  UNL     1      41.052  14.044  -2.429  1.00  0.00     0.161 HD
BRANCH  26  28
HETATM   28  C7  UNL     1      41.650  13.359  -4.370  1.00  0.00     0.126 C 
BRANCH  28  29
HETATM   29  C6  UNL     1      40.516  12.358  -4.299  1.00  0.00     0.058 C 
BRANCH  29  30
HETATM   30  C5  UNL     1      40.964  11.037  -3.808  1.00  0.00    -0.057 A 
HETATM   31  C4  UNL     1      40.139   9.975  -3.532  1.00  0.00     0.007 A 
HETATM   32  C3  UNL     1      40.619   8.761  -3.070  1.00  0.00     0.007 A 
HETATM   33  C2  UNL     1      41.966   8.570  -2.864  1.00  0.00    -0.062 A 
HETATM   34  C1  UNL     1      42.474   7.263  -2.363  1.00  0.00     0.048 C 
HETATM   35  C29 UNL     1      42.803   9.628  -3.136  1.00  0.00     0.007 A 
HETATM   36  C28 UNL     1      42.330  10.834  -3.596  1.00  0.00     0.007 A 
ENDBRANCH  29  30
ENDBRANCH  28  29
ENDBRANCH  26  28
ENDBRANCH   1  26
BRANCH   3  37
HETATM   37  C11 UNL     1      43.901  18.561  -3.797  1.00  0.00     0.094 C 
HETATM   38  C12 UNL     1      45.044  18.606  -4.780  1.00  0.00     0.052 C 
HETATM   39  C13 UNL     1      42.673  19.194  -4.405  1.00  0.00     0.052 C 
BRANCH  37  40
HETATM   40  O1  UNL     1      44.244  19.277  -2.668  1.00  0.00    -0.384 OA
ATOM     41  H1  UNL     1      44.489  20.164  -2.904  1.00  0.00     0.211 HD
ENDBRANCH  37  40
ENDBRANCH   3  37
TORSDOF 9
ENDMDL
MODEL 4
REMARK VINA RESULT: -8.848199106      3.685      6.993
REMARK  9 active torsions:
REMARK  status: ('A' for Active; 'I' for Inactive)
REMARK    1  A    between atoms: C5_5  and  C6_6 
REMARK    2  A    between atoms: C6_6  and  C7_7 
REMARK    3  A    between atoms: C7_7  and  N1_8 
REMARK    4  A    between atoms: N1_8  and  C8_10 
REMARK    5  A    between atoms: C10_12  and  C11_13 
REMARK    6  A    between atoms: C11_13  and  O1_16 
REMARK    7  A    between atoms: N3_20  and  C14_21 
REMARK    8  A    between atoms: C16_23  and  C17_24 
REMARK    9  A    between atoms: C17_24  and  N4_25 
ROOT
HETATM    1  C8  UNL     1      46.623   8.488   0.410  1.00  0.00     0.125 A 
HETATM    2  C9  UNL     1      47.573   7.639   0.929  1.00  0.00     0.079 A 
HETATM    3  C10 UNL     1      48.659   8.379   1.342  1.00  0.00     0.063 A 
HETATM    4  N2  UNL     1      48.330   9.651   1.058  1.00  0.00    -0.293 N 
ATOM      5  H2  UNL     1      48.930  10.454   1.243  1.00  0.00     0.187 HD
HETATM    6  N3  UNL     1      47.135   9.727   0.511  1.00  0.00    -0.238 N 
ENDROOT
BRANCH   6   7
HETATM    7  C14 UNL     1      46.480  10.913   0.097  1.00  0.00     0.080 A 
HETATM    8  C15 UNL     1      45.640  11.600   0.952  1.00  0.00     0.042 A 
HETATM    9  C16 UNL     1      44.990  12.761   0.559  1.00  0.00    -0.037 A 
HETATM   10  C25 UNL     1      45.221  13.194  -0.727  1.00  0.00     0.011 A 
HETATM   11  C26 UNL     1      46.066  12.501  -1.594  1.00  0.00     0.027 A 
HETATM   12  C27 UNL     1      46.705  11.351  -1.189  1.00  0.00     0.062 A 
HETATM   13 CL1  UNL     1      47.781  10.473  -2.288  1.00  0.00    -0.082 Cl
BRANCH   9  14
HETATM   14  C17 UNL     1      44.104  13.496   1.492  1.00  0.00     0.172 C 
BRANCH  14  15
HETATM   15  N4  UNL     1      44.650  14.766   1.833  1.00  0.00    -0.293 N 
HETATM   16  C18 UNL     1      44.109  15.951   1.440  1.00  0.00     0.328 A 
HETATM   17  O2  UNL     1      43.078  16.085   0.752  1.00  0.00    -0.246 OA
HETATM   18  N5  UNL     1      44.852  16.956   1.904  1.00  0.00    -0.306 N 
HETATM   19  C19 UNL     1      45.867  16.407   2.595  1.00  0.00     0.063 A 
ATOM     20  H5  UNL     1      44.683  17.952   1.762  1.00  0.00     0.171 HD
HETATM   21  C20 UNL     1      46.922  16.966   3.282  1.00  0.00     0.032 A 
HETATM   22  C24 UNL     1      45.746  15.009   2.557  1.00  0.00     0.066 A 
HETATM   23  C21 UNL     1      47.837  16.176   3.918  1.00  0.00     0.002 A 
HETATM   24  C22 UNL     1      47.727  14.796   3.886  1.00  0.00     0.002 A 
HETATM   25  C23 UNL     1      46.676  14.217   3.202  1.00  0.00     0.032 A 
ENDBRANCH  14  15
ENDBRANCH   9  14
ENDBRANCH   6   7
BRANCH   1  26
HETATM   26  N1  UNL     1      45.453   8.159  -0.080  1.00  0.00    -0.374 N 
ATOM     27  H1  UNL     1      44.648   8.029   0.532  1.00  0.00     0.161 HD
BRANCH  26  28
HETATM   28  C7  UNL     1      45.331   7.986  -1.499  1.00  0.00     0.126 C 
BRANCH  28  29
HETATM   29  C6  UNL     1      43.960   8.389  -1.999  1.00  0.00     0.058 C 
BRANCH  29  30
HETATM   30  C5  UNL     1      44.018   9.520  -2.949  1.00  0.00    -0.057 A 
HETATM   31  C4  UNL     1      44.865   9.604  -4.026  1.00  0.00     0.007 A 
HETATM   32  C3  UNL     1      44.875  10.694  -4.881  1.00  0.00     0.007 A 
HETATM   33  C2  UNL     1      44.022  11.754  -4.678  1.00  0.00    -0.062 A 
HETATM   34  C1  UNL     1      44.042  12.925  -5.598  1.00  0.00     0.048 C 
HETATM   35  C29 UNL     1      43.170  11.682  -3.599  1.00  0.00     0.007 A 
HETATM   36  C28 UNL     1      43.156  10.602  -2.750  1.00  0.00     0.007 A 
ENDBRANCH  29  30
ENDBRANCH  28  29
ENDBRANCH  26  28
ENDBRANCH   1  26
BRANCH   3  37
HETATM   37  C11 UNL     1      49.922   7.913   1.973  1.00  0.00     0.094 C 
HETATM   38  C12 UNL     1      49.789   7.898   3.475  1.00  0.00     0.052 C 
HETATM   39  C13 UNL     1      50.227   6.522   1.470  1.00  0.00     0.052 C 
BRANCH  37  40
HETATM   40  O1  UNL     1      50.967   8.741   1.618  1.00  0.00    -0.384 OA
ATOM     41  H1  UNL     1      50.694   9.341   0.934  1.00  0.00     0.211 HD
ENDBRANCH  37  40
ENDBRANCH   3  37
TORSDOF 9
ENDMDL
MODEL 5
REMARK VINA RESULT: -8.716185422      2.565      6.993
REMARK  9 active torsions:
REMARK  status: ('A' for Active; 'I' for Inactive)
REMARK    1  A    between atoms: C5_5  and  C6_6 
REMARK    2  A    between atoms: C6_6  and  C7_7 
REMARK    3  A    between atoms: C7_7  and  N1_8 
REMARK    4  A    between atoms: N1_8  and  C8_10 
REMARK    5  A    between atoms: C10_12  and  C11_13 
REMARK    6  A    between atoms: C11_13  and  O1_16 
REMARK    7  A    between atoms: N3_20  and  C14_21 
REMARK    8  A    between atoms: C16_23  and  C17_24 
REMARK    9  A    between atoms: C17_24  and  N4_25 
ROOT
HETATM    1  C8  UNL     1      43.878  15.554  -1.914  1.00  0.00     0.125 A 
HETATM    2  C9  UNL     1      44.432  16.785  -2.174  1.00  0.00     0.079 A 
HETATM    3  C10 UNL     1      44.823  16.833  -3.493  1.00  0.00     0.063 A 
HETATM    4  N2  UNL     1      44.493  15.628  -3.989  1.00  0.00    -0.293 N 
ATOM      5  H2  UNL     1      44.654  15.340  -4.953  1.00  0.00     0.187 HD
HETATM    6  N3  UNL     1      43.936  14.868  -3.070  1.00  0.00    -0.238 N 
ENDROOT
BRANCH   6   7
HETATM    7  C14 UNL     1      43.463  13.545  -3.254  1.00  0.00     0.080 A 
HETATM    8  C15 UNL     1      44.282  12.457  -3.021  1.00  0.00     0.042 A 
HETATM    9  C16 UNL     1      43.834  11.156  -3.200  1.00  0.00    -0.037 A 
HETATM   10  C25 UNL     1      42.533  11.003  -3.623  1.00  0.00     0.011 A 
HETATM   11  C26 UNL     1      41.705  12.100  -3.861  1.00  0.00     0.027 A 
HETATM   12  C27 UNL     1      42.164  13.384  -3.679  1.00  0.00     0.062 A 
HETATM   13 CL1  UNL     1      41.111  14.777  -3.978  1.00  0.00    -0.082 Cl
BRANCH   9  14
HETATM   14  C17 UNL     1      44.718   9.997  -2.932  1.00  0.00     0.172 C 
BRANCH  14  15
HETATM   15  N4  UNL     1      45.760  10.341  -2.023  1.00  0.00    -0.293 N 
HETATM   16  C18 UNL     1      47.070  10.440  -2.380  1.00  0.00     0.328 A 
HETATM   17  O2  UNL     1      47.526  10.261  -3.526  1.00  0.00    -0.246 OA
HETATM   18  N5  UNL     1      47.798  10.762  -1.310  1.00  0.00    -0.306 N 
HETATM   19  C19 UNL     1      46.948  10.869  -0.274  1.00  0.00     0.063 A 
ATOM     20  H5  UNL     1      48.809  10.901  -1.284  1.00  0.00     0.171 HD
HETATM   21  C20 UNL     1      47.149  11.177   1.054  1.00  0.00     0.032 A 
HETATM   22  C24 UNL     1      45.644  10.602  -0.719  1.00  0.00     0.066 A 
HETATM   23  C21 UNL     1      46.098  11.225   1.926  1.00  0.00     0.002 A 
HETATM   24  C22 UNL     1      44.808  10.964   1.496  1.00  0.00     0.002 A 
HETATM   25  C23 UNL     1      44.587  10.652   0.169  1.00  0.00     0.032 A 
ENDBRANCH  14  15
ENDBRANCH   9  14
ENDBRANCH   6   7
BRANCH   1  26
HETATM   26  N1  UNL     1      43.387  15.132  -0.774  1.00  0.00    -0.374 N 
ATOM     27  H1  UNL     1      42.402  15.268  -0.547  1.00  0.00     0.161 HD
BRANCH  26  28
HETATM   28  C7  UNL     1      44.268  14.474   0.146  1.00  0.00     0.126 C 
BRANCH  28  29
HETATM   29  C6  UNL     1      44.018  14.910   1.574  1.00  0.00     0.058 C 
BRANCH  29  30
HETATM   30  C5  UNL     1      45.267  15.273   2.277  1.00  0.00    -0.057 A 
HETATM   31  C4  UNL     1      46.206  14.380   2.732  1.00  0.00     0.007 A 
HETATM   32  C3  UNL     1      47.357  14.783   3.388  1.00  0.00     0.007 A 
HETATM   33  C2  UNL     1      47.608  16.117   3.615  1.00  0.00    -0.062 A 
HETATM   34  C1  UNL     1      48.847  16.541   4.325  1.00  0.00     0.048 C 
HETATM   35  C29 UNL     1      46.673  17.021   3.165  1.00  0.00     0.007 A 
HETATM   36  C28 UNL     1      45.529  16.625   2.513  1.00  0.00     0.007 A 
ENDBRANCH  29  30
ENDBRANCH  28  29
ENDBRANCH  26  28
ENDBRANCH   1  26
BRANCH   3  37
HETATM   37  C11 UNL     1      45.460  17.951  -4.240  1.00  0.00     0.094 C 
HETATM   38  C12 UNL     1      46.218  17.426  -5.433  1.00  0.00     0.052 C 
HETATM   39  C13 UNL     1      44.379  18.902  -4.695  1.00  0.00     0.052 C 
BRANCH  37  40
HETATM   40  O1  UNL     1      46.327  18.641  -3.418  1.00  0.00    -0.384 OA
ATOM     41  H1  UNL     1      47.213  18.592  -3.760  1.00  0.00     0.211 HD
ENDBRANCH  37  40
ENDBRANCH   3  37
TORSDOF 9
ENDMDL
