MODEL 1
REMARK VINA RESULT: -9.836661878      0.000      0.000
REMARK  9 active torsions:
REMARK  status: ('A' for Active; 'I' for Inactive)
REMARK    1  A    between atoms: O1_2  and  C2_3 
REMARK    2  A    between atoms: C2_3  and  N1_4 
REMARK    3  A    between atoms: C2_3  and  O2_44 
REMARK    4  A    between atoms: N1_4  and  C3_6 
REMARK    5  A    between atoms: C5_10  and  C6_11 
REMARK    6  A    between atoms: C9_14  and  C10_15 
REMARK    7  A    between atoms: C12_21  and  C13_22 
REMARK    8  A    between atoms: N6_29  and  C18_31 
REMARK    9  A    between atoms: C18_31  and  C19_32 
ROOT
HETATM    1  C10 UNL     1      48.964   9.784  -0.406  1.00  0.00     0.071 A 
HETATM    2  N3  UNL     1      50.068  10.050  -1.302  1.00  0.00    -0.350 N 
ATOM      3  H3  UNL     1      50.872   9.451  -1.486  1.00  0.00     0.166 HD
HETATM    4  C11 UNL     1      49.812  11.241  -1.834  1.00  0.00     0.181 A 
HETATM    5  N4  UNL     1      48.672  11.719  -1.332  1.00  0.00    -0.350 N 
ATOM      6  H4  UNL     1      48.262  12.622  -1.572  1.00  0.00     0.166 HD
HETATM    7  C12 UNL     1      48.141  10.833  -0.460  1.00  0.00     0.075 A 
ENDROOT
BRANCH   1   8
HETATM    8  C9  UNL     1      49.037   8.491   0.253  1.00  0.00    -0.007 A 
HETATM    9  C8  UNL     1      48.224   8.285   1.357  1.00  0.00     0.014 A 
HETATM   10  C7  UNL     1      48.552   7.303   2.320  1.00  0.00     0.013 A 
HETATM   11  C6  UNL     1      49.692   6.554   2.134  1.00  0.00    -0.023 A 
HETATM   12  C26 UNL     1      50.493   6.729   1.029  1.00  0.00     0.013 A 
HETATM   13  C25 UNL     1      50.158   7.721   0.074  1.00  0.00     0.014 A 
BRANCH  11  14
HETATM   14  C5  UNL     1      50.353   6.021   3.381  1.00  0.00     0.006 A 
HETATM   15  C4  UNL     1      51.667   6.106   3.685  1.00  0.00     0.119 A 
HETATM   16  N2  UNL     1      52.189   5.376   4.751  1.00  0.00    -0.201 N 
HETATM   17  C3  UNL     1      51.436   4.592   5.481  1.00  0.00     0.681 A 
ATOM     18  H2  UNL     1      53.182   5.455   4.968  1.00  0.00     0.183 HD
HETATM   19  N7  UNL     1      50.076   4.476   5.202  1.00  0.00    -0.201 N 
HETATM   20  C27 UNL     1      49.575   5.195   4.163  1.00  0.00     0.119 A 
ATOM     21  H7  UNL     1      49.475   3.870   5.760  1.00  0.00     0.183 HD
BRANCH  17  22
HETATM   22  N1  UNL     1      51.790   3.947   6.500  1.00  0.00    -0.176 N 
ATOM     23  H1  UNL     1      52.061   4.362   7.391  1.00  0.00     0.182 HD
BRANCH  22  24
HETATM   24  C2  UNL     1      51.749   2.307   6.176  1.00  0.00     0.384 C 
BRANCH  24  25
HETATM   25  O1  UNL     1      50.676   2.114   7.434  1.00  0.00    -0.349 OA
HETATM   26  C1  UNL     1      49.752   1.211   6.894  1.00  0.00     0.206 C 
ENDBRANCH  24  25
BRANCH  24  27
HETATM   27  O2  UNL     1      52.783   2.150   6.931  1.00  0.00    -0.349 OA
HETATM   28  C28 UNL     1      53.731   1.153   6.607  1.00  0.00     0.206 C 
ENDBRANCH  24  27
ENDBRANCH  22  24
ENDBRANCH  17  22
ENDBRANCH  11  14
ENDBRANCH   1   8
BRANCH   7  29
HETATM   29  C13 UNL     1      46.830  10.956   0.147  1.00  0.00     0.037 A 
HETATM   30  C14 UNL     1      45.775  10.364  -0.606  1.00  0.00     0.019 A 
HETATM   31  C15 UNL     1      44.484  10.379  -0.159  1.00  0.00     0.018 A 
HETATM   32  C16 UNL     1      44.233  10.972   1.050  1.00  0.00     0.089 A 
HETATM   33  N5  UNL     1      45.275  11.524   1.740  1.00  0.00    -0.352 N 
HETATM   34  C17 UNL     1      46.540  11.551   1.348  1.00  0.00     0.113 A 
ATOM     35  H5  UNL     1      45.060  11.956   2.639  1.00  0.00     0.166 HD
HETATM   36  N6  UNL     1      47.485  12.162   1.997  1.00  0.00    -0.371 N 
ATOM     37  H6  UNL     1      48.410  12.167   1.569  1.00  0.00     0.161 HD
BRANCH  36  38
HETATM   38  C18 UNL     1      47.350  12.826   3.249  1.00  0.00     0.160 C 
BRANCH  38  39
HETATM   39  C19 UNL     1      47.108  14.311   3.085  1.00  0.00    -0.039 A 
HETATM   40  C20 UNL     1      47.944  15.279   3.567  1.00  0.00     0.009 A 
HETATM   41  C21 UNL     1      47.603  16.583   3.525  1.00  0.00     0.002 A 
HETATM   42  C22 UNL     1      46.380  16.942   2.982  1.00  0.00     0.024 A 
HETATM   43  C23 UNL     1      45.517  15.954   2.478  1.00  0.00     0.034 A 
HETATM   44 CL1  UNL     1      44.003  16.440   1.787  1.00  0.00    -0.084 Cl
HETATM   45  C24 UNL     1      45.891  14.638   2.536  1.00  0.00     0.032 A 
ENDBRANCH  38  39
ENDBRANCH  36  38
ENDBRANCH   7  29
TORSDOF 9
ENDMDL
MODEL 2
REMARK VINA RESULT: -9.672708759      1.029      1.141
REMARK  9 active torsions:
REMARK  status: ('A' for Active; 'I' for Inactive)
REMARK    1  A    between atoms: O1_2  and  C2_3 
REMARK    2  A    between atoms: C2_3  and  N1_4 
REMARK    3  A    between atoms: C2_3  and  O2_44 
REMARK    4  A    between atoms: N1_4  and  C3_6 
REMARK    5  A    between atoms: C5_10  and  C6_11 
REMARK    6  A    between atoms: C9_14  and  C10_15 
REMARK    7  A    between atoms: C12_21  and  C13_22 
REMARK    8  A    between atoms: N6_29  and  C18_31 
REMARK    9  A    between atoms: C18_31  and  C19_32 
ROOT
HETATM    1  C10 UNL     1      49.109   9.898  -0.605  1.00  0.00     0.071 A 
HETATM    2  N3  UNL     1      50.187  10.229  -1.510  1.00  0.00    -0.350 N 
ATOM      3  H3  UNL     1      51.034   9.689  -1.686  1.00  0.00     0.166 HD
HETATM    4  C11 UNL     1      49.841  11.387  -2.064  1.00  0.00     0.181 A 
HETATM    5  N4  UNL     1      48.669  11.787  -1.567  1.00  0.00    -0.350 N 
ATOM      6  H4  UNL     1      48.191  12.651  -1.822  1.00  0.00     0.166 HD
HETATM    7  C12 UNL     1      48.208  10.880  -0.676  1.00  0.00     0.075 A 
ENDROOT
BRANCH   1   8
HETATM    8  C9  UNL     1      49.281   8.626   0.078  1.00  0.00    -0.007 A 
HETATM    9  C8  UNL     1      49.005   8.584   1.436  1.00  0.00     0.014 A 
HETATM   10  C7  UNL     1      49.578   7.585   2.257  1.00  0.00     0.013 A 
HETATM   11  C6  UNL     1      50.412   6.657   1.677  1.00  0.00    -0.023 A 
HETATM   12  C26 UNL     1      50.674   6.671   0.327  1.00  0.00     0.013 A 
HETATM   13  C25 UNL     1      50.099   7.680  -0.485  1.00  0.00     0.014 A 
BRANCH  11  14
HETATM   14  C5  UNL     1      51.467   6.054   2.572  1.00  0.00     0.006 A 
HETATM   15  C4  UNL     1      52.565   5.379   2.168  1.00  0.00     0.119 A 
HETATM   16  N2  UNL     1      53.337   4.677   3.091  1.00  0.00    -0.201 N 
HETATM   17  C3  UNL     1      53.027   4.644   4.362  1.00  0.00     0.681 A 
ATOM     18  H2  UNL     1      54.165   4.176   2.768  1.00  0.00     0.183 HD
HETATM   19  N7  UNL     1      51.902   5.326   4.822  1.00  0.00    -0.201 N 
HETATM   20  C27 UNL     1      51.158   6.012   3.915  1.00  0.00     0.119 A 
ATOM     21  H7  UNL     1      51.645   5.311   5.809  1.00  0.00     0.183 HD
BRANCH  17  22
HETATM   22  N1  UNL     1      53.687   4.101   5.283  1.00  0.00    -0.176 N 
ATOM     23  H1  UNL     1      54.629   4.371   5.566  1.00  0.00     0.182 HD
BRANCH  22  24
HETATM   24  C2  UNL     1      52.792   2.869   5.974  1.00  0.00     0.384 C 
BRANCH  24  25
HETATM   25  O1  UNL     1      52.695   3.763   7.375  1.00  0.00    -0.349 OA
HETATM   26  C1  UNL     1      51.495   3.306   7.931  1.00  0.00     0.206 C 
ENDBRANCH  24  25
BRANCH  24  27
HETATM   27  O2  UNL     1      53.891   2.291   6.326  1.00  0.00    -0.349 OA
HETATM   28  C28 UNL     1      53.964   0.880   6.316  1.00  0.00     0.206 C 
ENDBRANCH  24  27
ENDBRANCH  22  24
ENDBRANCH  17  22
ENDBRANCH  11  14
ENDBRANCH   1   8
BRANCH   7  29
HETATM   29  C13 UNL     1      46.894  10.915  -0.066  1.00  0.00     0.037 A 
HETATM   30  C14 UNL     1      45.868  10.303  -0.843  1.00  0.00     0.019 A 
HETATM   31  C15 UNL     1      44.578  10.238  -0.398  1.00  0.00     0.018 A 
HETATM   32  C16 UNL     1      44.299  10.769   0.833  1.00  0.00     0.089 A 
HETATM   33  N5  UNL     1      45.314  11.344   1.546  1.00  0.00    -0.352 N 
HETATM   34  C17 UNL     1      46.576  11.447   1.158  1.00  0.00     0.113 A 
ATOM     35  H5  UNL     1      45.079  11.728   2.461  1.00  0.00     0.166 HD
HETATM   36  N6  UNL     1      47.490  12.077   1.831  1.00  0.00    -0.371 N 
ATOM     37  H6  UNL     1      48.414  12.144   1.405  1.00  0.00     0.161 HD
BRANCH  36  38
HETATM   38  C18 UNL     1      47.324  12.683   3.109  1.00  0.00     0.160 C 
BRANCH  38  39
HETATM   39  C19 UNL     1      47.110  14.179   3.008  1.00  0.00    -0.039 A 
HETATM   40  C20 UNL     1      47.978  15.109   3.506  1.00  0.00     0.009 A 
HETATM   41  C21 UNL     1      47.663  16.421   3.523  1.00  0.00     0.002 A 
HETATM   42  C22 UNL     1      46.436  16.825   3.024  1.00  0.00     0.024 A 
HETATM   43  C23 UNL     1      45.541  15.875   2.504  1.00  0.00     0.034 A 
HETATM   44 CL1  UNL     1      44.022  16.419   1.869  1.00  0.00    -0.084 Cl
HETATM   45  C24 UNL     1      45.887  14.551   2.502  1.00  0.00     0.032 A 
ENDBRANCH  38  39
ENDBRANCH  36  38
ENDBRANCH   7  29
TORSDOF 9
ENDMDL
MODEL 3
REMARK VINA RESULT: -9.614170869      2.318      3.533
REMARK  9 active torsions:
REMARK  status: ('A' for Active; 'I' for Inactive)
REMARK    1  A    between atoms: O1_2  and  C2_3 
REMARK    2  A    between atoms: C2_3  and  N1_4 
REMARK    3  A    between atoms: C2_3  and  O2_44 
REMARK    4  A    between atoms: N1_4  and  C3_6 
REMARK    5  A    between atoms: C5_10  and  C6_11 
REMARK    6  A    between atoms: C9_14  and  C10_15 
REMARK    7  A    between atoms: C12_21  and  C13_22 
REMARK    8  A    between atoms: N6_29  and  C18_31 
REMARK    9  A    between atoms: C18_31  and  C19_32 
ROOT
HETATM    1  C10 UNL     1      45.488   9.424  -0.695  1.00  0.00     0.071 A 
HETATM    2  N3  UNL     1      44.795   8.181  -0.439  1.00  0.00    -0.350 N 
ATOM      3  H3  UNL     1      45.126   7.391   0.114  1.00  0.00     0.166 HD
HETATM    4  C11 UNL     1      43.634   8.286  -1.078  1.00  0.00     0.181 A 
HETATM    5  N4  UNL     1      43.573   9.463  -1.703  1.00  0.00    -0.350 N 
ATOM      6  H4  UNL     1      42.789   9.782  -2.272  1.00  0.00     0.166 HD
HETATM    7  C12 UNL     1      44.701  10.171  -1.471  1.00  0.00     0.075 A 
ENDROOT
BRANCH   1   8
HETATM    8  C9  UNL     1      46.781   9.524  -0.038  1.00  0.00    -0.007 A 
HETATM    9  C8  UNL     1      47.884   9.022  -0.713  1.00  0.00     0.014 A 
HETATM   10  C7  UNL     1      49.048   8.637  -0.006  1.00  0.00     0.013 A 
HETATM   11  C6  UNL     1      49.060   8.776   1.363  1.00  0.00    -0.023 A 
HETATM   12  C26 UNL     1      47.983   9.297   2.043  1.00  0.00     0.013 A 
HETATM   13  C25 UNL     1      46.820   9.673   1.324  1.00  0.00     0.014 A 
BRANCH  11  14
HETATM   14  C5  UNL     1      49.954   7.827   2.123  1.00  0.00     0.006 A 
HETATM   15  C4  UNL     1      49.968   7.644   3.462  1.00  0.00     0.119 A 
HETATM   16  N2  UNL     1      50.992   6.913   4.060  1.00  0.00    -0.201 N 
HETATM   17  C3  UNL     1      51.963   6.389   3.356  1.00  0.00     0.681 A 
ATOM     18  H2  UNL     1      50.985   6.783   5.072  1.00  0.00     0.183 HD
HETATM   19  N7  UNL     1      51.987   6.552   1.972  1.00  0.00    -0.201 N 
HETATM   20  C27 UNL     1      50.982   7.263   1.398  1.00  0.00     0.119 A 
ATOM     21  H7  UNL     1      52.736   6.151   1.409  1.00  0.00     0.183 HD
BRANCH  17  22
HETATM   22  N1  UNL     1      52.893   5.659   3.785  1.00  0.00    -0.176 N 
ATOM     23  H1  UNL     1      53.877   5.925   3.820  1.00  0.00     0.182 HD
BRANCH  22  24
HETATM   24  C2  UNL     1      52.275   4.189   4.289  1.00  0.00     0.384 C 
BRANCH  24  25
HETATM   25  O1  UNL     1      52.535   4.653   5.867  1.00  0.00    -0.349 OA
HETATM   26  C1  UNL     1      51.563   3.915   6.552  1.00  0.00     0.206 C 
ENDBRANCH  24  25
BRANCH  24  27
HETATM   27  O2  UNL     1      53.450   3.672   4.165  1.00  0.00    -0.349 OA
HETATM   28  C28 UNL     1      53.575   2.335   3.727  1.00  0.00     0.206 C 
ENDBRANCH  24  27
ENDBRANCH  22  24
ENDBRANCH  17  22
ENDBRANCH  11  14
ENDBRANCH   1   8
BRANCH   7  29
HETATM   29  C13 UNL     1      44.905  11.552  -1.862  1.00  0.00     0.037 A 
HETATM   30  C14 UNL     1      45.307  11.727  -3.218  1.00  0.00     0.019 A 
HETATM   31  C15 UNL     1      45.521  12.969  -3.744  1.00  0.00     0.018 A 
HETATM   32  C16 UNL     1      45.322  14.052  -2.929  1.00  0.00     0.089 A 
HETATM   33  N5  UNL     1      44.933  13.838  -1.636  1.00  0.00    -0.352 N 
HETATM   34  C17 UNL     1      44.726  12.658  -1.071  1.00  0.00     0.113 A 
ATOM     35  H5  UNL     1      44.789  14.663  -1.052  1.00  0.00     0.166 HD
HETATM   36  N6  UNL     1      44.439  12.499   0.186  1.00  0.00    -0.371 N 
ATOM     37  H6  UNL     1      44.361  11.540   0.524  1.00  0.00     0.161 HD
BRANCH  36  38
HETATM   38  C18 UNL     1      44.223  13.537   1.136  1.00  0.00     0.160 C 
BRANCH  38  39
HETATM   39  C19 UNL     1      45.472  13.848   1.934  1.00  0.00    -0.039 A 
HETATM   40  C20 UNL     1      46.379  12.907   2.331  1.00  0.00     0.009 A 
HETATM   41  C21 UNL     1      47.390  13.218   3.168  1.00  0.00     0.002 A 
HETATM   42  C22 UNL     1      47.504  14.518   3.631  1.00  0.00     0.024 A 
HETATM   43  C23 UNL     1      46.579  15.494   3.223  1.00  0.00     0.034 A 
HETATM   44 CL1  UNL     1      46.765  17.116   3.806  1.00  0.00    -0.084 Cl
HETATM   45  C24 UNL     1      45.563  15.148   2.374  1.00  0.00     0.032 A 
ENDBRANCH  38  39
ENDBRANCH  36  38
ENDBRANCH   7  29
TORSDOF 9
ENDMDL
MODEL 4
REMARK VINA RESULT: -9.613992192      3.683      5.342
REMARK  9 active torsions:
REMARK  status: ('A' for Active; 'I' for Inactive)
REMARK    1  A    between atoms: O1_2  and  C2_3 
REMARK    2  A    between atoms: C2_3  and  N1_4 
REMARK    3  A    between atoms: C2_3  and  O2_44 
REMARK    4  A    between atoms: N1_4  and  C3_6 
REMARK    5  A    between atoms: C5_10  and  C6_11 
REMARK    6  A    between atoms: C9_14  and  C10_15 
REMARK    7  A    between atoms: C12_21  and  C13_22 
REMARK    8  A    between atoms: N6_29  and  C18_31 
REMARK    9  A    between atoms: C18_31  and  C19_32 
ROOT
HETATM    1  C10 UNL     1      45.801  13.533  -2.854  1.00  0.00     0.071 A 
HETATM    2  N3  UNL     1      47.114  13.631  -3.452  1.00  0.00    -0.350 N 
ATOM      3  H3  UNL     1      47.863  12.940  -3.416  1.00  0.00     0.166 HD
HETATM    4  C11 UNL     1      47.138  14.813  -4.060  1.00  0.00     0.181 A 
HETATM    5  N4  UNL     1      45.974  15.437  -3.870  1.00  0.00    -0.350 N 
ATOM      6  H4  UNL     1      45.744  16.364  -4.226  1.00  0.00     0.166 HD
HETATM    7  C12 UNL     1      45.145  14.660  -3.137  1.00  0.00     0.075 A 
ENDROOT
BRANCH   1   8
HETATM    8  C9  UNL     1      45.559  12.275  -2.167  1.00  0.00    -0.007 A 
HETATM    9  C8  UNL     1      45.235  12.331  -0.819  1.00  0.00     0.014 A 
HETATM   10  C7  UNL     1      45.452  11.215   0.021  1.00  0.00     0.013 A 
HETATM   11  C6  UNL     1      45.987  10.072  -0.530  1.00  0.00    -0.023 A 
HETATM   12  C26 UNL     1      46.287   9.993  -1.870  1.00  0.00     0.013 A 
HETATM   13  C25 UNL     1      46.072  11.121  -2.701  1.00  0.00     0.014 A 
BRANCH  11  14
HETATM   14  C5  UNL     1      46.779   9.189   0.402  1.00  0.00     0.006 A 
HETATM   15  C4  UNL     1      46.529   7.888   0.673  1.00  0.00     0.119 A 
HETATM   16  N2  UNL     1      47.190   7.251   1.721  1.00  0.00    -0.201 N 
HETATM   17  C3  UNL     1      48.060   7.880   2.469  1.00  0.00     0.681 A 
ATOM     18  H2  UNL     1      46.992   6.268   1.909  1.00  0.00     0.183 HD
HETATM   19  N7  UNL     1      48.348   9.222   2.224  1.00  0.00    -0.201 N 
HETATM   20  C27 UNL     1      47.701   9.834   1.198  1.00  0.00     0.119 A 
ATOM     21  H7  UNL     1      49.022   9.728   2.798  1.00  0.00     0.183 HD
BRANCH  17  22
HETATM   22  N1  UNL     1      48.757   7.384   3.390  1.00  0.00    -0.176 N 
ATOM     23  H1  UNL     1      48.704   7.649   4.373  1.00  0.00     0.182 HD
BRANCH  22  24
HETATM   24  C2  UNL     1      49.786   6.224   2.762  1.00  0.00     0.384 C 
BRANCH  24  25
HETATM   25  O1  UNL     1      48.893   5.053   3.538  1.00  0.00    -0.349 OA
HETATM   26  C1  UNL     1      48.786   4.065   2.553  1.00  0.00     0.206 C 
ENDBRANCH  24  25
BRANCH  24  27
HETATM   27  O2  UNL     1      50.573   6.402   3.768  1.00  0.00    -0.349 OA
HETATM   28  C28 UNL     1      51.971   6.399   3.561  1.00  0.00     0.206 C 
ENDBRANCH  24  27
ENDBRANCH  22  24
ENDBRANCH  17  22
ENDBRANCH  11  14
ENDBRANCH   1   8
BRANCH   7  29
HETATM   29  C13 UNL     1      43.750  14.955  -2.878  1.00  0.00     0.037 A 
HETATM   30  C14 UNL     1      42.900  14.823  -4.015  1.00  0.00     0.019 A 
HETATM   31  C15 UNL     1      41.555  15.048  -3.930  1.00  0.00     0.018 A 
HETATM   32  C16 UNL     1      41.040  15.393  -2.709  1.00  0.00     0.089 A 
HETATM   33  N5  UNL     1      41.891  15.505  -1.645  1.00  0.00    -0.352 N 
HETATM   34  C17 UNL     1      43.201  15.313  -1.673  1.00  0.00     0.113 A 
ATOM     35  H5  UNL     1      41.480  15.759  -0.747  1.00  0.00     0.166 HD
HETATM   36  N6  UNL     1      43.983  15.514  -0.656  1.00  0.00    -0.371 N 
ATOM     37  H6  UNL     1      44.983  15.392  -0.811  1.00  0.00     0.161 HD
BRANCH  36  38
HETATM   38  C18 UNL     1      43.575  15.887   0.656  1.00  0.00     0.160 C 
BRANCH  38  39
HETATM   39  C19 UNL     1      44.713  15.808   1.652  1.00  0.00    -0.039 A 
HETATM   40  C20 UNL     1      45.351  16.900   2.170  1.00  0.00     0.009 A 
HETATM   41  C21 UNL     1      46.455  16.768   2.934  1.00  0.00     0.002 A 
HETATM   42  C22 UNL     1      46.946  15.499   3.194  1.00  0.00     0.024 A 
HETATM   43  C23 UNL     1      46.292  14.371   2.670  1.00  0.00     0.034 A 
HETATM   44 CL1  UNL     1      46.922  12.797   3.032  1.00  0.00    -0.084 Cl
HETATM   45  C24 UNL     1      45.175  14.537   1.897  1.00  0.00     0.032 A 
ENDBRANCH  38  39
ENDBRANCH  36  38
ENDBRANCH   7  29
TORSDOF 9
ENDMDL
MODEL 5
REMARK VINA RESULT: -9.383249634      1.450      2.036
REMARK  9 active torsions:
REMARK  status: ('A' for Active; 'I' for Inactive)
REMARK    1  A    between atoms: O1_2  and  C2_3 
REMARK    2  A    between atoms: C2_3  and  N1_4 
REMARK    3  A    between atoms: C2_3  and  O2_44 
REMARK    4  A    between atoms: N1_4  and  C3_6 
REMARK    5  A    between atoms: C5_10  and  C6_11 
REMARK    6  A    between atoms: C9_14  and  C10_15 
REMARK    7  A    between atoms: C12_21  and  C13_22 
REMARK    8  A    between atoms: N6_29  and  C18_31 
REMARK    9  A    between atoms: C18_31  and  C19_32 
ROOT
HETATM    1  C10 UNL     1      48.317   8.843  -0.611  1.00  0.00     0.071 A 
HETATM    2  N3  UNL     1      49.679   9.110  -1.020  1.00  0.00    -0.350 N 
ATOM      3  H3  UNL     1      50.534   8.831  -0.541  1.00  0.00     0.166 HD
HETATM    4  C11 UNL     1      49.579   9.795  -2.154  1.00  0.00     0.181 A 
HETATM    5  N4  UNL     1      48.292   9.977  -2.454  1.00  0.00    -0.350 N 
ATOM      6  H4  UNL     1      47.948  10.484  -3.270  1.00  0.00     0.166 HD
HETATM    7  C12 UNL     1      47.509   9.394  -1.518  1.00  0.00     0.075 A 
ENDROOT
BRANCH   1   8
HETATM    8  C9  UNL     1      48.211   8.055   0.606  1.00  0.00    -0.007 A 
HETATM    9  C8  UNL     1      48.337   8.721   1.816  1.00  0.00     0.014 A 
HETATM   10  C7  UNL     1      48.724   8.026   2.985  1.00  0.00     0.013 A 
HETATM   11  C6  UNL     1      48.969   6.675   2.895  1.00  0.00    -0.023 A 
HETATM   12  C26 UNL     1      48.822   5.996   1.708  1.00  0.00     0.013 A 
HETATM   13  C25 UNL     1      48.439   6.704   0.541  1.00  0.00     0.014 A 
BRANCH  11  14
HETATM   14  C5  UNL     1      49.947   6.104   3.892  1.00  0.00     0.006 A 
HETATM   15  C4  UNL     1      51.289   6.261   3.873  1.00  0.00     0.119 A 
HETATM   16  N2  UNL     1      52.097   5.498   4.712  1.00  0.00    -0.201 N 
HETATM   17  C3  UNL     1      51.592   4.613   5.534  1.00  0.00     0.681 A 
ATOM     18  H2  UNL     1      53.108   5.633   4.686  1.00  0.00     0.183 HD
HETATM   19  N7  UNL     1      50.213   4.419   5.586  1.00  0.00    -0.201 N 
HETATM   20  C27 UNL     1      49.432   5.171   4.767  1.00  0.00     0.119 A 
ATOM     21  H7  UNL     1      49.803   3.733   6.220  1.00  0.00     0.183 HD
BRANCH  17  22
HETATM   22  N1  UNL     1      52.222   3.925   6.376  1.00  0.00    -0.176 N 
ATOM     23  H1  UNL     1      52.784   4.302   7.139  1.00  0.00     0.182 HD
BRANCH  22  24
HETATM   24  C2  UNL     1      52.000   2.297   6.061  1.00  0.00     0.384 C 
BRANCH  24  25
HETATM   25  O1  UNL     1      51.026   2.197   7.407  1.00  0.00    -0.349 OA
HETATM   26  C1  UNL     1      50.092   1.229   7.021  1.00  0.00     0.206 C 
ENDBRANCH  24  25
BRANCH  24  27
HETATM   27  O2  UNL     1      53.076   2.040   6.723  1.00  0.00    -0.349 OA
HETATM   28  C28 UNL     1      53.866   0.928   6.353  1.00  0.00     0.206 C 
ENDBRANCH  24  27
ENDBRANCH  22  24
ENDBRANCH  17  22
ENDBRANCH  11  14
ENDBRANCH   1   8
BRANCH   7  29
HETATM   29  C13 UNL     1      46.069   9.259  -1.613  1.00  0.00     0.037 A 
HETATM   30  C14 UNL     1      45.631   8.246  -2.515  1.00  0.00     0.019 A 
HETATM   31  C15 UNL     1      44.303   7.983  -2.701  1.00  0.00     0.018 A 
HETATM   32  C16 UNL     1      43.399   8.715  -1.979  1.00  0.00     0.089 A 
HETATM   33  N5  UNL     1      43.864   9.674  -1.123  1.00  0.00    -0.352 N 
HETATM   34  C17 UNL     1      45.135   9.981  -0.915  1.00  0.00     0.113 A 
ATOM     35  H5  UNL     1      43.167  10.202  -0.595  1.00  0.00     0.166 HD
HETATM   36  N6  UNL     1      45.528  10.957  -0.154  1.00  0.00    -0.371 N 
ATOM     37  H6  UNL     1      46.530  11.139  -0.116  1.00  0.00     0.161 HD
BRANCH  36  38
HETATM   38  C18 UNL     1      44.690  11.798   0.632  1.00  0.00     0.160 C 
BRANCH  38  39
HETATM   39  C19 UNL     1      45.488  12.768   1.478  1.00  0.00    -0.039 A 
HETATM   40  C20 UNL     1      46.603  12.422   2.189  1.00  0.00     0.009 A 
HETATM   41  C21 UNL     1      47.184  13.288   3.045  1.00  0.00     0.002 A 
HETATM   42  C22 UNL     1      46.634  14.550   3.201  1.00  0.00     0.024 A 
HETATM   43  C23 UNL     1      45.491  14.915   2.470  1.00  0.00     0.034 A 
HETATM   44 CL1  UNL     1      44.842  16.510   2.676  1.00  0.00    -0.084 Cl
HETATM   45  C24 UNL     1      44.923  14.014   1.611  1.00  0.00     0.032 A 
ENDBRANCH  38  39
ENDBRANCH  36  38
ENDBRANCH   7  29
TORSDOF 9
ENDMDL
