MODEL 1
REMARK VINA RESULT: -8.632610458      0.000      0.000
REMARK  9 active torsions:
REMARK  status: ('A' for Active; 'I' for Inactive)
REMARK    1  A    between atoms: C4_4  and  C5_5 
REMARK    2  A    between atoms: C5_5  and  N1_6 
REMARK    3  A    between atoms: N1_6  and  C6_8 
REMARK    4  A    between atoms: C7_11  and  C8_12 
REMARK    5  A    between atoms: C8_12  and  C9_13 
REMARK    6  A    between atoms: C8_12  and  C15_19 
REMARK    7  A    between atoms: C16_20  and  O1_21 
REMARK    8  A    between atoms: N5_35  and  C24_36 
REMARK    9  A    between atoms: C24_36  and  C25_37 
ROOT
HETATM    1  C6  UNL     1      46.873  10.885   1.682  1.00  0.00     0.681 A 
HETATM    2  N2  UNL     1      47.923  10.161   1.330  1.00  0.00    -0.190 N 
ATOM      3  H2  UNL     1      48.794  10.321   1.835  1.00  0.00     0.184 HD
HETATM    4  C7  UNL     1      47.931   9.212   0.335  1.00  0.00     0.074 A 
HETATM    5  C18 UNL     1      46.707   9.071  -0.288  1.00  0.00     0.019 A 
HETATM    6  C19 UNL     1      46.595   8.142  -1.301  1.00  0.00     0.016 A 
HETATM    7  C20 UNL     1      45.386   7.966  -1.951  1.00  0.00     0.001 A 
HETATM    8  C21 UNL     1      44.314   8.726  -1.569  1.00  0.00     0.002 A 
HETATM    9  C22 UNL     1      44.380   9.663  -0.562  1.00  0.00     0.031 A 
HETATM   10  C23 UNL     1      45.585   9.839   0.084  1.00  0.00     0.064 A 
HETATM   11  N5  UNL     1      45.662  10.748   1.067  1.00  0.00    -0.178 N 
ENDROOT
BRANCH   4  12
HETATM   12  C8  UNL     1      49.163   8.471   0.019  1.00  0.00     0.022 C 
BRANCH  12  13
HETATM   13  C9  UNL     1      50.160   9.118  -0.807  1.00  0.00    -0.022 A 
HETATM   14  C10 UNL     1      51.454   8.736  -0.849  1.00  0.00     0.012 A 
HETATM   15  C11 UNL     1      52.365   9.401  -1.645  1.00  0.00     0.001 A 
HETATM   16  C12 UNL     1      51.996  10.471  -2.422  1.00  0.00     0.000 A 
HETATM   17  C13 UNL     1      50.678  10.862  -2.378  1.00  0.00     0.001 A 
HETATM   18  C14 UNL     1      49.781  10.193  -1.582  1.00  0.00     0.012 A 
ENDBRANCH  12  13
BRANCH  12  19
HETATM   19  C15 UNL     1      49.602   7.493   1.032  1.00  0.00     0.099 A 
HETATM   20  C16 UNL     1      50.413   7.544   2.124  1.00  0.00     0.172 A 
HETATM   21  N3  UNL     1      50.451   6.321   2.674  1.00  0.00    -0.276 N 
HETATM   22  N4  UNL     1      49.696   5.492   1.976  1.00  0.00    -0.264 N 
ATOM     23  H3  UNL     1      50.983   6.069   3.507  1.00  0.00     0.189 HD
HETATM   24  C17 UNL     1      49.159   6.165   0.965  1.00  0.00     0.275 A 
ATOM     25  H4  UNL     1      49.550   4.503   2.179  1.00  0.00     0.190 HD
HETATM   26  O2  UNL     1      48.388   5.662   0.111  1.00  0.00    -0.266 OA
BRANCH  20  27
HETATM   27  O1  UNL     1      51.070   8.662   2.577  1.00  0.00    -0.344 OA
ATOM     28  H1  UNL     1      51.474   8.755   3.432  1.00  0.00     0.219 HD
ENDBRANCH  20  27
ENDBRANCH  12  19
ENDBRANCH   4  12
BRANCH   1  29
HETATM   29  N1  UNL     1      46.910  11.741   2.664  1.00  0.00    -0.225 N 
ATOM     30  H1  UNL     1      46.474  11.461   3.543  1.00  0.00     0.177 HD
BRANCH  29  31
HETATM   31  C5  UNL     1      47.509  13.034   2.616  1.00  0.00     0.143 C 
BRANCH  31  32
HETATM   32  C4  UNL     1      47.495  13.569   4.053  1.00  0.00     0.008 A 
HETATM   33  C2  UNL     1      47.372  15.074   4.202  1.00  0.00    -0.013 A 
HETATM   34  C1  UNL     1      47.233  15.913   2.975  1.00  0.00     0.010 C 
HETATM   35  C3  UNL     1      46.218  14.161   4.534  1.00  0.00     0.011 A 
ENDBRANCH  31  32
ENDBRANCH  29  31
ENDBRANCH   1  29
BRANCH  11  36
HETATM   36  C24 UNL     1      44.579  11.593   1.464  1.00  0.00     0.186 C 
BRANCH  36  37
HETATM   37  C25 UNL     1      44.420  12.848   0.689  1.00  0.00    -0.039 A 
HETATM   38  C26 UNL     1      44.456  12.974  -0.660  1.00  0.00     0.012 A 
HETATM   39  C27 UNL     1      44.341  14.222  -1.278  1.00  0.00     0.043 A 
HETATM   40  C28 UNL     1      44.188  15.323  -0.477  1.00  0.00     0.116 A 
HETATM   41  F1  UNL     1      44.071  16.556  -1.024  1.00  0.00    -0.206 F 
HETATM   42  C29 UNL     1      44.147  15.222   0.901  1.00  0.00     0.043 A 
HETATM   43  C30 UNL     1      44.261  14.000   1.473  1.00  0.00     0.012 A 
ENDBRANCH  36  37
ENDBRANCH  11  36
TORSDOF 9
ENDMDL
MODEL 2
REMARK VINA RESULT: -8.180520686      1.714      3.137
REMARK  9 active torsions:
REMARK  status: ('A' for Active; 'I' for Inactive)
REMARK    1  A    between atoms: C4_4  and  C5_5 
REMARK    2  A    between atoms: C5_5  and  N1_6 
REMARK    3  A    between atoms: N1_6  and  C6_8 
REMARK    4  A    between atoms: C7_11  and  C8_12 
REMARK    5  A    between atoms: C8_12  and  C9_13 
REMARK    6  A    between atoms: C8_12  and  C15_19 
REMARK    7  A    between atoms: C16_20  and  O1_21 
REMARK    8  A    between atoms: N5_35  and  C24_36 
REMARK    9  A    between atoms: C24_36  and  C25_37 
ROOT
HETATM    1  C6  UNL     1      46.654  11.501   2.027  1.00  0.00     0.681 A 
HETATM    2  N2  UNL     1      47.734  10.755   1.857  1.00  0.00    -0.190 N 
ATOM      3  H2  UNL     1      48.567  11.007   2.388  1.00  0.00     0.184 HD
HETATM    4  C7  UNL     1      47.819   9.666   1.022  1.00  0.00     0.074 A 
HETATM    5  C18 UNL     1      46.642   9.406   0.350  1.00  0.00     0.019 A 
HETATM    6  C19 UNL     1      46.609   8.333  -0.514  1.00  0.00     0.016 A 
HETATM    7  C20 UNL     1      45.448   8.034  -1.207  1.00  0.00     0.001 A 
HETATM    8  C21 UNL     1      44.345   8.821  -1.016  1.00  0.00     0.002 A 
HETATM    9  C22 UNL     1      44.333   9.901  -0.162  1.00  0.00     0.031 A 
HETATM   10  C23 UNL     1      45.489  10.198   0.527  1.00  0.00     0.064 A 
HETATM   11  N5  UNL     1      45.489  11.248   1.362  1.00  0.00    -0.178 N 
ENDROOT
BRANCH   4  12
HETATM   12  C8  UNL     1      49.078   8.911   0.904  1.00  0.00     0.022 C 
BRANCH  12  13
HETATM   13  C9  UNL     1      49.364   7.896   1.896  1.00  0.00    -0.022 A 
HETATM   14  C10 UNL     1      48.435   7.047   2.383  1.00  0.00     0.012 A 
HETATM   15  C11 UNL     1      48.764   6.107   3.339  1.00  0.00     0.001 A 
HETATM   16  C12 UNL     1      50.041   5.998   3.832  1.00  0.00     0.000 A 
HETATM   17  C13 UNL     1      50.988   6.864   3.337  1.00  0.00     0.001 A 
HETATM   18  C14 UNL     1      50.649   7.795   2.386  1.00  0.00     0.012 A 
ENDBRANCH  12  13
BRANCH  12  19
HETATM   19  C15 UNL     1      49.594   8.733  -0.466  1.00  0.00     0.099 A 
HETATM   20  C16 UNL     1      49.963   7.661  -1.219  1.00  0.00     0.172 A 
HETATM   21  N3  UNL     1      50.370   8.111  -2.416  1.00  0.00    -0.276 N 
HETATM   22  N4  UNL     1      50.273   9.428  -2.456  1.00  0.00    -0.264 N 
ATOM     23  H3  UNL     1      50.703   7.524  -3.180  1.00  0.00     0.189 HD
HETATM   24  C17 UNL     1      49.803   9.849  -1.288  1.00  0.00     0.275 A 
ATOM     25  H4  UNL     1      50.517  10.020  -3.250  1.00  0.00     0.190 HD
HETATM   26  O2  UNL     1      49.596  11.055  -1.002  1.00  0.00    -0.266 OA
BRANCH  20  27
HETATM   27  O1  UNL     1      49.921   6.350  -0.813  1.00  0.00    -0.344 OA
ATOM     28  H1  UNL     1      50.149   5.600  -1.349  1.00  0.00     0.219 HD
ENDBRANCH  20  27
ENDBRANCH  12  19
ENDBRANCH   4  12
BRANCH   1  29
HETATM   29  N1  UNL     1      46.617  12.497   2.867  1.00  0.00    -0.225 N 
ATOM     30  H1  UNL     1      45.923  12.450   3.613  1.00  0.00     0.177 HD
BRANCH  29  31
HETATM   31  C5  UNL     1      47.461  13.645   2.832  1.00  0.00     0.143 C 
BRANCH  31  32
HETATM   32  C4  UNL     1      47.371  14.289   4.221  1.00  0.00     0.008 A 
HETATM   33  C2  UNL     1      47.105  15.781   4.247  1.00  0.00    -0.013 A 
HETATM   34  C1  UNL     1      46.909  16.504   2.955  1.00  0.00     0.010 C 
HETATM   35  C3  UNL     1      46.036  14.792   4.640  1.00  0.00     0.011 A 
ENDBRANCH  31  32
ENDBRANCH  29  31
ENDBRANCH   1  29
BRANCH  11  36
HETATM   36  C24 UNL     1      44.373  12.119   1.554  1.00  0.00     0.186 C 
BRANCH  36  37
HETATM   37  C25 UNL     1      44.297  13.285   0.638  1.00  0.00    -0.039 A 
HETATM   38  C26 UNL     1      44.412  13.259  -0.712  1.00  0.00     0.012 A 
HETATM   39  C27 UNL     1      44.371  14.433  -1.469  1.00  0.00     0.043 A 
HETATM   40  C28 UNL     1      44.210  15.620  -0.803  1.00  0.00     0.116 A 
HETATM   41  F1  UNL     1      44.163  16.787  -1.487  1.00  0.00    -0.206 F 
HETATM   42  C29 UNL     1      44.091  15.674   0.572  1.00  0.00     0.043 A 
HETATM   43  C30 UNL     1      44.134  14.520   1.281  1.00  0.00     0.012 A 
ENDBRANCH  36  37
ENDBRANCH  11  36
TORSDOF 9
ENDMDL
MODEL 3
REMARK VINA RESULT: -8.170259438      3.089      6.208
REMARK  9 active torsions:
REMARK  status: ('A' for Active; 'I' for Inactive)
REMARK    1  A    between atoms: C4_4  and  C5_5 
REMARK    2  A    between atoms: C5_5  and  N1_6 
REMARK    3  A    between atoms: N1_6  and  C6_8 
REMARK    4  A    between atoms: C7_11  and  C8_12 
REMARK    5  A    between atoms: C8_12  and  C9_13 
REMARK    6  A    between atoms: C8_12  and  C15_19 
REMARK    7  A    between atoms: C16_20  and  O1_21 
REMARK    8  A    between atoms: N5_35  and  C24_36 
REMARK    9  A    between atoms: C24_36  and  C25_37 
ROOT
HETATM    1  C6  UNL     1      46.111  11.720   1.383  1.00  0.00     0.681 A 
HETATM    2  N2  UNL     1      45.928  11.476   0.095  1.00  0.00    -0.190 N 
ATOM      3  H2  UNL     1      46.302  10.602  -0.275  1.00  0.00     0.184 HD
HETATM    4  C7  UNL     1      45.275  12.308  -0.782  1.00  0.00     0.074 A 
HETATM    5  C18 UNL     1      44.807  13.462  -0.186  1.00  0.00     0.019 A 
HETATM    6  C19 UNL     1      44.130  14.371  -0.971  1.00  0.00     0.016 A 
HETATM    7  C20 UNL     1      43.642  15.541  -0.415  1.00  0.00     0.001 A 
HETATM    8  C21 UNL     1      43.843  15.772   0.919  1.00  0.00     0.002 A 
HETATM    9  C22 UNL     1      44.513  14.892   1.740  1.00  0.00     0.031 A 
HETATM   10  C23 UNL     1      44.999  13.727   1.185  1.00  0.00     0.064 A 
HETATM   11  N5  UNL     1      45.652  12.861   1.974  1.00  0.00    -0.178 N 
ENDROOT
BRANCH   4  12
HETATM   12  C8  UNL     1      45.137  11.940  -2.201  1.00  0.00     0.022 C 
BRANCH  12  13
HETATM   13  C9  UNL     1      46.316  11.985  -3.039  1.00  0.00    -0.022 A 
HETATM   14  C10 UNL     1      47.013  10.887  -3.404  1.00  0.00     0.012 A 
HETATM   15  C11 UNL     1      48.140  10.993  -4.195  1.00  0.00     0.001 A 
HETATM   16  C12 UNL     1      48.597  12.209  -4.639  1.00  0.00     0.000 A 
HETATM   17  C13 UNL     1      47.888  13.328  -4.266  1.00  0.00     0.001 A 
HETATM   18  C14 UNL     1      46.768  13.210  -3.479  1.00  0.00     0.012 A 
ENDBRANCH  12  13
BRANCH  12  19
HETATM   19  C15 UNL     1      44.081  10.958  -2.510  1.00  0.00     0.099 A 
HETATM   20  C16 UNL     1      43.814   9.681  -2.118  1.00  0.00     0.172 A 
HETATM   21  N3  UNL     1      42.699   9.276  -2.744  1.00  0.00    -0.276 N 
HETATM   22  N4  UNL     1      42.243  10.243  -3.519  1.00  0.00    -0.264 N 
ATOM     23  H3  UNL     1      42.268   8.358  -2.637  1.00  0.00     0.189 HD
HETATM   24  C17 UNL     1      43.055  11.288  -3.407  1.00  0.00     0.275 A 
ATOM     25  H4  UNL     1      41.409  10.196  -4.104  1.00  0.00     0.190 HD
HETATM   26  O2  UNL     1      42.899  12.374  -4.018  1.00  0.00    -0.266 OA
BRANCH  20  27
HETATM   27  O1  UNL     1      44.565   8.948  -1.233  1.00  0.00    -0.344 OA
ATOM     28  H1  UNL     1      44.232   8.516  -0.455  1.00  0.00     0.219 HD
ENDBRANCH  20  27
ENDBRANCH  12  19
ENDBRANCH   4  12
BRANCH   1  29
HETATM   29  N1  UNL     1      46.701  10.874   2.179  1.00  0.00    -0.225 N 
ATOM     30  H1  UNL     1      46.347  10.807   3.133  1.00  0.00     0.177 HD
BRANCH  29  31
HETATM   31  C5  UNL     1      47.799  10.032   1.831  1.00  0.00     0.143 C 
BRANCH  31  32
HETATM   32  C4  UNL     1      47.256   8.598   1.819  1.00  0.00     0.008 A 
HETATM   33  C2  UNL     1      47.385   7.849   0.507  1.00  0.00    -0.013 A 
HETATM   34  C1  UNL     1      48.054   8.521  -0.647  1.00  0.00     0.010 C 
HETATM   35  C3  UNL     1      48.256   7.505   1.690  1.00  0.00     0.011 A 
ENDBRANCH  31  32
ENDBRANCH  29  31
ENDBRANCH   1  29
BRANCH  11  36
HETATM   36  C24 UNL     1      45.923  13.087   3.359  1.00  0.00     0.186 C 
BRANCH  36  37
HETATM   37  C25 UNL     1      46.596  14.369   3.686  1.00  0.00    -0.039 A 
HETATM   38  C26 UNL     1      47.763  14.823   3.167  1.00  0.00     0.012 A 
HETATM   39  C27 UNL     1      48.327  16.029   3.589  1.00  0.00     0.043 A 
HETATM   40  C28 UNL     1      47.662  16.747   4.549  1.00  0.00     0.116 A 
HETATM   41  F1  UNL     1      48.164  17.923   4.993  1.00  0.00    -0.206 F 
HETATM   42  C29 UNL     1      46.471  16.308   5.094  1.00  0.00     0.043 A 
HETATM   43  C30 UNL     1      45.947  15.133   4.666  1.00  0.00     0.012 A 
ENDBRANCH  36  37
ENDBRANCH  11  36
TORSDOF 9
ENDMDL
MODEL 4
REMARK VINA RESULT: -8.129906745      3.551      6.222
REMARK  9 active torsions:
REMARK  status: ('A' for Active; 'I' for Inactive)
REMARK    1  A    between atoms: C4_4  and  C5_5 
REMARK    2  A    between atoms: C5_5  and  N1_6 
REMARK    3  A    between atoms: N1_6  and  C6_8 
REMARK    4  A    between atoms: C7_11  and  C8_12 
REMARK    5  A    between atoms: C8_12  and  C9_13 
REMARK    6  A    between atoms: C8_12  and  C15_19 
REMARK    7  A    between atoms: C16_20  and  O1_21 
REMARK    8  A    between atoms: N5_35  and  C24_36 
REMARK    9  A    between atoms: C24_36  and  C25_37 
ROOT
HETATM    1  C6  UNL     1      44.584  12.476   0.369  1.00  0.00     0.681 A 
HETATM    2  N2  UNL     1      44.749  11.848  -0.784  1.00  0.00    -0.190 N 
ATOM      3  H2  UNL     1      44.942  10.848  -0.750  1.00  0.00     0.184 HD
HETATM    4  C7  UNL     1      44.681  12.440  -2.023  1.00  0.00     0.074 A 
HETATM    5  C18 UNL     1      44.415  13.793  -1.962  1.00  0.00     0.019 A 
HETATM    6  C19 UNL     1      44.320  14.491  -3.147  1.00  0.00     0.016 A 
HETATM    7  C20 UNL     1      44.053  15.850  -3.133  1.00  0.00     0.001 A 
HETATM    8  C21 UNL     1      43.887  16.477  -1.929  1.00  0.00     0.002 A 
HETATM    9  C22 UNL     1      43.972  15.819  -0.722  1.00  0.00     0.031 A 
HETATM   10  C23 UNL     1      44.239  14.467  -0.736  1.00  0.00     0.064 A 
HETATM   11  N5  UNL     1      44.323  13.814   0.433  1.00  0.00    -0.178 N 
ENDROOT
BRANCH   4  12
HETATM   12  C8  UNL     1      44.891  11.644  -3.244  1.00  0.00     0.022 C 
BRANCH  12  13
HETATM   13  C9  UNL     1      46.241  11.245  -3.578  1.00  0.00    -0.022 A 
HETATM   14  C10 UNL     1      46.873  10.200  -3.002  1.00  0.00     0.012 A 
HETATM   15  C11 UNL     1      48.168   9.874  -3.351  1.00  0.00     0.001 A 
HETATM   16  C12 UNL     1      48.864  10.593  -4.292  1.00  0.00     0.000 A 
HETATM   17  C13 UNL     1      48.221  11.658  -4.879  1.00  0.00     0.001 A 
HETATM   18  C14 UNL     1      46.932  11.973  -4.523  1.00  0.00     0.012 A 
ENDBRANCH  12  13
BRANCH  12  19
HETATM   19  C15 UNL     1      43.771  10.772  -3.643  1.00  0.00     0.099 A 
HETATM   20  C16 UNL     1      43.146   9.699  -3.085  1.00  0.00     0.172 A 
HETATM   21  N3  UNL     1      42.176   9.299  -3.921  1.00  0.00    -0.276 N 
HETATM   22  N4  UNL     1      42.157  10.075  -4.990  1.00  0.00    -0.264 N 
ATOM     23  H3  UNL     1      41.547   8.513  -3.756  1.00  0.00     0.189 HD
HETATM   24  C17 UNL     1      43.113  10.987  -4.862  1.00  0.00     0.275 A 
ATOM     25  H4  UNL     1      41.517   9.987  -5.780  1.00  0.00     0.190 HD
HETATM   26  O2  UNL     1      43.358  11.878  -5.713  1.00  0.00    -0.266 OA
BRANCH  20  27
HETATM   27  O1  UNL     1      43.461   9.135  -1.874  1.00  0.00    -0.344 OA
ATOM     28  H1  UNL     1      43.217   8.261  -1.593  1.00  0.00     0.219 HD
ENDBRANCH  20  27
ENDBRANCH  12  19
ENDBRANCH   4  12
BRANCH   1  29
HETATM   29  N1  UNL     1      44.615  11.855   1.515  1.00  0.00    -0.225 N 
ATOM     30  H1  UNL     1      44.182  12.324   2.310  1.00  0.00     0.177 HD
BRANCH  29  31
HETATM   31  C5  UNL     1      45.204  10.578   1.752  1.00  0.00     0.143 C 
BRANCH  31  32
HETATM   32  C4  UNL     1      46.660  10.842   2.154  1.00  0.00     0.008 A 
HETATM   33  C2  UNL     1      47.658   9.761   1.787  1.00  0.00    -0.013 A 
HETATM   34  C1  UNL     1      47.180   8.559   1.041  1.00  0.00     0.010 C 
HETATM   35  C3  UNL     1      47.627  11.075   1.048  1.00  0.00     0.011 A 
ENDBRANCH  31  32
ENDBRANCH  29  31
ENDBRANCH   1  29
BRANCH  11  36
HETATM   36  C24 UNL     1      44.201  14.442   1.711  1.00  0.00     0.186 C 
BRANCH  36  37
HETATM   37  C25 UNL     1      45.467  14.924   2.318  1.00  0.00    -0.039 A 
HETATM   38  C26 UNL     1      46.490  14.156   2.768  1.00  0.00     0.012 A 
HETATM   39  C27 UNL     1      47.616  14.724   3.368  1.00  0.00     0.043 A 
HETATM   40  C28 UNL     1      47.660  16.088   3.490  1.00  0.00     0.116 A 
HETATM   41  F1  UNL     1      48.729  16.690   4.062  1.00  0.00    -0.206 F 
HETATM   42  C29 UNL     1      46.632  16.893   3.039  1.00  0.00     0.043 A 
HETATM   43  C30 UNL     1      45.550  16.316   2.461  1.00  0.00     0.012 A 
ENDBRANCH  36  37
ENDBRANCH  11  36
TORSDOF 9
ENDMDL
MODEL 5
REMARK VINA RESULT: -8.072127790      3.862      6.654
REMARK  9 active torsions:
REMARK  status: ('A' for Active; 'I' for Inactive)
REMARK    1  A    between atoms: C4_4  and  C5_5 
REMARK    2  A    between atoms: C5_5  and  N1_6 
REMARK    3  A    between atoms: N1_6  and  C6_8 
REMARK    4  A    between atoms: C7_11  and  C8_12 
REMARK    5  A    between atoms: C8_12  and  C9_13 
REMARK    6  A    between atoms: C8_12  and  C15_19 
REMARK    7  A    between atoms: C16_20  and  O1_21 
REMARK    8  A    between atoms: N5_35  and  C24_36 
REMARK    9  A    between atoms: C24_36  and  C25_37 
ROOT
HETATM    1  C6  UNL     1      44.223  14.170   0.063  1.00  0.00     0.681 A 
HETATM    2  N2  UNL     1      44.492  13.261  -0.860  1.00  0.00    -0.190 N 
ATOM      3  H2  UNL     1      44.071  13.387  -1.780  1.00  0.00     0.184 HD
HETATM    4  C7  UNL     1      45.295  12.161  -0.675  1.00  0.00     0.074 A 
HETATM    5  C18 UNL     1      45.816  12.080   0.600  1.00  0.00     0.019 A 
HETATM    6  C19 UNL     1      46.641  11.016   0.900  1.00  0.00     0.016 A 
HETATM    7  C20 UNL     1      47.187  10.896   2.167  1.00  0.00     0.001 A 
HETATM    8  C21 UNL     1      46.894  11.849   3.105  1.00  0.00     0.002 A 
HETATM    9  C22 UNL     1      46.077  12.927   2.848  1.00  0.00     0.031 A 
HETATM   10  C23 UNL     1      45.532  13.045   1.587  1.00  0.00     0.064 A 
HETATM   11  N5  UNL     1      44.735  14.092   1.325  1.00  0.00    -0.178 N 
ENDROOT
BRANCH   4  12
HETATM   12  C8  UNL     1      45.520  11.206  -1.773  1.00  0.00     0.022 C 
BRANCH  12  13
HETATM   13  C9  UNL     1      44.451  10.292  -2.116  1.00  0.00    -0.022 A 
HETATM   14  C10 UNL     1      43.585  10.505  -3.130  1.00  0.00     0.012 A 
HETATM   15  C11 UNL     1      42.576   9.604  -3.403  1.00  0.00     0.001 A 
HETATM   16  C12 UNL     1      42.410   8.461  -2.659  1.00  0.00     0.000 A 
HETATM   17  C13 UNL     1      43.290   8.244  -1.624  1.00  0.00     0.001 A 
HETATM   18  C14 UNL     1      44.291   9.148  -1.363  1.00  0.00     0.012 A 
ENDBRANCH  12  13
BRANCH  12  19
HETATM   19  C15 UNL     1      46.443  11.650  -2.833  1.00  0.00     0.099 A 
HETATM   20  C16 UNL     1      46.507  12.731  -3.658  1.00  0.00     0.172 A 
HETATM   21  N3  UNL     1      47.588  12.597  -4.440  1.00  0.00    -0.276 N 
HETATM   22  N4  UNL     1      48.218  11.474  -4.147  1.00  0.00    -0.264 N 
ATOM     23  H3  UNL     1      47.880  13.263  -5.156  1.00  0.00     0.189 HD
HETATM   24  C17 UNL     1      47.554  10.864  -3.171  1.00  0.00     0.275 A 
ATOM     25  H4  UNL     1      49.069  11.132  -4.594  1.00  0.00     0.190 HD
HETATM   26  O2  UNL     1      47.894   9.767  -2.663  1.00  0.00    -0.266 OA
BRANCH  20  27
HETATM   27  O1  UNL     1      45.614  13.774  -3.674  1.00  0.00    -0.344 OA
ATOM     28  H1  UNL     1      45.706  14.586  -3.191  1.00  0.00     0.219 HD
ENDBRANCH  20  27
ENDBRANCH  12  19
ENDBRANCH   4  12
BRANCH   1  29
HETATM   29  N1  UNL     1      43.489  15.219  -0.181  1.00  0.00    -0.225 N 
ATOM     30  H1  UNL     1      42.895  15.558   0.575  1.00  0.00     0.177 HD
BRANCH  29  31
HETATM   31  C5  UNL     1      43.446  15.934  -1.415  1.00  0.00     0.143 C 
BRANCH  31  32
HETATM   32  C4  UNL     1      42.140  15.523  -2.106  1.00  0.00     0.008 A 
HETATM   33  C2  UNL     1      41.862  16.177  -3.445  1.00  0.00    -0.013 A 
HETATM   34  C1  UNL     1      42.869  17.123  -4.011  1.00  0.00     0.010 C 
HETATM   35  C3  UNL     1      42.268  14.727  -3.356  1.00  0.00     0.011 A 
ENDBRANCH  31  32
ENDBRANCH  29  31
ENDBRANCH   1  29
BRANCH  11  36
HETATM   36  C24 UNL     1      44.368  15.080   2.290  1.00  0.00     0.186 C 
BRANCH  36  37
HETATM   37  C25 UNL     1      45.492  15.734   3.007  1.00  0.00    -0.039 A 
HETATM   38  C26 UNL     1      46.698  16.067   2.485  1.00  0.00     0.012 A 
HETATM   39  C27 UNL     1      47.699  16.638   3.273  1.00  0.00     0.043 A 
HETATM   40  C28 UNL     1      47.427  16.855   4.599  1.00  0.00     0.116 A 
HETATM   41  F1  UNL     1      48.362  17.406   5.408  1.00  0.00    -0.206 F 
HETATM   42  C29 UNL     1      46.206  16.526   5.156  1.00  0.00     0.043 A 
HETATM   43  C30 UNL     1      45.253  15.972   4.368  1.00  0.00     0.012 A 
ENDBRANCH  36  37
ENDBRANCH  11  36
TORSDOF 9
ENDMDL
