MODEL 1
REMARK VINA RESULT: -7.622022852      0.000      0.000
REMARK  11 active torsions:
REMARK  status: ('A' for Active; 'I' for Inactive)
REMARK    1  A    between atoms: C2_2  and  C3_3 
REMARK    2  A    between atoms: C3_3  and  C4_4 
REMARK    3  A    between atoms: C3_3  and  N3_20 
REMARK    4  A    between atoms: C6_6  and  C7_7 
REMARK    5  A    between atoms: C13_14  and  N1_15 
REMARK    6  A    between atoms: N1_15  and  N2_17 
REMARK    7  A    between atoms: N3_20  and  C15_21 
REMARK       I    between atoms: N3_20  and  C25_32 
REMARK    8  A    between atoms: C15_21  and  C16_22 
REMARK    9  A    between atoms: C25_32  and  C26_34 
REMARK   10  A    between atoms: C26_34  and  C27_35 
REMARK   11  A    between atoms: C27_35  and  C28_36 
ROOT
HETATM    1  N3  UNL     1      45.619  11.943   0.095  1.00  0.00    -0.339 N 
HETATM    2  C25 UNL     1      46.542  11.078   0.725  1.00  0.00     0.221 C 
HETATM    3  O2  UNL     1      46.696  10.949   1.958  1.00  0.00    -0.273 OA
ENDROOT
BRANCH   1   4
HETATM    4  C3  UNL     1      45.616  12.006  -1.343  1.00  0.00     0.122 C 
BRANCH   4   5
HETATM    5  C2  UNL     1      44.120  11.670  -1.701  1.00  0.00     0.026 C 
HETATM    6  C1  UNL     1      43.964  11.178  -3.084  1.00  0.00     0.007 C 
ENDBRANCH   4   5
BRANCH   4   7
HETATM    7  C4  UNL     1      45.936  13.233  -2.022  1.00  0.00    -0.005 A 
HETATM    8  C5  UNL     1      45.028  14.284  -1.998  1.00  0.00     0.019 A 
HETATM    9  C6  UNL     1      45.293  15.506  -2.587  1.00  0.00    -0.048 A 
HETATM   10  C11 UNL     1      46.502  15.649  -3.210  1.00  0.00     0.034 A 
HETATM   11  C12 UNL     1      47.419  14.632  -3.252  1.00  0.00     0.063 A 
HETATM   12 CL1  UNL     1      48.974  14.805  -4.047  1.00  0.00    -0.082 Cl
HETATM   13  C13 UNL     1      47.152  13.411  -2.662  1.00  0.00     0.080 A 
BRANCH   9  14
HETATM   14  C7  UNL     1      44.327  16.648  -2.566  1.00  0.00    -0.024 C 
HETATM   15  C8  UNL     1      44.033  17.129  -3.983  1.00  0.00     0.019 C 
HETATM   16  C9  UNL     1      44.912  17.777  -1.781  1.00  0.00     0.019 C 
HETATM   17  C10 UNL     1      42.996  16.195  -1.974  1.00  0.00     0.019 C 
ENDBRANCH   9  14
BRANCH  13  18
HETATM   18  N1  UNL     1      48.095  12.361  -2.736  1.00  0.00    -0.301 N 
HETATM   19  C14 UNL     1      47.945  11.335  -3.732  1.00  0.00     0.177 C 
BRANCH  18  20
HETATM   20  N2  UNL     1      49.160  12.352  -1.870  1.00  0.00    -0.343 N 
ATOM     21  H22 UNL     1      49.123  12.866  -0.990  1.00  0.00     0.177 HD
ATOM     22  H21 UNL     1      49.990  11.807  -2.104  1.00  0.00     0.177 HD
ENDBRANCH  18  20
ENDBRANCH  13  18
ENDBRANCH   4   7
ENDBRANCH   1   4
BRANCH   1  23
HETATM   23  C15 UNL     1      44.667  12.634   0.889  1.00  0.00     0.165 C 
BRANCH  23  24
HETATM   24  C16 UNL     1      45.027  13.909   1.508  1.00  0.00    -0.039 A 
HETATM   25  C17 UNL     1      44.434  15.114   1.244  1.00  0.00     0.011 A 
HETATM   26  C18 UNL     1      44.808  16.311   1.872  1.00  0.00     0.039 A 
HETATM   27  C19 UNL     1      45.816  16.296   2.799  1.00  0.00     0.086 A 
HETATM   28  O1  UNL     1      46.341  17.259   3.507  1.00  0.00    -0.315 OA
HETATM   29  C23 UNL     1      46.447  15.105   3.101  1.00  0.00     0.001 A 
HETATM   30  C20 UNL     1      47.309  16.759   4.282  1.00  0.00     0.050 A 
HETATM   31  C21 UNL     1      48.090  17.617   5.203  1.00  0.00     0.077 C 
HETATM   32  C22 UNL     1      47.398  15.410   4.048  1.00  0.00     0.046 A 
HETATM   33  C24 UNL     1      46.051  13.959   2.468  1.00  0.00     0.023 A 
ENDBRANCH  23  24
ENDBRANCH   1  23
BRANCH   2  34
HETATM   34  C26 UNL     1      47.442  10.208  -0.097  1.00  0.00     0.108 C 
BRANCH  34  35
HETATM   35  C27 UNL     1      47.124   8.743   0.099  1.00  0.00     0.052 C 
BRANCH  35  36
HETATM   36  C28 UNL     1      46.465   8.273  -1.160  1.00  0.00    -0.011 A 
HETATM   37  C29 UNL     1      45.067   8.211  -1.220  1.00  0.00     0.030 A 
HETATM   38  C30 UNL     1      44.074   8.555  -0.172  1.00  0.00     0.070 C 
HETATM   39  N4  UNL     1      44.799   7.762  -2.452  1.00  0.00    -0.305 N 
HETATM   40  N5  UNL     1      45.903   7.547  -3.139  1.00  0.00    -0.305 N 
ATOM     41  H4  UNL     1      43.859   7.606  -2.814  1.00  0.00     0.186 HD
HETATM   42  C31 UNL     1      46.955   7.861  -2.351  1.00  0.00     0.030 A 
ATOM     43  H5  UNL     1      45.955   7.203  -4.098  1.00  0.00     0.186 HD
HETATM   44  C32 UNL     1      48.395   7.786  -2.679  1.00  0.00     0.070 C 
ENDBRANCH  35  36
ENDBRANCH  34  35
ENDBRANCH   2  34
TORSDOF 11
ENDMDL
MODEL 2
REMARK VINA RESULT: -7.587025647      2.034      2.671
REMARK  11 active torsions:
REMARK  status: ('A' for Active; 'I' for Inactive)
REMARK    1  A    between atoms: C2_2  and  C3_3 
REMARK    2  A    between atoms: C3_3  and  C4_4 
REMARK    3  A    between atoms: C3_3  and  N3_20 
REMARK    4  A    between atoms: C6_6  and  C7_7 
REMARK    5  A    between atoms: C13_14  and  N1_15 
REMARK    6  A    between atoms: N1_15  and  N2_17 
REMARK    7  A    between atoms: N3_20  and  C15_21 
REMARK       I    between atoms: N3_20  and  C25_32 
REMARK    8  A    between atoms: C15_21  and  C16_22 
REMARK    9  A    between atoms: C25_32  and  C26_34 
REMARK   10  A    between atoms: C26_34  and  C27_35 
REMARK   11  A    between atoms: C27_35  and  C28_36 
ROOT
HETATM    1  N3  UNL     1      45.823  11.497   0.526  1.00  0.00    -0.339 N 
HETATM    2  C25 UNL     1      46.783  10.723   1.213  1.00  0.00     0.221 C 
HETATM    3  O2  UNL     1      46.951  10.696   2.450  1.00  0.00    -0.273 OA
ENDROOT
BRANCH   1   4
HETATM    4  C3  UNL     1      45.808  11.448  -0.913  1.00  0.00     0.122 C 
BRANCH   4   5
HETATM    5  C2  UNL     1      44.339  10.976  -1.228  1.00  0.00     0.026 C 
HETATM    6  C1  UNL     1      44.191   9.509  -1.182  1.00  0.00     0.007 C 
ENDBRANCH   4   5
BRANCH   4   7
HETATM    7  C4  UNL     1      46.034  12.638  -1.689  1.00  0.00    -0.005 A 
HETATM    8  C5  UNL     1      45.047  13.613  -1.747  1.00  0.00     0.019 A 
HETATM    9  C6  UNL     1      45.217  14.801  -2.433  1.00  0.00    -0.048 A 
HETATM   10  C11 UNL     1      46.414  14.987  -3.068  1.00  0.00     0.034 A 
HETATM   11  C12 UNL     1      47.408  14.045  -3.031  1.00  0.00     0.063 A 
HETATM   12 CL1  UNL     1      48.947  14.274  -3.841  1.00  0.00    -0.082 Cl
HETATM   13  C13 UNL     1      47.235  12.858  -2.344  1.00  0.00     0.080 A 
BRANCH   9  14
HETATM   14  C7  UNL     1      44.165  15.862  -2.501  1.00  0.00    -0.024 C 
HETATM   15  C8  UNL     1      44.557  17.063  -1.647  1.00  0.00     0.019 C 
HETATM   16  C9  UNL     1      42.871  15.310  -1.998  1.00  0.00     0.019 C 
HETATM   17  C10 UNL     1      44.029  16.371  -3.932  1.00  0.00     0.019 C 
ENDBRANCH   9  14
BRANCH  13  18
HETATM   18  N1  UNL     1      48.257  11.882  -2.336  1.00  0.00    -0.301 N 
HETATM   19  C14 UNL     1      48.199  10.780  -3.258  1.00  0.00     0.177 C 
BRANCH  18  20
HETATM   20  N2  UNL     1      49.308  12.017  -1.464  1.00  0.00    -0.343 N 
ATOM     21  H22 UNL     1      49.652  12.939  -1.197  1.00  0.00     0.177 HD
ATOM     22  H21 UNL     1      49.736  11.182  -1.064  1.00  0.00     0.177 HD
ENDBRANCH  18  20
ENDBRANCH  13  18
ENDBRANCH   4   7
ENDBRANCH   1   4
BRANCH   1  23
HETATM   23  C15 UNL     1      44.849  12.211   1.272  1.00  0.00     0.165 C 
BRANCH  23  24
HETATM   24  C16 UNL     1      45.160  13.545   1.783  1.00  0.00    -0.039 A 
HETATM   25  C17 UNL     1      44.504  14.697   1.443  1.00  0.00     0.011 A 
HETATM   26  C18 UNL     1      44.833  15.956   1.969  1.00  0.00     0.039 A 
HETATM   27  C19 UNL     1      45.861  16.059   2.868  1.00  0.00     0.086 A 
HETATM   28  O1  UNL     1      46.355  17.097   3.487  1.00  0.00    -0.315 OA
HETATM   29  C23 UNL     1      46.556  14.926   3.243  1.00  0.00     0.001 A 
HETATM   30  C20 UNL     1      47.363  16.704   4.273  1.00  0.00     0.050 A 
HETATM   31  C21 UNL     1      48.122  17.666   5.106  1.00  0.00     0.077 C 
HETATM   32  C22 UNL     1      47.512  15.346   4.139  1.00  0.00     0.046 A 
HETATM   33  C24 UNL     1      46.202  13.717   2.710  1.00  0.00     0.023 A 
ENDBRANCH  23  24
ENDBRANCH   1  23
BRANCH   2  34
HETATM   34  C26 UNL     1      47.712   9.827   0.452  1.00  0.00     0.108 C 
BRANCH  34  35
HETATM   35  C27 UNL     1      47.738   8.432   1.038  1.00  0.00     0.052 C 
BRANCH  35  36
HETATM   36  C28 UNL     1      49.039   8.295   1.765  1.00  0.00    -0.011 A 
HETATM   37  C29 UNL     1      49.041   7.820   3.083  1.00  0.00     0.030 A 
HETATM   38  C30 UNL     1      47.891   7.407   3.926  1.00  0.00     0.070 C 
HETATM   39  N4  UNL     1      50.331   7.815   3.441  1.00  0.00    -0.305 N 
HETATM   40  N5  UNL     1      51.105   8.243   2.465  1.00  0.00    -0.305 N 
ATOM     41  H4  UNL     1      50.671   7.516   4.355  1.00  0.00     0.186 HD
HETATM   42  C31 UNL     1      50.318   8.547   1.409  1.00  0.00     0.030 A 
ATOM     43  H5  UNL     1      52.121   8.330   2.500  1.00  0.00     0.186 HD
HETATM   44  C32 UNL     1      50.728   9.063   0.085  1.00  0.00     0.070 C 
ENDBRANCH  35  36
ENDBRANCH  34  35
ENDBRANCH   2  34
TORSDOF 11
ENDMDL
MODEL 3
REMARK VINA RESULT: -7.480085030      1.676      2.275
REMARK  11 active torsions:
REMARK  status: ('A' for Active; 'I' for Inactive)
REMARK    1  A    between atoms: C2_2  and  C3_3 
REMARK    2  A    between atoms: C3_3  and  C4_4 
REMARK    3  A    between atoms: C3_3  and  N3_20 
REMARK    4  A    between atoms: C6_6  and  C7_7 
REMARK    5  A    between atoms: C13_14  and  N1_15 
REMARK    6  A    between atoms: N1_15  and  N2_17 
REMARK    7  A    between atoms: N3_20  and  C15_21 
REMARK       I    between atoms: N3_20  and  C25_32 
REMARK    8  A    between atoms: C15_21  and  C16_22 
REMARK    9  A    between atoms: C25_32  and  C26_34 
REMARK   10  A    between atoms: C26_34  and  C27_35 
REMARK   11  A    between atoms: C27_35  and  C28_36 
ROOT
HETATM    1  N3  UNL     1      45.551  11.591   0.588  1.00  0.00    -0.339 N 
HETATM    2  C25 UNL     1      46.408  10.748   1.330  1.00  0.00     0.221 C 
HETATM    3  O2  UNL     1      46.522  10.736   2.574  1.00  0.00    -0.273 OA
ENDROOT
BRANCH   1   4
HETATM    4  C3  UNL     1      45.590  11.508  -0.849  1.00  0.00     0.122 C 
BRANCH   4   5
HETATM    5  C2  UNL     1      44.120  11.075  -1.210  1.00  0.00     0.026 C 
HETATM    6  C1  UNL     1      44.017   9.642  -1.548  1.00  0.00     0.007 C 
ENDBRANCH   4   5
BRANCH   4   7
HETATM    7  C4  UNL     1      45.882  12.673  -1.641  1.00  0.00    -0.005 A 
HETATM    8  C5  UNL     1      44.935  13.684  -1.745  1.00  0.00     0.019 A 
HETATM    9  C6  UNL     1      45.170  14.850  -2.448  1.00  0.00    -0.048 A 
HETATM   10  C11 UNL     1      46.390  14.978  -3.054  1.00  0.00     0.034 A 
HETATM   11  C12 UNL     1      47.344  14.000  -2.972  1.00  0.00     0.063 A 
HETATM   12 CL1  UNL     1      48.913  14.154  -3.743  1.00  0.00    -0.082 Cl
HETATM   13  C13 UNL     1      47.107  12.834  -2.267  1.00  0.00     0.080 A 
BRANCH   9  14
HETATM   14  C7  UNL     1      44.161  15.949  -2.566  1.00  0.00    -0.024 C 
HETATM   15  C8  UNL     1      44.655  17.208  -1.863  1.00  0.00     0.019 C 
HETATM   16  C9  UNL     1      42.877  15.513  -1.938  1.00  0.00     0.019 C 
HETATM   17  C10 UNL     1      43.961  16.318  -4.032  1.00  0.00     0.019 C 
ENDBRANCH   9  14
BRANCH  13  18
HETATM   18  N1  UNL     1      48.091  11.821  -2.212  1.00  0.00    -0.301 N 
HETATM   19  C14 UNL     1      48.031  10.717  -3.132  1.00  0.00     0.177 C 
BRANCH  18  20
HETATM   20  N2  UNL     1      49.108  11.920  -1.296  1.00  0.00    -0.343 N 
ATOM     21  H22 UNL     1      49.829  12.635  -1.389  1.00  0.00     0.177 HD
ATOM     22  H21 UNL     1      49.129  11.281  -0.501  1.00  0.00     0.177 HD
ENDBRANCH  18  20
ENDBRANCH  13  18
ENDBRANCH   4   7
ENDBRANCH   1   4
BRANCH   1  23
HETATM   23  C15 UNL     1      44.619  12.408   1.278  1.00  0.00     0.165 C 
BRANCH  23  24
HETATM   24  C16 UNL     1      45.030  13.720   1.776  1.00  0.00    -0.039 A 
HETATM   25  C17 UNL     1      44.479  14.917   1.406  1.00  0.00     0.011 A 
HETATM   26  C18 UNL     1      44.903  16.152   1.920  1.00  0.00     0.039 A 
HETATM   27  C19 UNL     1      45.919  16.184   2.837  1.00  0.00     0.086 A 
HETATM   28  O1  UNL     1      46.486  17.187   3.450  1.00  0.00    -0.315 OA
HETATM   29  C23 UNL     1      46.509  15.003   3.243  1.00  0.00     0.001 A 
HETATM   30  C20 UNL     1      47.443  16.724   4.262  1.00  0.00     0.050 A 
HETATM   31  C21 UNL     1      48.264  17.633   5.095  1.00  0.00     0.077 C 
HETATM   32  C22 UNL     1      47.480  15.357   4.152  1.00  0.00     0.046 A 
HETATM   33  C24 UNL     1      46.065  13.819   2.720  1.00  0.00     0.023 A 
ENDBRANCH  23  24
ENDBRANCH   1  23
BRANCH   2  34
HETATM   34  C26 UNL     1      47.280   9.753   0.628  1.00  0.00     0.108 C 
BRANCH  34  35
HETATM   35  C27 UNL     1      46.669   8.370   0.649  1.00  0.00     0.052 C 
BRANCH  35  36
HETATM   36  C28 UNL     1      47.782   7.412   0.936  1.00  0.00    -0.011 A 
HETATM   37  C29 UNL     1      48.414   6.757  -0.129  1.00  0.00     0.030 A 
HETATM   38  C30 UNL     1      48.140   6.866  -1.584  1.00  0.00     0.070 C 
HETATM   39  N4  UNL     1      49.345   5.987   0.449  1.00  0.00    -0.305 N 
HETATM   40  N5  UNL     1      49.332   6.115   1.760  1.00  0.00    -0.305 N 
ATOM     41  H4  UNL     1      49.984   5.378  -0.062  1.00  0.00     0.186 HD
HETATM   42  C31 UNL     1      48.364   7.001   2.085  1.00  0.00     0.030 A 
ATOM     43  H5  UNL     1      49.945   5.631   2.415  1.00  0.00     0.186 HD
HETATM   44  C32 UNL     1      47.973   7.471   3.431  1.00  0.00     0.070 C 
ENDBRANCH  35  36
ENDBRANCH  34  35
ENDBRANCH   2  34
TORSDOF 11
ENDMDL
MODEL 4
REMARK VINA RESULT: -7.415534232      1.768      2.186
REMARK  11 active torsions:
REMARK  status: ('A' for Active; 'I' for Inactive)
REMARK    1  A    between atoms: C2_2  and  C3_3 
REMARK    2  A    between atoms: C3_3  and  C4_4 
REMARK    3  A    between atoms: C3_3  and  N3_20 
REMARK    4  A    between atoms: C6_6  and  C7_7 
REMARK    5  A    between atoms: C13_14  and  N1_15 
REMARK    6  A    between atoms: N1_15  and  N2_17 
REMARK    7  A    between atoms: N3_20  and  C15_21 
REMARK       I    between atoms: N3_20  and  C25_32 
REMARK    8  A    between atoms: C15_21  and  C16_22 
REMARK    9  A    between atoms: C25_32  and  C26_34 
REMARK   10  A    between atoms: C26_34  and  C27_35 
REMARK   11  A    between atoms: C27_35  and  C28_36 
ROOT
HETATM    1  N3  UNL     1      45.688  11.563   0.592  1.00  0.00    -0.339 N 
HETATM    2  C25 UNL     1      46.599  10.759   1.312  1.00  0.00     0.221 C 
HETATM    3  O2  UNL     1      46.742  10.750   2.553  1.00  0.00    -0.273 OA
ENDROOT
BRANCH   1   4
HETATM    4  C3  UNL     1      45.699  11.486  -0.846  1.00  0.00     0.122 C 
BRANCH   4   5
HETATM    5  C2  UNL     1      44.226  11.041  -1.179  1.00  0.00     0.026 C 
HETATM    6  C1  UNL     1      44.059   9.575  -1.166  1.00  0.00     0.007 C 
ENDBRANCH   4   5
BRANCH   4   7
HETATM    7  C4  UNL     1      45.965  12.656  -1.640  1.00  0.00    -0.005 A 
HETATM    8  C5  UNL     1      45.009  13.660  -1.719  1.00  0.00     0.019 A 
HETATM    9  C6  UNL     1      45.220  14.830  -2.423  1.00  0.00    -0.048 A 
HETATM   10  C11 UNL     1      46.425  14.969  -3.055  1.00  0.00     0.034 A 
HETATM   11  C12 UNL     1      47.388  13.997  -2.998  1.00  0.00     0.063 A 
HETATM   12 CL1  UNL     1      48.938  14.165  -3.804  1.00  0.00    -0.082 Cl
HETATM   13  C13 UNL     1      47.175  12.827  -2.293  1.00  0.00     0.080 A 
BRANCH   9  14
HETATM   14  C7  UNL     1      44.202  15.923  -2.513  1.00  0.00    -0.024 C 
HETATM   15  C8  UNL     1      42.880  15.477  -1.900  1.00  0.00     0.019 C 
HETATM   16  C9  UNL     1      43.978  16.274  -3.949  1.00  0.00     0.019 C 
HETATM   17  C10 UNL     1      44.666  17.136  -1.714  1.00  0.00     0.019 C 
ENDBRANCH   9  14
BRANCH  13  18
HETATM   18  N1  UNL     1      48.167  11.821  -2.264  1.00  0.00    -0.301 N 
HETATM   19  C14 UNL     1      48.076  10.703  -3.164  1.00  0.00     0.177 C 
BRANCH  18  20
HETATM   20  N2  UNL     1      49.220  11.940  -1.393  1.00  0.00    -0.343 N 
ATOM     21  H22 UNL     1      50.174  11.740  -1.694  1.00  0.00     0.177 HD
ATOM     22  H21 UNL     1      49.046  12.250  -0.437  1.00  0.00     0.177 HD
ENDBRANCH  18  20
ENDBRANCH  13  18
ENDBRANCH   4   7
ENDBRANCH   1   4
BRANCH   1  23
HETATM   23  C15 UNL     1      44.735  12.335   1.304  1.00  0.00     0.165 C 
BRANCH  23  24
HETATM   24  C16 UNL     1      45.101  13.657   1.810  1.00  0.00    -0.039 A 
HETATM   25  C17 UNL     1      44.484  14.832   1.476  1.00  0.00     0.011 A 
HETATM   26  C18 UNL     1      44.866  16.078   1.995  1.00  0.00     0.039 A 
HETATM   27  C19 UNL     1      45.909  16.145   2.881  1.00  0.00     0.086 A 
HETATM   28  O1  UNL     1      46.447  17.164   3.493  1.00  0.00    -0.315 OA
HETATM   29  C23 UNL     1      46.565  14.987   3.250  1.00  0.00     0.001 A 
HETATM   30  C20 UNL     1      47.450  16.735   4.267  1.00  0.00     0.050 A 
HETATM   31  C21 UNL     1      48.254  17.669   5.089  1.00  0.00     0.077 C 
HETATM   32  C22 UNL     1      47.547  15.373   4.134  1.00  0.00     0.046 A 
HETATM   33  C24 UNL     1      46.160  13.791   2.723  1.00  0.00     0.023 A 
ENDBRANCH  23  24
ENDBRANCH   1  23
BRANCH   2  34
HETATM   34  C26 UNL     1      47.501   9.807   0.587  1.00  0.00     0.108 C 
BRANCH  34  35
HETATM   35  C27 UNL     1      47.008   8.382   0.705  1.00  0.00     0.052 C 
BRANCH  35  36
HETATM   36  C28 UNL     1      48.219   7.522   0.889  1.00  0.00    -0.011 A 
HETATM   37  C29 UNL     1      48.586   7.123   2.181  1.00  0.00     0.030 A 
HETATM   38  C30 UNL     1      47.927   7.435   3.474  1.00  0.00     0.070 C 
HETATM   39  N4  UNL     1      49.686   6.380   2.008  1.00  0.00    -0.305 N 
HETATM   40  N5  UNL     1      50.017   6.295   0.736  1.00  0.00    -0.305 N 
ATOM     41  H4  UNL     1      50.202   5.935   2.767  1.00  0.00     0.186 HD
HETATM   42  C31 UNL     1      49.114   7.001   0.020  1.00  0.00     0.030 A 
ATOM     43  H5  UNL     1      50.816   5.787   0.357  1.00  0.00     0.186 HD
HETATM   44  C32 UNL     1      49.065   7.199  -1.444  1.00  0.00     0.070 C 
ENDBRANCH  35  36
ENDBRANCH  34  35
ENDBRANCH   2  34
TORSDOF 11
ENDMDL
MODEL 5
REMARK VINA RESULT: -7.415088749      2.068      2.923
REMARK  11 active torsions:
REMARK  status: ('A' for Active; 'I' for Inactive)
REMARK    1  A    between atoms: C2_2  and  C3_3 
REMARK    2  A    between atoms: C3_3  and  C4_4 
REMARK    3  A    between atoms: C3_3  and  N3_20 
REMARK    4  A    between atoms: C6_6  and  C7_7 
REMARK    5  A    between atoms: C13_14  and  N1_15 
REMARK    6  A    between atoms: N1_15  and  N2_17 
REMARK    7  A    between atoms: N3_20  and  C15_21 
REMARK       I    between atoms: N3_20  and  C25_32 
REMARK    8  A    between atoms: C15_21  and  C16_22 
REMARK    9  A    between atoms: C25_32  and  C26_34 
REMARK   10  A    between atoms: C26_34  and  C27_35 
REMARK   11  A    between atoms: C27_35  and  C28_36 
ROOT
HETATM    1  N3  UNL     1      45.873  11.440   0.587  1.00  0.00    -0.339 N 
HETATM    2  C25 UNL     1      46.842  10.686   1.285  1.00  0.00     0.221 C 
HETATM    3  O2  UNL     1      47.006  10.675   2.524  1.00  0.00    -0.273 OA
ENDROOT
BRANCH   1   4
HETATM    4  C3  UNL     1      45.864  11.374  -0.851  1.00  0.00     0.122 C 
BRANCH   4   5
HETATM    5  C2  UNL     1      44.401  10.882  -1.165  1.00  0.00     0.026 C 
HETATM    6  C1  UNL     1      44.259   9.418  -1.055  1.00  0.00     0.007 C 
ENDBRANCH   4   5
BRANCH   4   7
HETATM    7  C4  UNL     1      46.078  12.558  -1.639  1.00  0.00    -0.005 A 
HETATM    8  C5  UNL     1      45.075  13.516  -1.720  1.00  0.00     0.019 A 
HETATM    9  C6  UNL     1      45.233  14.698  -2.419  1.00  0.00    -0.048 A 
HETATM   10  C11 UNL     1      46.434  14.897  -3.043  1.00  0.00     0.034 A 
HETATM   11  C12 UNL     1      47.442  13.972  -2.984  1.00  0.00     0.063 A 
HETATM   12 CL1  UNL     1      48.987  14.217  -3.781  1.00  0.00    -0.082 Cl
HETATM   13  C13 UNL     1      47.282  12.791  -2.285  1.00  0.00     0.080 A 
BRANCH   9  14
HETATM   14  C7  UNL     1      44.164  15.741  -2.511  1.00  0.00    -0.024 C 
HETATM   15  C8  UNL     1      42.826  15.181  -2.043  1.00  0.00     0.019 C 
HETATM   16  C9  UNL     1      44.034  16.192  -3.930  1.00  0.00     0.019 C 
HETATM   17  C10 UNL     1      44.495  16.910  -1.588  1.00  0.00     0.019 C 
ENDBRANCH   9  14
BRANCH  13  18
HETATM   18  N1  UNL     1      48.321  11.833  -2.254  1.00  0.00    -0.301 N 
HETATM   19  C14 UNL     1      48.293  10.720  -3.165  1.00  0.00     0.177 C 
BRANCH  18  20
HETATM   20  N2  UNL     1      49.357  11.994  -1.369  1.00  0.00    -0.343 N 
ATOM     21  H22 UNL     1      50.278  12.292  -1.690  1.00  0.00     0.177 HD
ATOM     22  H21 UNL     1      49.196  11.830  -0.375  1.00  0.00     0.177 HD
ENDBRANCH  18  20
ENDBRANCH  13  18
ENDBRANCH   4   7
ENDBRANCH   1   4
BRANCH   1  23
HETATM   23  C15 UNL     1      44.888  12.149   1.322  1.00  0.00     0.165 C 
BRANCH  23  24
HETATM   24  C16 UNL     1      45.181  13.490   1.824  1.00  0.00    -0.039 A 
HETATM   25  C17 UNL     1      44.498  14.628   1.492  1.00  0.00     0.011 A 
HETATM   26  C18 UNL     1      44.812  15.895   2.008  1.00  0.00     0.039 A 
HETATM   27  C19 UNL     1      45.852  16.021   2.890  1.00  0.00     0.086 A 
HETATM   28  O1  UNL     1      46.335  17.070   3.498  1.00  0.00    -0.315 OA
HETATM   29  C23 UNL     1      46.573  14.902   3.258  1.00  0.00     0.001 A 
HETATM   30  C20 UNL     1      47.363  16.699   4.269  1.00  0.00     0.050 A 
HETATM   31  C21 UNL     1      48.116  17.678   5.086  1.00  0.00     0.077 C 
HETATM   32  C22 UNL     1      47.535  15.344   4.137  1.00  0.00     0.046 A 
HETATM   33  C24 UNL     1      46.234  13.685   2.734  1.00  0.00     0.023 A 
ENDBRANCH  23  24
ENDBRANCH   1  23
BRANCH   2  34
HETATM   34  C26 UNL     1      47.785   9.794   0.538  1.00  0.00     0.108 C 
BRANCH  34  35
HETATM   35  C27 UNL     1      47.727   8.373   1.052  1.00  0.00     0.052 C 
BRANCH  35  36
HETATM   36  C28 UNL     1      48.918   8.188   1.940  1.00  0.00    -0.011 A 
HETATM   37  C29 UNL     1      50.196   8.470   1.440  1.00  0.00     0.030 A 
HETATM   38  C30 UNL     1      50.583   8.950   0.089  1.00  0.00     0.070 C 
HETATM   39  N4  UNL     1      51.025   8.209   2.458  1.00  0.00    -0.305 N 
HETATM   40  N5  UNL     1      50.368   7.795   3.522  1.00  0.00    -0.305 N 
ATOM     41  H4  UNL     1      52.038   8.317   2.414  1.00  0.00     0.186 HD
HETATM   42  C31 UNL     1      49.051   7.776   3.220  1.00  0.00     0.030 A 
ATOM     43  H5  UNL     1      50.781   7.535   4.418  1.00  0.00     0.186 HD
HETATM   44  C32 UNL     1      47.922   7.386   4.092  1.00  0.00     0.070 C 
ENDBRANCH  35  36
ENDBRANCH  34  35
ENDBRANCH   2  34
TORSDOF 11
ENDMDL
