MODEL 1
REMARK VINA RESULT: -7.689654824      0.000      0.000
REMARK  10 active torsions:
REMARK  status: ('A' for Active; 'I' for Inactive)
REMARK    1  A    between atoms: C4_4  and  C5_5 
REMARK    2  A    between atoms: C5_5  and  C6_6 
REMARK    3  A    between atoms: C6_6  and  C7_7 
REMARK    4  A    between atoms: C6_6  and  C14_15 
REMARK    5  A    between atoms: C9_9  and  C10_10 
REMARK    6  A    between atoms: C11_11  and  C13_13 
REMARK    7  A    between atoms: C18_21  and  C19_22 
REMARK    8  A    between atoms: C19_22  and  C20_23 
REMARK    9  A    between atoms: C20_23  and  C21_24 
REMARK   10  A    between atoms: C29_33  and  O4_35 
ROOT
HETATM    1  C14 UNL     1      48.933   7.810   1.648  1.00  0.00     0.097 C 
HETATM    2  C15 UNL     1      48.473   7.781   3.044  1.00  0.00     0.033 C 
HETATM    3  C16 UNL     1      50.431   8.050   1.588  1.00  0.00     0.216 C 
HETATM    4  O2  UNL     1      50.984   8.969   0.959  1.00  0.00    -0.288 OA
HETATM    5  C17 UNL     1      51.296   7.111   2.332  1.00  0.00     0.229 C 
HETATM    6  O3  UNL     1      52.318   7.633   2.794  1.00  0.00    -0.283 OA
HETATM    7  C18 UNL     1      50.902   5.731   2.459  1.00  0.00     0.025 C 
HETATM    8  C31 UNL     1      49.718   5.397   1.866  1.00  0.00    -0.001 C 
HETATM    9  C32 UNL     1      49.244   3.989   1.957  1.00  0.00     0.053 C 
HETATM   10  C33 UNL     1      48.888   6.372   1.174  1.00  0.00     0.173 C 
HETATM   11  O5  UNL     1      48.187   6.053   0.252  1.00  0.00    -0.291 OA
ENDROOT
BRANCH   1  12
HETATM   12  C6  UNL     1      48.302   8.718   0.702  1.00  0.00     0.041 C 
BRANCH  12  13
HETATM   13  C5  UNL     1      46.938   8.301   0.173  1.00  0.00     0.038 C 
BRANCH  13  14
HETATM   14  C4  UNL     1      46.387   9.147  -0.888  1.00  0.00    -0.024 C 
HETATM   15  C2  UNL     1      45.112   9.366  -1.065  1.00  0.00    -0.091 C 
HETATM   16  C1  UNL     1      44.655  10.258  -2.194  1.00  0.00     0.042 C 
HETATM   17  C3  UNL     1      44.040   8.785  -0.220  1.00  0.00     0.042 C 
ENDBRANCH  13  14
ENDBRANCH  12  13
BRANCH  12  18
HETATM   18  C7  UNL     1      48.085  10.121   1.152  1.00  0.00    -0.078 C 
HETATM   19  C8  UNL     1      48.826  11.154   0.334  1.00  0.00     0.044 C 
HETATM   20  C9  UNL     1      47.394  10.580   2.150  1.00  0.00     0.003 C 
BRANCH  20  21
HETATM   21  C10 UNL     1      47.262  11.993   2.483  1.00  0.00     0.010 C 
HETATM   22  C11 UNL     1      46.115  12.602   2.259  1.00  0.00    -0.024 C 
HETATM   23  C12 UNL     1      44.940  11.887   1.672  1.00  0.00     0.051 C 
BRANCH  22  24
HETATM   24  C13 UNL     1      45.953  13.999   2.579  1.00  0.00     0.265 C 
HETATM   25  O1  UNL     1      46.751  14.633   3.313  1.00  0.00    -0.302 OA
ENDBRANCH  22  24
ENDBRANCH  20  21
ENDBRANCH  12  18
ENDBRANCH   1  12
BRANCH   7  26
HETATM   26  C19 UNL     1      51.631   4.690   3.111  1.00  0.00     0.003 C 
BRANCH  26  27
HETATM   27  C20 UNL     1      52.019   4.487   4.478  1.00  0.00     0.025 C 
HETATM   28  C22 UNL     1      51.417   3.124   4.931  1.00  0.00     0.023 C 
HETATM   29  C23 UNL     1      52.095   1.928   4.429  1.00  0.00    -0.010 C 
HETATM   30  C24 UNL     1      51.061   0.795   4.462  1.00  0.00     0.010 C 
HETATM   31  C25 UNL     1      53.169   1.527   5.431  1.00  0.00     0.007 C 
HETATM   32  C26 UNL     1      52.819   0.259   6.169  1.00  0.00     0.014 C 
HETATM   33  C27 UNL     1      53.410   2.594   6.425  1.00  0.00    -0.023 C 
HETATM   34  C28 UNL     1      53.539   3.897   6.249  1.00  0.00     0.008 C 
HETATM   35  C29 UNL     1      53.454   4.563   4.890  1.00  0.00     0.084 C 
HETATM   36  C30 UNL     1      54.540   4.091   4.069  1.00  0.00     0.051 C 
BRANCH  27  37
HETATM   37  C21 UNL     1      51.345   5.371   5.519  1.00  0.00     0.131 C 
HETATM   38 CL1  UNL     1      49.567   5.209   5.493  1.00  0.00    -0.129 Cl
ENDBRANCH  27  37
BRANCH  35  39
HETATM   39  O4  UNL     1      53.728   5.934   5.161  1.00  0.00    -0.385 OA
ATOM     40  H4  UNL     1      54.649   5.988   5.390  1.00  0.00     0.211 HD
ENDBRANCH  35  39
ENDBRANCH  26  27
ENDBRANCH   7  26
TORSDOF 10
ENDMDL
MODEL 2
REMARK VINA RESULT: -7.402193952      2.466      4.161
REMARK  10 active torsions:
REMARK  status: ('A' for Active; 'I' for Inactive)
REMARK    1  A    between atoms: C4_4  and  C5_5 
REMARK    2  A    between atoms: C5_5  and  C6_6 
REMARK    3  A    between atoms: C6_6  and  C7_7 
REMARK    4  A    between atoms: C6_6  and  C14_15 
REMARK    5  A    between atoms: C9_9  and  C10_10 
REMARK    6  A    between atoms: C11_11  and  C13_13 
REMARK    7  A    between atoms: C18_21  and  C19_22 
REMARK    8  A    between atoms: C19_22  and  C20_23 
REMARK    9  A    between atoms: C20_23  and  C21_24 
REMARK   10  A    between atoms: C29_33  and  O4_35 
ROOT
HETATM    1  C14 UNL     1      47.641  10.762   1.088  1.00  0.00     0.097 C 
HETATM    2  C15 UNL     1      47.568  10.508   2.534  1.00  0.00     0.033 C 
HETATM    3  C16 UNL     1      49.074  10.638   0.599  1.00  0.00     0.216 C 
HETATM    4  O2  UNL     1      49.699  11.519  -0.016  1.00  0.00    -0.288 OA
HETATM    5  C17 UNL     1      49.772   9.365   0.873  1.00  0.00     0.229 C 
HETATM    6  O3  UNL     1      50.987   9.494   1.068  1.00  0.00    -0.283 OA
HETATM    7  C18 UNL     1      49.024   8.134   0.894  1.00  0.00     0.025 C 
HETATM    8  C31 UNL     1      47.684   8.252   0.658  1.00  0.00    -0.001 C 
HETATM    9  C32 UNL     1      46.845   7.023   0.666  1.00  0.00     0.053 C 
HETATM   10  C33 UNL     1      47.041   9.538   0.428  1.00  0.00     0.173 C 
HETATM   11  O5  UNL     1      46.065   9.633  -0.266  1.00  0.00    -0.291 OA
ENDROOT
BRANCH   1  12
HETATM   12  C6  UNL     1      47.096  11.998   0.546  1.00  0.00     0.041 C 
BRANCH  12  13
HETATM   13  C5  UNL     1      46.258  11.869  -0.717  1.00  0.00     0.038 C 
BRANCH  13  14
HETATM   14  C4  UNL     1      46.701  12.680  -1.854  1.00  0.00    -0.024 C 
HETATM   15  C2  UNL     1      46.079  13.744  -2.284  1.00  0.00    -0.091 C 
HETATM   16  C1  UNL     1      46.627  14.505  -3.467  1.00  0.00     0.042 C 
HETATM   17  C3  UNL     1      44.833  14.281  -1.685  1.00  0.00     0.042 C 
ENDBRANCH  13  14
ENDBRANCH  12  13
BRANCH  12  18
HETATM   18  C7  UNL     1      46.236  12.812   1.450  1.00  0.00    -0.078 C 
HETATM   19  C8  UNL     1      44.785  12.388   1.469  1.00  0.00     0.044 C 
HETATM   20  C9  UNL     1      46.536  13.837   2.187  1.00  0.00     0.003 C 
BRANCH  20  21
HETATM   21  C10 UNL     1      45.589  14.549   3.037  1.00  0.00     0.010 C 
HETATM   22  C11 UNL     1      45.993  15.614   3.698  1.00  0.00    -0.024 C 
HETATM   23  C12 UNL     1      47.398  16.118   3.605  1.00  0.00     0.051 C 
BRANCH  22  24
HETATM   24  C13 UNL     1      45.080  16.339   4.547  1.00  0.00     0.265 C 
HETATM   25  O1  UNL     1      45.441  17.275   5.304  1.00  0.00    -0.302 OA
ENDBRANCH  22  24
ENDBRANCH  20  21
ENDBRANCH  12  18
ENDBRANCH   1  12
BRANCH   7  26
HETATM   26  C19 UNL     1      49.544   6.821   1.108  1.00  0.00     0.003 C 
BRANCH  26  27
HETATM   27  C20 UNL     1      49.601   5.977   2.268  1.00  0.00     0.025 C 
HETATM   28  C22 UNL     1      51.026   5.350   2.313  1.00  0.00     0.023 C 
HETATM   29  C23 UNL     1      52.102   6.240   2.752  1.00  0.00    -0.010 C 
HETATM   30  C24 UNL     1      53.402   5.674   2.167  1.00  0.00     0.010 C 
HETATM   31  C25 UNL     1      52.246   6.113   4.262  1.00  0.00     0.007 C 
HETATM   32  C26 UNL     1      53.517   5.403   4.658  1.00  0.00     0.014 C 
HETATM   33  C27 UNL     1      51.102   5.391   4.858  1.00  0.00    -0.023 C 
HETATM   34  C28 UNL     1      49.809   5.516   4.621  1.00  0.00     0.008 C 
HETATM   35  C29 UNL     1      49.241   6.503   3.620  1.00  0.00     0.084 C 
HETATM   36  C30 UNL     1      49.548   7.842   4.056  1.00  0.00     0.051 C 
BRANCH  27  37
HETATM   37  C21 UNL     1      48.803   4.681   2.212  1.00  0.00     0.131 C 
HETATM   38 CL1  UNL     1      49.824   3.277   1.791  1.00  0.00    -0.129 Cl
ENDBRANCH  27  37
BRANCH  35  39
HETATM   39  O4  UNL     1      47.831   6.356   3.752  1.00  0.00    -0.385 OA
ATOM     40  H4  UNL     1      47.563   6.925   4.464  1.00  0.00     0.211 HD
ENDBRANCH  35  39
ENDBRANCH  26  27
ENDBRANCH   7  26
TORSDOF 10
ENDMDL
MODEL 3
REMARK VINA RESULT: -7.316157395      2.150      3.770
REMARK  10 active torsions:
REMARK  status: ('A' for Active; 'I' for Inactive)
REMARK    1  A    between atoms: C4_4  and  C5_5 
REMARK    2  A    between atoms: C5_5  and  C6_6 
REMARK    3  A    between atoms: C6_6  and  C7_7 
REMARK    4  A    between atoms: C6_6  and  C14_15 
REMARK    5  A    between atoms: C9_9  and  C10_10 
REMARK    6  A    between atoms: C11_11  and  C13_13 
REMARK    7  A    between atoms: C18_21  and  C19_22 
REMARK    8  A    between atoms: C19_22  and  C20_23 
REMARK    9  A    between atoms: C20_23  and  C21_24 
REMARK   10  A    between atoms: C29_33  and  O4_35 
ROOT
HETATM    1  C14 UNL     1      47.697  10.858   1.083  1.00  0.00     0.097 C 
HETATM    2  C15 UNL     1      47.756  10.650   2.537  1.00  0.00     0.033 C 
HETATM    3  C16 UNL     1      49.089  10.790   0.481  1.00  0.00     0.216 C 
HETATM    4  O2  UNL     1      49.614  11.681  -0.210  1.00  0.00    -0.288 OA
HETATM    5  C17 UNL     1      49.875   9.565   0.733  1.00  0.00     0.229 C 
HETATM    6  O3  UNL     1      51.093   9.763   0.821  1.00  0.00    -0.283 OA
HETATM    7  C18 UNL     1      49.199   8.299   0.853  1.00  0.00     0.025 C 
HETATM    8  C31 UNL     1      47.840   8.340   0.726  1.00  0.00    -0.001 C 
HETATM    9  C32 UNL     1      47.071   7.071   0.840  1.00  0.00     0.053 C 
HETATM   10  C33 UNL     1      47.112   9.583   0.512  1.00  0.00     0.173 C 
HETATM   11  O5  UNL     1      46.078   9.604  -0.101  1.00  0.00    -0.291 OA
ENDROOT
BRANCH   1  12
HETATM   12  C6  UNL     1      47.043  12.045   0.552  1.00  0.00     0.041 C 
BRANCH  12  13
HETATM   13  C5  UNL     1      46.128  11.834  -0.644  1.00  0.00     0.038 C 
BRANCH  13  14
HETATM   14  C4  UNL     1      46.512  12.545  -1.866  1.00  0.00    -0.024 C 
HETATM   15  C2  UNL     1      45.989  13.677  -2.253  1.00  0.00    -0.091 C 
HETATM   16  C1  UNL     1      46.463  14.322  -3.533  1.00  0.00     0.042 C 
HETATM   17  C3  UNL     1      44.929  14.402  -1.511  1.00  0.00     0.042 C 
ENDBRANCH  13  14
ENDBRANCH  12  13
BRANCH  12  18
HETATM   18  C7  UNL     1      46.203  12.834   1.496  1.00  0.00    -0.078 C 
HETATM   19  C8  UNL     1      44.764  12.377   1.571  1.00  0.00     0.044 C 
HETATM   20  C9  UNL     1      46.509  13.862   2.227  1.00  0.00     0.003 C 
BRANCH  20  21
HETATM   21  C10 UNL     1      45.581  14.546   3.119  1.00  0.00     0.010 C 
HETATM   22  C11 UNL     1      45.986  15.618   3.768  1.00  0.00    -0.024 C 
HETATM   23  C12 UNL     1      47.374  16.157   3.619  1.00  0.00     0.051 C 
BRANCH  22  24
HETATM   24  C13 UNL     1      45.092  16.318   4.658  1.00  0.00     0.265 C 
HETATM   25  O1  UNL     1      45.441  17.313   5.341  1.00  0.00    -0.302 OA
ENDBRANCH  22  24
ENDBRANCH  20  21
ENDBRANCH  12  18
ENDBRANCH   1  12
BRANCH   7  26
HETATM   26  C19 UNL     1      49.804   7.022   1.061  1.00  0.00     0.003 C 
BRANCH  26  27
HETATM   27  C20 UNL     1      50.421   6.417   2.207  1.00  0.00     0.025 C 
HETATM   28  C22 UNL     1      49.511   5.232   2.649  1.00  0.00     0.023 C 
HETATM   29  C23 UNL     1      49.580   4.029   1.819  1.00  0.00    -0.010 C 
HETATM   30  C24 UNL     1      48.257   3.281   2.025  1.00  0.00     0.010 C 
HETATM   31  C25 UNL     1      50.657   3.115   2.386  1.00  0.00     0.007 C 
HETATM   32  C26 UNL     1      50.078   1.880   3.031  1.00  0.00     0.014 C 
HETATM   33  C27 UNL     1      51.494   3.814   3.383  1.00  0.00    -0.023 C 
HETATM   34  C28 UNL     1      52.023   5.024   3.340  1.00  0.00     0.008 C 
HETATM   35  C29 UNL     1      51.846   5.966   2.166  1.00  0.00     0.084 C 
HETATM   36  C30 UNL     1      52.458   5.382   1.000  1.00  0.00     0.051 C 
BRANCH  27  37
HETATM   37  C21 UNL     1      50.379   7.210   3.507  1.00  0.00     0.131 C 
HETATM   38 CL1  UNL     1      48.821   7.025   4.360  1.00  0.00    -0.129 Cl
ENDBRANCH  27  37
BRANCH  35  39
HETATM   39  O4  UNL     1      52.640   7.097   2.509  1.00  0.00    -0.385 OA
ATOM     40  H4  UNL     1      52.889   7.512   1.691  1.00  0.00     0.211 HD
ENDBRANCH  35  39
ENDBRANCH  26  27
ENDBRANCH   7  26
TORSDOF 10
ENDMDL
MODEL 4
REMARK VINA RESULT: -7.113210190      1.989      3.574
REMARK  10 active torsions:
REMARK  status: ('A' for Active; 'I' for Inactive)
REMARK    1  A    between atoms: C4_4  and  C5_5 
REMARK    2  A    between atoms: C5_5  and  C6_6 
REMARK    3  A    between atoms: C6_6  and  C7_7 
REMARK    4  A    between atoms: C6_6  and  C14_15 
REMARK    5  A    between atoms: C9_9  and  C10_10 
REMARK    6  A    between atoms: C11_11  and  C13_13 
REMARK    7  A    between atoms: C18_21  and  C19_22 
REMARK    8  A    between atoms: C19_22  and  C20_23 
REMARK    9  A    between atoms: C20_23  and  C21_24 
REMARK   10  A    between atoms: C29_33  and  O4_35 
ROOT
HETATM    1  C14 UNL     1      47.526  10.914   1.089  1.00  0.00     0.097 C 
HETATM    2  C15 UNL     1      47.705  10.924   2.548  1.00  0.00     0.033 C 
HETATM    3  C16 UNL     1      48.870  10.813   0.390  1.00  0.00     0.216 C 
HETATM    4  O2  UNL     1      49.296  11.612  -0.462  1.00  0.00    -0.288 OA
HETATM    5  C17 UNL     1      49.734   9.669   0.750  1.00  0.00     0.229 C 
HETATM    6  O3  UNL     1      50.943   9.925   0.709  1.00  0.00    -0.283 OA
HETATM    7  C18 UNL     1      49.133   8.409   1.105  1.00  0.00     0.025 C 
HETATM    8  C31 UNL     1      47.768   8.378   1.085  1.00  0.00    -0.001 C 
HETATM    9  C32 UNL     1      47.075   7.110   1.444  1.00  0.00     0.053 C 
HETATM   10  C33 UNL     1      46.964   9.547   0.756  1.00  0.00     0.173 C 
HETATM   11  O5  UNL     1      45.887   9.438   0.234  1.00  0.00    -0.291 OA
ENDROOT
BRANCH   1  12
HETATM   12  C6  UNL     1      46.775  11.984   0.449  1.00  0.00     0.041 C 
BRANCH  12  13
HETATM   13  C5  UNL     1      45.790  11.565  -0.631  1.00  0.00     0.038 C 
BRANCH  13  14
HETATM   14  C4  UNL     1      45.960  12.220  -1.930  1.00  0.00    -0.024 C 
HETATM   15  C2  UNL     1      46.574  11.682  -2.949  1.00  0.00    -0.091 C 
HETATM   16  C1  UNL     1      46.690  12.451  -4.243  1.00  0.00     0.042 C 
HETATM   17  C3  UNL     1      47.189  10.333  -2.935  1.00  0.00     0.042 C 
ENDBRANCH  13  14
ENDBRANCH  12  13
BRANCH  12  18
HETATM   18  C7  UNL     1      45.964  12.865   1.335  1.00  0.00    -0.078 C 
HETATM   19  C8  UNL     1      44.504  12.481   1.419  1.00  0.00     0.044 C 
HETATM   20  C9  UNL     1      46.311  13.918   2.009  1.00  0.00     0.003 C 
BRANCH  20  21
HETATM   21  C10 UNL     1      45.408  14.697   2.849  1.00  0.00     0.010 C 
HETATM   22  C11 UNL     1      45.902  15.653   3.608  1.00  0.00    -0.024 C 
HETATM   23  C12 UNL     1      47.364  15.968   3.636  1.00  0.00     0.051 C 
BRANCH  22  24
HETATM   24  C13 UNL     1      45.035  16.441   4.449  1.00  0.00     0.265 C 
HETATM   25  O1  UNL     1      45.461  17.266   5.295  1.00  0.00    -0.302 OA
ENDBRANCH  22  24
ENDBRANCH  20  21
ENDBRANCH  12  18
ENDBRANCH   1  12
BRANCH   7  26
HETATM   26  C19 UNL     1      49.816   7.201   1.443  1.00  0.00     0.003 C 
BRANCH  26  27
HETATM   27  C20 UNL     1      50.325   6.690   2.684  1.00  0.00     0.025 C 
HETATM   28  C22 UNL     1      49.606   5.335   2.956  1.00  0.00     0.023 C 
HETATM   29  C23 UNL     1      50.063   4.198   2.155  1.00  0.00    -0.010 C 
HETATM   30  C24 UNL     1      48.902   3.197   2.117  1.00  0.00     0.010 C 
HETATM   31  C25 UNL     1      51.182   3.495   2.911  1.00  0.00     0.007 C 
HETATM   32  C26 UNL     1      50.756   2.149   3.443  1.00  0.00     0.014 C 
HETATM   33  C27 UNL     1      51.669   4.312   4.043  1.00  0.00    -0.023 C 
HETATM   34  C28 UNL     1      51.944   5.603   4.095  1.00  0.00     0.008 C 
HETATM   35  C29 UNL     1      51.795   6.531   2.906  1.00  0.00     0.084 C 
HETATM   36  C30 UNL     1      52.712   6.121   1.873  1.00  0.00     0.051 C 
BRANCH  27  37
HETATM   37  C21 UNL     1      49.892   7.415   3.953  1.00  0.00     0.131 C 
HETATM   38 CL1  UNL     1      48.523   6.601   4.761  1.00  0.00    -0.129 Cl
ENDBRANCH  27  37
BRANCH  35  39
HETATM   39  O4  UNL     1      52.272   7.785   3.385  1.00  0.00    -0.385 OA
ATOM     40  H4  UNL     1      52.403   7.686   4.321  1.00  0.00     0.211 HD
ENDBRANCH  35  39
ENDBRANCH  26  27
ENDBRANCH   7  26
TORSDOF 10
ENDMDL
MODEL 5
REMARK VINA RESULT: -7.073875740      3.315      5.483
REMARK  10 active torsions:
REMARK  status: ('A' for Active; 'I' for Inactive)
REMARK    1  A    between atoms: C4_4  and  C5_5 
REMARK    2  A    between atoms: C5_5  and  C6_6 
REMARK    3  A    between atoms: C6_6  and  C7_7 
REMARK    4  A    between atoms: C6_6  and  C14_15 
REMARK    5  A    between atoms: C9_9  and  C10_10 
REMARK    6  A    between atoms: C11_11  and  C13_13 
REMARK    7  A    between atoms: C18_21  and  C19_22 
REMARK    8  A    between atoms: C19_22  and  C20_23 
REMARK    9  A    between atoms: C20_23  and  C21_24 
REMARK   10  A    between atoms: C29_33  and  O4_35 
ROOT
HETATM    1  C14 UNL     1      46.949  11.517   0.722  1.00  0.00     0.097 C 
HETATM    2  C15 UNL     1      47.610  11.099   1.966  1.00  0.00     0.033 C 
HETATM    3  C16 UNL     1      47.915  11.431  -0.447  1.00  0.00     0.216 C 
HETATM    4  O2  UNL     1      48.197  12.369  -1.213  1.00  0.00    -0.288 OA
HETATM    5  C17 UNL     1      48.562  10.126  -0.693  1.00  0.00     0.229 C 
HETATM    6  O3  UNL     1      49.710  10.216  -1.144  1.00  0.00    -0.283 OA
HETATM    7  C18 UNL     1      47.846   8.911  -0.400  1.00  0.00     0.025 C 
HETATM    8  C31 UNL     1      46.587   9.073   0.103  1.00  0.00    -0.001 C 
HETATM    9  C32 UNL     1      45.785   7.862   0.431  1.00  0.00     0.053 C 
HETATM   10  C33 UNL     1      46.010  10.385   0.358  1.00  0.00     0.173 C 
HETATM   11  O5  UNL     1      44.825  10.573   0.282  1.00  0.00    -0.291 OA
ENDROOT
BRANCH   1  12
HETATM   12  C6  UNL     1      46.292  12.815   0.657  1.00  0.00     0.041 C 
BRANCH  12  13
HETATM   13  C5  UNL     1      44.970  12.865  -0.093  1.00  0.00     0.038 C 
BRANCH  13  14
HETATM   14  C4  UNL     1      45.008  13.533  -1.397  1.00  0.00    -0.024 C 
HETATM   15  C2  UNL     1      44.673  14.779  -1.594  1.00  0.00    -0.091 C 
HETATM   16  C1  UNL     1      44.752  15.365  -2.983  1.00  0.00     0.042 C 
HETATM   17  C3  UNL     1      44.202  15.695  -0.526  1.00  0.00     0.042 C 
ENDBRANCH  13  14
ENDBRANCH  12  13
BRANCH  12  18
HETATM   18  C7  UNL     1      45.982  13.481   1.952  1.00  0.00    -0.078 C 
HETATM   19  C8  UNL     1      44.504  13.572   2.261  1.00  0.00     0.044 C 
HETATM   20  C9  UNL     1      46.776  14.019   2.826  1.00  0.00     0.003 C 
BRANCH  20  21
HETATM   21  C10 UNL     1      46.337  14.644   4.068  1.00  0.00     0.010 C 
HETATM   22  C11 UNL     1      46.929  15.747   4.476  1.00  0.00    -0.024 C 
HETATM   23  C12 UNL     1      48.042  16.382   3.704  1.00  0.00     0.051 C 
BRANCH  22  24
HETATM   24  C13 UNL     1      46.517  16.389   5.701  1.00  0.00     0.265 C 
HETATM   25  O1  UNL     1      46.942  17.514   6.063  1.00  0.00    -0.302 OA
ENDBRANCH  22  24
ENDBRANCH  20  21
ENDBRANCH  12  18
ENDBRANCH   1  12
BRANCH   7  26
HETATM   26  C19 UNL     1      48.306   7.575  -0.609  1.00  0.00     0.003 C 
BRANCH  26  27
HETATM   27  C20 UNL     1      49.382   6.819  -0.032  1.00  0.00     0.025 C 
HETATM   28  C22 UNL     1      49.499   7.249   1.461  1.00  0.00     0.023 C 
HETATM   29  C23 UNL     1      48.474   6.716   2.361  1.00  0.00    -0.010 C 
HETATM   30  C24 UNL     1      48.395   7.681   3.550  1.00  0.00     0.010 C 
HETATM   31  C25 UNL     1      48.977   5.400   2.937  1.00  0.00     0.007 C 
HETATM   32  C26 UNL     1      49.318   5.510   4.402  1.00  0.00     0.014 C 
HETATM   33  C27 UNL     1      50.169   4.910   2.214  1.00  0.00    -0.023 C 
HETATM   34  C28 UNL     1      50.406   4.858   0.916  1.00  0.00     0.008 C 
HETATM   35  C29 UNL     1      49.414   5.328  -0.129  1.00  0.00     0.084 C 
HETATM   36  C30 UNL     1      48.233   4.505  -0.056  1.00  0.00     0.051 C 
BRANCH  27  37
HETATM   37  C21 UNL     1      50.793   7.193  -0.469  1.00  0.00     0.131 C 
HETATM   38 CL1  UNL     1      51.630   8.201   0.745  1.00  0.00    -0.129 Cl
ENDBRANCH  27  37
BRANCH  35  39
HETATM   39  O4  UNL     1      50.041   5.013  -1.368  1.00  0.00    -0.385 OA
ATOM     40  H4  UNL     1      49.682   4.180  -1.651  1.00  0.00     0.211 HD
ENDBRANCH  35  39
ENDBRANCH  26  27
ENDBRANCH   7  26
TORSDOF 10
ENDMDL
