MODEL 1
REMARK VINA RESULT: -8.378129093      0.000      0.000
REMARK  10 active torsions:
REMARK  status: ('A' for Active; 'I' for Inactive)
REMARK    1  A    between atoms: C2_2  and  C3_4 
REMARK    2  A    between atoms: C12_14  and  O2_15 
REMARK    3  A    between atoms: O2_15  and  C13_16 
REMARK    4  A    between atoms: C13_16  and  C14_17 
REMARK    5  A    between atoms: C14_17  and  O3_18 
REMARK    6  A    between atoms: O3_18  and  C15_19 
REMARK    7  A    between atoms: C16_20  and  C17_21 
REMARK    8  A    between atoms: C16_20  and  C18_24 
REMARK    9  A    between atoms: C17_21  and  O4_22 
REMARK   10  A    between atoms: C18_24  and  O5_25 
ROOT
HETATM    1  C3  UNL     1      46.964  16.318   3.313  1.00  0.00     0.063 C 
HETATM    2  C4  UNL     1      45.720  17.063   2.872  1.00  0.00     0.013 C 
HETATM    3  C5  UNL     1      44.977  15.989   2.109  1.00  0.00     0.007 C 
HETATM    4  C6  UNL     1      45.406  14.659   2.737  1.00  0.00     0.002 C 
HETATM    5  C7  UNL     1      45.872  13.713   1.682  1.00  0.00     0.029 C 
HETATM    6  C8  UNL     1      44.646  13.072   1.083  1.00  0.00     0.175 C 
HETATM    7  F1  UNL     1      44.008  14.085   0.350  1.00  0.00    -0.249 F 
HETATM    8  C9  UNL     1      44.917  11.954   0.150  1.00  0.00     0.050 C 
HETATM    9  C10 UNL     1      46.322  11.461   0.122  1.00  0.00    -0.008 C 
HETATM   10  C11 UNL     1      47.241  12.348  -0.685  1.00  0.00     0.019 C 
HETATM   11  C12 UNL     1      46.517  10.066  -0.351  1.00  0.00     0.130 C 
HETATM   12  C26 UNL     1      47.871   9.708   0.254  1.00  0.00     0.033 C 
HETATM   13  C27 UNL     1      48.139  10.694   1.362  1.00  0.00     0.013 C 
HETATM   14  C28 UNL     1      46.806  11.382   1.557  1.00  0.00    -0.030 C 
HETATM   15  C29 UNL     1      45.966  10.507   2.414  1.00  0.00     0.016 C 
HETATM   16  C30 UNL     1      46.917  12.749   2.108  1.00  0.00     0.002 C 
HETATM   17  C31 UNL     1      46.864  12.631   3.639  1.00  0.00     0.007 C 
HETATM   18  C32 UNL     1      47.386  13.981   4.129  1.00  0.00     0.011 C 
HETATM   19  C33 UNL     1      46.373  15.008   3.788  1.00  0.00    -0.030 C 
HETATM   20  C34 UNL     1      45.597  15.337   5.071  1.00  0.00     0.016 C 
ENDROOT
BRANCH  11  21
HETATM   21  O2  UNL     1      46.615  10.042  -1.722  1.00  0.00    -0.383 OA
BRANCH  21  22
HETATM   22  C13 UNL     1      46.309   8.862  -2.336  1.00  0.00     0.194 C 
BRANCH  22  23
HETATM   23  C14 UNL     1      44.848   8.496  -2.353  1.00  0.00     0.194 C 
BRANCH  23  24
HETATM   24  O3  UNL     1      44.361   8.846  -3.610  1.00  0.00    -0.382 OA
BRANCH  24  25
HETATM   25  C15 UNL     1      43.053   9.347  -3.556  1.00  0.00     0.142 C 
HETATM   26  C16 UNL     1      42.089   8.442  -4.235  1.00  0.00     0.029 C 
HETATM   27  C19 UNL     1      41.536   8.959  -5.530  1.00  0.00     0.017 C 
HETATM   28  C20 UNL     1      41.034  10.359  -5.483  1.00  0.00     0.006 C 
HETATM   29  C21 UNL     1      41.800  11.272  -4.600  1.00  0.00    -0.008 C 
HETATM   30  C22 UNL     1      42.101  12.550  -5.394  1.00  0.00     0.011 C 
HETATM   31  C23 UNL     1      43.094  10.748  -4.101  1.00  0.00    -0.017 C 
HETATM   32  C24 UNL     1      44.220  10.834  -5.120  1.00  0.00     0.018 C 
HETATM   33  C25 UNL     1      43.527  11.651  -2.936  1.00  0.00     0.018 C 
BRANCH  26  34
HETATM   34  C17 UNL     1      40.983   8.008  -3.282  1.00  0.00     0.178 C 
BRANCH  34  35
HETATM   35  O4  UNL     1      41.302   8.196  -1.961  1.00  0.00    -0.400 OA
ATOM     36  H4  UNL     1      41.031   9.042  -1.627  1.00  0.00     0.209 HD
ENDBRANCH  34  35
ENDBRANCH  26  34
BRANCH  26  37
HETATM   37  C18 UNL     1      42.838   7.146  -4.586  1.00  0.00     0.178 C 
BRANCH  37  38
HETATM   38  O5  UNL     1      42.884   6.314  -3.443  1.00  0.00    -0.400 OA
ATOM     39  H5  UNL     1      42.934   6.857  -2.665  1.00  0.00     0.209 HD
ENDBRANCH  37  38
ENDBRANCH  26  37
ENDBRANCH  24  25
ENDBRANCH  23  24
ENDBRANCH  22  23
ENDBRANCH  21  22
ENDBRANCH  11  21
BRANCH   1  40
HETATM   40  C2  UNL     1      47.602  17.085   4.401  1.00  0.00     0.128 C 
HETATM   41  C1  UNL     1      49.018  16.839   4.832  1.00  0.00     0.091 C 
HETATM   42  O1  UNL     1      46.999  17.968   5.012  1.00  0.00    -0.298 OA
ENDBRANCH   1  40
TORSDOF 10
ENDMDL
MODEL 2
REMARK VINA RESULT: -8.370380576      1.008      1.846
REMARK  10 active torsions:
REMARK  status: ('A' for Active; 'I' for Inactive)
REMARK    1  A    between atoms: C2_2  and  C3_4 
REMARK    2  A    between atoms: C12_14  and  O2_15 
REMARK    3  A    between atoms: O2_15  and  C13_16 
REMARK    4  A    between atoms: C13_16  and  C14_17 
REMARK    5  A    between atoms: C14_17  and  O3_18 
REMARK    6  A    between atoms: O3_18  and  C15_19 
REMARK    7  A    between atoms: C16_20  and  C17_21 
REMARK    8  A    between atoms: C16_20  and  C18_24 
REMARK    9  A    between atoms: C17_21  and  O4_22 
REMARK   10  A    between atoms: C18_24  and  O5_25 
ROOT
HETATM    1  C3  UNL     1      46.964  16.393   3.174  1.00  0.00     0.063 C 
HETATM    2  C4  UNL     1      45.726  17.129   2.707  1.00  0.00     0.013 C 
HETATM    3  C5  UNL     1      44.952  16.020   2.029  1.00  0.00     0.007 C 
HETATM    4  C6  UNL     1      45.370  14.727   2.735  1.00  0.00     0.002 C 
HETATM    5  C7  UNL     1      45.802  13.707   1.736  1.00  0.00     0.029 C 
HETATM    6  C8  UNL     1      44.555  13.049   1.202  1.00  0.00     0.175 C 
HETATM    7  F1  UNL     1      43.920  14.023   0.415  1.00  0.00    -0.249 F 
HETATM    8  C9  UNL     1      44.791  11.868   0.339  1.00  0.00     0.050 C 
HETATM    9  C10 UNL     1      46.187  11.351   0.319  1.00  0.00    -0.008 C 
HETATM   10  C11 UNL     1      47.105  12.167  -0.559  1.00  0.00     0.019 C 
HETATM   11  C12 UNL     1      46.351   9.924  -0.064  1.00  0.00     0.130 C 
HETATM   12  C26 UNL     1      47.709   9.583   0.540  1.00  0.00     0.033 C 
HETATM   13  C27 UNL     1      48.014  10.634   1.576  1.00  0.00     0.013 C 
HETATM   14  C28 UNL     1      46.696  11.357   1.749  1.00  0.00    -0.030 C 
HETATM   15  C29 UNL     1      45.857  10.555   2.675  1.00  0.00     0.016 C 
HETATM   16  C30 UNL     1      46.839  12.754   2.207  1.00  0.00     0.002 C 
HETATM   17  C31 UNL     1      46.811  12.737   3.742  1.00  0.00     0.007 C 
HETATM   18  C32 UNL     1      47.364  14.108   4.134  1.00  0.00     0.011 C 
HETATM   19  C33 UNL     1      46.362  15.127   3.744  1.00  0.00    -0.030 C 
HETATM   20  C34 UNL     1      45.614  15.553   5.016  1.00  0.00     0.016 C 
ENDROOT
BRANCH  11  21
HETATM   21  O2  UNL     1      46.423   9.810  -1.433  1.00  0.00    -0.383 OA
BRANCH  21  22
HETATM   22  C13 UNL     1      46.519   8.544  -1.935  1.00  0.00     0.194 C 
BRANCH  22  23
HETATM   23  C14 UNL     1      46.079   8.376  -3.366  1.00  0.00     0.194 C 
BRANCH  23  24
HETATM   24  O3  UNL     1      44.720   8.068  -3.334  1.00  0.00    -0.382 OA
BRANCH  24  25
HETATM   25  C15 UNL     1      43.930   9.079  -3.897  1.00  0.00     0.142 C 
HETATM   26  C16 UNL     1      42.889   9.556  -2.950  1.00  0.00     0.029 C 
HETATM   27  C19 UNL     1      41.484   9.165  -3.299  1.00  0.00     0.017 C 
HETATM   28  C20 UNL     1      41.096   9.419  -4.713  1.00  0.00     0.006 C 
HETATM   29  C21 UNL     1      42.177   9.218  -5.707  1.00  0.00    -0.008 C 
HETATM   30  C22 UNL     1      41.618   8.349  -6.841  1.00  0.00     0.011 C 
HETATM   31  C23 UNL     1      43.400   8.549  -5.202  1.00  0.00    -0.017 C 
HETATM   32  C24 UNL     1      43.264   7.039  -5.087  1.00  0.00     0.018 C 
HETATM   33  C25 UNL     1      44.505   8.782  -6.243  1.00  0.00     0.018 C 
BRANCH  26  34
HETATM   34  C17 UNL     1      43.015  11.056  -2.711  1.00  0.00     0.178 C 
BRANCH  34  35
HETATM   35  O4  UNL     1      44.253  11.552  -3.030  1.00  0.00    -0.400 OA
ATOM     36  H4  UNL     1      44.952  11.188  -2.500  1.00  0.00     0.209 HD
ENDBRANCH  34  35
ENDBRANCH  26  34
BRANCH  26  37
HETATM   37  C18 UNL     1      43.177   8.914  -1.584  1.00  0.00     0.178 C 
BRANCH  37  38
HETATM   38  O5  UNL     1      42.454   7.702  -1.481  1.00  0.00    -0.400 OA
ATOM     39  H5  UNL     1      43.065   6.984  -1.364  1.00  0.00     0.209 HD
ENDBRANCH  37  38
ENDBRANCH  26  37
ENDBRANCH  24  25
ENDBRANCH  23  24
ENDBRANCH  22  23
ENDBRANCH  21  22
ENDBRANCH  11  21
BRANCH   1  40
HETATM   40  C2  UNL     1      47.635  17.218   4.199  1.00  0.00     0.128 C 
HETATM   41  C1  UNL     1      48.962  16.842   4.789  1.00  0.00     0.091 C 
HETATM   42  O1  UNL     1      47.133  18.260   4.623  1.00  0.00    -0.298 OA
ENDBRANCH   1  40
TORSDOF 10
ENDMDL
MODEL 3
REMARK VINA RESULT: -8.364896313      1.209      1.953
REMARK  10 active torsions:
REMARK  status: ('A' for Active; 'I' for Inactive)
REMARK    1  A    between atoms: C2_2  and  C3_4 
REMARK    2  A    between atoms: C12_14  and  O2_15 
REMARK    3  A    between atoms: O2_15  and  C13_16 
REMARK    4  A    between atoms: C13_16  and  C14_17 
REMARK    5  A    between atoms: C14_17  and  O3_18 
REMARK    6  A    between atoms: O3_18  and  C15_19 
REMARK    7  A    between atoms: C16_20  and  C17_21 
REMARK    8  A    between atoms: C16_20  and  C18_24 
REMARK    9  A    between atoms: C17_21  and  O4_22 
REMARK   10  A    between atoms: C18_24  and  O5_25 
ROOT
HETATM    1  C3  UNL     1      46.999  16.381   3.324  1.00  0.00     0.063 C 
HETATM    2  C4  UNL     1      45.795  17.188   2.883  1.00  0.00     0.013 C 
HETATM    3  C5  UNL     1      45.009  16.158   2.101  1.00  0.00     0.007 C 
HETATM    4  C6  UNL     1      45.371  14.803   2.715  1.00  0.00     0.002 C 
HETATM    5  C7  UNL     1      45.802  13.849   1.652  1.00  0.00     0.029 C 
HETATM    6  C8  UNL     1      44.552  13.273   1.036  1.00  0.00     0.175 C 
HETATM    7  F1  UNL     1      43.968  14.323   0.310  1.00  0.00    -0.249 F 
HETATM    8  C9  UNL     1      44.780  12.155   0.091  1.00  0.00     0.050 C 
HETATM    9  C10 UNL     1      46.160  11.598   0.067  1.00  0.00    -0.008 C 
HETATM   10  C11 UNL     1      47.126  12.451  -0.721  1.00  0.00     0.019 C 
HETATM   11  C12 UNL     1      46.295  10.201  -0.421  1.00  0.00     0.130 C 
HETATM   12  C26 UNL     1      47.626   9.774   0.190  1.00  0.00     0.033 C 
HETATM   13  C27 UNL     1      47.930  10.732   1.312  1.00  0.00     0.013 C 
HETATM   14  C28 UNL     1      46.629  11.479   1.505  1.00  0.00    -0.030 C 
HETATM   15  C29 UNL     1      45.742  10.634   2.344  1.00  0.00     0.016 C 
HETATM   16  C30 UNL     1      46.798  12.833   2.074  1.00  0.00     0.002 C 
HETATM   17  C31 UNL     1      46.726  12.699   3.603  1.00  0.00     0.007 C 
HETATM   18  C32 UNL     1      47.306  14.017   4.114  1.00  0.00     0.011 C 
HETATM   19  C33 UNL     1      46.344  15.094   3.778  1.00  0.00    -0.030 C 
HETATM   20  C34 UNL     1      45.574  15.443   5.059  1.00  0.00     0.016 C 
ENDROOT
BRANCH  11  21
HETATM   21  O2  UNL     1      46.403  10.190  -1.792  1.00  0.00    -0.383 OA
BRANCH  21  22
HETATM   22  C13 UNL     1      46.971   9.082  -2.351  1.00  0.00     0.194 C 
BRANCH  22  23
HETATM   23  C14 UNL     1      46.097   8.314  -3.309  1.00  0.00     0.194 C 
BRANCH  23  24
HETATM   24  O3  UNL     1      45.033   9.150  -3.640  1.00  0.00    -0.382 OA
BRANCH  24  25
HETATM   25  C15 UNL     1      43.908   8.437  -4.074  1.00  0.00     0.142 C 
HETATM   26  C16 UNL     1      43.571   8.747  -5.488  1.00  0.00     0.029 C 
HETATM   27  C19 UNL     1      42.323   9.556  -5.681  1.00  0.00     0.017 C 
HETATM   28  C20 UNL     1      41.136   9.065  -4.931  1.00  0.00     0.006 C 
HETATM   29  C21 UNL     1      41.431   8.486  -3.598  1.00  0.00    -0.008 C 
HETATM   30  C22 UNL     1      40.462   9.115  -2.588  1.00  0.00     0.011 C 
HETATM   31  C23 UNL     1      42.805   8.711  -3.088  1.00  0.00    -0.017 C 
HETATM   32  C24 UNL     1      43.018  10.098  -2.502  1.00  0.00     0.018 C 
HETATM   33  C25 UNL     1      43.017   7.736  -1.921  1.00  0.00     0.018 C 
BRANCH  26  34
HETATM   34  C17 UNL     1      43.563   7.482  -6.336  1.00  0.00     0.178 C 
BRANCH  34  35
HETATM   35  O4  UNL     1      44.151   6.410  -5.716  1.00  0.00    -0.400 OA
ATOM     36  H4  UNL     1      43.806   5.574  -6.004  1.00  0.00     0.209 HD
ENDBRANCH  34  35
ENDBRANCH  26  34
BRANCH  26  37
HETATM   37  C18 UNL     1      44.716   9.598  -6.060  1.00  0.00     0.178 C 
BRANCH  37  38
HETATM   38  O5  UNL     1      45.641   8.751  -6.713  1.00  0.00    -0.400 OA
ATOM     39  H5  UNL     1      45.826   9.099  -7.578  1.00  0.00     0.209 HD
ENDBRANCH  37  38
ENDBRANCH  26  37
ENDBRANCH  24  25
ENDBRANCH  23  24
ENDBRANCH  22  23
ENDBRANCH  21  22
ENDBRANCH  11  21
BRANCH   1  40
HETATM   40  C2  UNL     1      47.663  17.104   4.427  1.00  0.00     0.128 C 
HETATM   41  C1  UNL     1      49.083  16.831   4.824  1.00  0.00     0.091 C 
HETATM   42  O1  UNL     1      47.078  17.970   5.078  1.00  0.00    -0.298 OA
ENDBRANCH   1  40
TORSDOF 10
ENDMDL
MODEL 4
REMARK VINA RESULT: -8.332048561      1.015      1.487
REMARK  10 active torsions:
REMARK  status: ('A' for Active; 'I' for Inactive)
REMARK    1  A    between atoms: C2_2  and  C3_4 
REMARK    2  A    between atoms: C12_14  and  O2_15 
REMARK    3  A    between atoms: O2_15  and  C13_16 
REMARK    4  A    between atoms: C13_16  and  C14_17 
REMARK    5  A    between atoms: C14_17  and  O3_18 
REMARK    6  A    between atoms: O3_18  and  C15_19 
REMARK    7  A    between atoms: C16_20  and  C17_21 
REMARK    8  A    between atoms: C16_20  and  C18_24 
REMARK    9  A    between atoms: C17_21  and  O4_22 
REMARK   10  A    between atoms: C18_24  and  O5_25 
ROOT
HETATM    1  C3  UNL     1      46.902  16.352   3.197  1.00  0.00     0.063 C 
HETATM    2  C4  UNL     1      45.665  17.091   2.729  1.00  0.00     0.013 C 
HETATM    3  C5  UNL     1      44.938  16.008   1.962  1.00  0.00     0.007 C 
HETATM    4  C6  UNL     1      45.359  14.685   2.609  1.00  0.00     0.002 C 
HETATM    5  C7  UNL     1      45.846  13.731   1.570  1.00  0.00     0.029 C 
HETATM    6  C8  UNL     1      44.631  13.082   0.956  1.00  0.00     0.175 C 
HETATM    7  F1  UNL     1      44.004  14.087   0.203  1.00  0.00    -0.249 F 
HETATM    8  C9  UNL     1      44.922  11.957   0.037  1.00  0.00     0.050 C 
HETATM    9  C10 UNL     1      46.327  11.467   0.037  1.00  0.00    -0.008 C 
HETATM   10  C11 UNL     1      47.259  12.349  -0.760  1.00  0.00     0.019 C 
HETATM   11  C12 UNL     1      46.534  10.068  -0.420  1.00  0.00     0.130 C 
HETATM   12  C26 UNL     1      47.878   9.719   0.212  1.00  0.00     0.033 C 
HETATM   13  C27 UNL     1      48.125  10.715   1.316  1.00  0.00     0.013 C 
HETATM   14  C28 UNL     1      46.787  11.402   1.482  1.00  0.00    -0.030 C 
HETATM   15  C29 UNL     1      45.934  10.532   2.331  1.00  0.00     0.016 C 
HETATM   16  C30 UNL     1      46.885  12.773   2.023  1.00  0.00     0.002 C 
HETATM   17  C31 UNL     1      46.805  12.668   3.553  1.00  0.00     0.007 C 
HETATM   18  C32 UNL     1      47.316  14.024   4.040  1.00  0.00     0.011 C 
HETATM   19  C33 UNL     1      46.306  15.045   3.673  1.00  0.00    -0.030 C 
HETATM   20  C34 UNL     1      45.507  15.383   4.940  1.00  0.00     0.016 C 
ENDROOT
BRANCH  11  21
HETATM   21  O2  UNL     1      46.656  10.033  -1.789  1.00  0.00    -0.383 OA
BRANCH  21  22
HETATM   22  C13 UNL     1      45.856   9.147  -2.450  1.00  0.00     0.194 C 
BRANCH  22  23
HETATM   23  C14 UNL     1      44.708   9.751  -3.216  1.00  0.00     0.194 C 
BRANCH  23  24
HETATM   24  O3  UNL     1      44.102   8.711  -3.917  1.00  0.00    -0.382 OA
BRANCH  24  25
HETATM   25  C15 UNL     1      42.776   9.003  -4.265  1.00  0.00     0.142 C 
HETATM   26  C16 UNL     1      41.820   8.054  -3.635  1.00  0.00     0.029 C 
HETATM   27  C19 UNL     1      41.168   7.088  -4.579  1.00  0.00     0.017 C 
HETATM   28  C20 UNL     1      40.599   7.702  -5.809  1.00  0.00     0.006 C 
HETATM   29  C21 UNL     1      41.368   8.847  -6.353  1.00  0.00    -0.008 C 
HETATM   30  C22 UNL     1      41.558   8.614  -7.857  1.00  0.00     0.011 C 
HETATM   31  C23 UNL     1      42.714   9.055  -5.767  1.00  0.00    -0.017 C 
HETATM   32  C24 UNL     1      43.773   8.116  -6.324  1.00  0.00     0.018 C 
HETATM   33  C25 UNL     1      43.168  10.467  -6.168  1.00  0.00     0.018 C 
BRANCH  26  34
HETATM   34  C17 UNL     1      40.795   8.795  -2.786  1.00  0.00     0.178 C 
BRANCH  34  35
HETATM   35  O4  UNL     1      39.679   8.047  -2.511  1.00  0.00    -0.400 OA
ATOM     36  H4  UNL     1      39.066   8.008  -3.235  1.00  0.00     0.209 HD
ENDBRANCH  34  35
ENDBRANCH  26  34
BRANCH  26  37
HETATM   37  C18 UNL     1      42.612   7.194  -2.636  1.00  0.00     0.178 C 
BRANCH  37  38
HETATM   38  O5  UNL     1      42.454   7.730  -1.337  1.00  0.00    -0.400 OA
ATOM     39  H5  UNL     1      41.998   7.099  -0.793  1.00  0.00     0.209 HD
ENDBRANCH  37  38
ENDBRANCH  26  37
ENDBRANCH  24  25
ENDBRANCH  23  24
ENDBRANCH  22  23
ENDBRANCH  21  22
ENDBRANCH  11  21
BRANCH   1  40
HETATM   40  C2  UNL     1      47.520  17.130   4.290  1.00  0.00     0.128 C 
HETATM   41  C1  UNL     1      48.906  16.850   4.789  1.00  0.00     0.091 C 
HETATM   42  O1  UNL     1      46.922  18.051   4.849  1.00  0.00    -0.298 OA
ENDBRANCH   1  40
TORSDOF 10
ENDMDL
MODEL 5
REMARK VINA RESULT: -8.298087514      0.973      2.316
REMARK  10 active torsions:
REMARK  status: ('A' for Active; 'I' for Inactive)
REMARK    1  A    between atoms: C2_2  and  C3_4 
REMARK    2  A    between atoms: C12_14  and  O2_15 
REMARK    3  A    between atoms: O2_15  and  C13_16 
REMARK    4  A    between atoms: C13_16  and  C14_17 
REMARK    5  A    between atoms: C14_17  and  O3_18 
REMARK    6  A    between atoms: O3_18  and  C15_19 
REMARK    7  A    between atoms: C16_20  and  C17_21 
REMARK    8  A    between atoms: C16_20  and  C18_24 
REMARK    9  A    between atoms: C17_21  and  O4_22 
REMARK   10  A    between atoms: C18_24  and  O5_25 
ROOT
HETATM    1  C3  UNL     1      46.994  16.320   3.309  1.00  0.00     0.063 C 
HETATM    2  C4  UNL     1      45.744  17.069   2.893  1.00  0.00     0.013 C 
HETATM    3  C5  UNL     1      44.985  15.998   2.141  1.00  0.00     0.007 C 
HETATM    4  C6  UNL     1      45.422  14.666   2.756  1.00  0.00     0.002 C 
HETATM    5  C7  UNL     1      45.868  13.723   1.690  1.00  0.00     0.029 C 
HETATM    6  C8  UNL     1      44.629  13.086   1.112  1.00  0.00     0.175 C 
HETATM    7  F1  UNL     1      43.979  14.102   0.394  1.00  0.00    -0.249 F 
HETATM    8  C9  UNL     1      44.881  11.970   0.171  1.00  0.00     0.050 C 
HETATM    9  C10 UNL     1      46.284  11.475   0.115  1.00  0.00    -0.008 C 
HETATM   10  C11 UNL     1      47.190  12.362  -0.706  1.00  0.00     0.019 C 
HETATM   11  C12 UNL     1      46.467  10.080  -0.366  1.00  0.00     0.130 C 
HETATM   12  C26 UNL     1      47.831   9.718   0.213  1.00  0.00     0.033 C 
HETATM   13  C27 UNL     1      48.122  10.700   1.319  1.00  0.00     0.013 C 
HETATM   14  C28 UNL     1      46.794  11.390   1.541  1.00  0.00    -0.030 C 
HETATM   15  C29 UNL     1      45.968  10.514   2.410  1.00  0.00     0.016 C 
HETATM   16  C30 UNL     1      46.918  12.755   2.094  1.00  0.00     0.002 C 
HETATM   17  C31 UNL     1      46.892  12.632   3.625  1.00  0.00     0.007 C 
HETATM   18  C32 UNL     1      47.426  13.980   4.109  1.00  0.00     0.011 C 
HETATM   19  C33 UNL     1      46.409  15.010   3.790  1.00  0.00    -0.030 C 
HETATM   20  C34 UNL     1      45.657  15.336   5.088  1.00  0.00     0.016 C 
ENDROOT
BRANCH  11  21
HETATM   21  O2  UNL     1      46.540  10.061  -1.739  1.00  0.00    -0.383 OA
BRANCH  21  22
HETATM   22  C13 UNL     1      46.571   8.832  -2.331  1.00  0.00     0.194 C 
BRANCH  22  23
HETATM   23  C14 UNL     1      45.458   8.551  -3.307  1.00  0.00     0.194 C 
BRANCH  23  24
HETATM   24  O3  UNL     1      44.337   9.237  -2.846  1.00  0.00    -0.382 OA
BRANCH  24  25
HETATM   25  C15 UNL     1      43.358   9.390  -3.837  1.00  0.00     0.142 C 
HETATM   26  C16 UNL     1      43.025  10.820  -4.067  1.00  0.00     0.029 C 
HETATM   27  C19 UNL     1      41.670  11.243  -3.583  1.00  0.00     0.017 C 
HETATM   28  C20 UNL     1      40.552  10.349  -3.990  1.00  0.00     0.006 C 
HETATM   29  C21 UNL     1      40.890   8.906  -4.043  1.00  0.00    -0.008 C 
HETATM   30  C22 UNL     1      39.797   8.139  -3.287  1.00  0.00     0.011 C 
HETATM   31  C23 UNL     1      42.191   8.527  -3.441  1.00  0.00    -0.017 C 
HETATM   32  C24 UNL     1      42.156   8.433  -1.924  1.00  0.00     0.018 C 
HETATM   33  C25 UNL     1      42.518   7.108  -3.931  1.00  0.00     0.018 C 
BRANCH  26  34
HETATM   34  C17 UNL     1      43.252  11.206  -5.523  1.00  0.00     0.178 C 
BRANCH  34  35
HETATM   35  O4  UNL     1      43.910  10.241  -6.242  1.00  0.00    -0.400 OA
ATOM     36  H4  UNL     1      43.734   9.360  -5.936  1.00  0.00     0.209 HD
ENDBRANCH  34  35
ENDBRANCH  26  34
BRANCH  26  37
HETATM   37  C18 UNL     1      44.036  11.664  -3.273  1.00  0.00     0.178 C 
BRANCH  37  38
HETATM   38  O5  UNL     1      45.222  11.800  -4.032  1.00  0.00    -0.400 OA
ATOM     39  H5  UNL     1      45.071  12.418  -4.738  1.00  0.00     0.209 HD
ENDBRANCH  37  38
ENDBRANCH  26  37
ENDBRANCH  24  25
ENDBRANCH  23  24
ENDBRANCH  22  23
ENDBRANCH  21  22
ENDBRANCH  11  21
BRANCH   1  40
HETATM   40  C2  UNL     1      47.653  17.082   4.387  1.00  0.00     0.128 C 
HETATM   41  C1  UNL     1      49.071  16.820   4.803  1.00  0.00     0.091 C 
HETATM   42  O1  UNL     1      47.068  17.974   5.003  1.00  0.00    -0.298 OA
ENDBRANCH   1  40
TORSDOF 10
ENDMDL
