MODEL 1
REMARK VINA RESULT: -7.139315575      0.000      0.000
REMARK  11 active torsions:
REMARK  status: ('A' for Active; 'I' for Inactive)
REMARK    1  A    between atoms: C3_3  and  C4_4 
REMARK    2  A    between atoms: C4_4  and  C5_6 
REMARK    3  A    between atoms: C8_10  and  C10_12 
REMARK    4  A    between atoms: C10_12  and  O2_13 
REMARK    5  A    between atoms: C20_24  and  C21_25 
REMARK    6  A    between atoms: C21_25  and  C23_27 
REMARK    7  A    between atoms: C24_28  and  C25_29 
REMARK       I    between atoms: C25_29  and  N1_31 
REMARK       I    between atoms: N1_31  and  C26_33 
REMARK    8  A    between atoms: C26_33  and  O5_35 
REMARK    9  A    between atoms: O5_35  and  C27_36 
REMARK   10  A    between atoms: C27_36  and  C28_37 
REMARK   11  A    between atoms: C28_37  and  C29_38 
ROOT
HETATM    1  C1  UNL     1      52.903   1.883  -0.496  1.00  0.00     0.112 C 
HETATM    2  C2  UNL     1      53.452   2.480   0.728  1.00  0.00    -0.103 C 
HETATM    3  C3  UNL     1      53.899   2.991   1.725  1.00  0.00    -0.026 C 
ENDROOT
BRANCH   3   4
HETATM    4  C4  UNL     1      54.424   3.628   2.925  1.00  0.00     0.242 C 
HETATM    5  O1  UNL     1      55.643   3.645   3.057  1.00  0.00    -0.280 OA
BRANCH   4   6
HETATM    6  C5  UNL     1      53.400   4.183   3.848  1.00  0.00     0.180 C 
HETATM    7  F1  UNL     1      54.171   5.002   4.704  1.00  0.00    -0.233 F 
HETATM    8  C6  UNL     1      52.790   3.138   4.741  1.00  0.00     0.054 C 
HETATM    9  C7  UNL     1      51.314   3.316   4.922  1.00  0.00     0.015 C 
HETATM   10  C8  UNL     1      50.562   3.355   3.597  1.00  0.00    -0.018 C 
HETATM   11  C9  UNL     1      49.122   3.320   3.950  1.00  0.00     0.018 C 
HETATM   12  C11 UNL     1      51.085   4.478   2.795  1.00  0.00     0.012 C 
HETATM   13  C12 UNL     1      50.136   5.644   2.601  1.00  0.00     0.020 C 
HETATM   14  C34 UNL     1      52.381   5.055   3.243  1.00  0.00     0.043 C 
HETATM   15  C13 UNL     1      49.116   5.415   1.511  1.00  0.00     0.010 C 
HETATM   16  C31 UNL     1      50.816   6.914   2.239  1.00  0.00    -0.074 C 
HETATM   17  C14 UNL     1      48.266   6.615   1.322  1.00  0.00     0.011 C 
HETATM   18  C15 UNL     1      49.002   7.894   0.972  1.00  0.00    -0.032 C 
HETATM   19  C16 UNL     1      49.664   7.708  -0.338  1.00  0.00     0.016 C 
HETATM   20  C17 UNL     1      49.959   8.123   2.136  1.00  0.00     0.023 C 
HETATM   21  C20 UNL     1      48.055   9.017   1.119  1.00  0.00     0.002 C 
HETATM   22  C18 UNL     1      49.025   8.358   3.258  1.00  0.00     0.010 C 
HETATM   23  C19 UNL     1      47.786   8.977   2.625  1.00  0.00     0.007 C 
HETATM   24  C32 UNL     1      52.101   7.069   1.978  1.00  0.00    -0.023 C 
HETATM   25  C33 UNL     1      52.953   5.842   2.055  1.00  0.00     0.036 C 
BRANCH  10  26
HETATM   26  C10 UNL     1      50.833   2.011   2.894  1.00  0.00     0.173 C 
BRANCH  26  27
HETATM   27  O2  UNL     1      50.103   1.943   1.700  1.00  0.00    -0.400 OA
ATOM     28  H2  UNL     1      50.640   1.560   1.015  1.00  0.00     0.209 HD
ENDBRANCH  26  27
ENDBRANCH  10  26
BRANCH  21  29
HETATM   29  C21 UNL     1      48.484  10.393   0.764  1.00  0.00     0.009 C 
HETATM   30  C22 UNL     1      48.143  10.891  -0.598  1.00  0.00     0.014 C 
BRANCH  29  31
HETATM   31  C23 UNL     1      47.783  11.309   1.740  1.00  0.00    -0.017 C 
HETATM   32  C24 UNL     1      47.060  12.321   1.355  1.00  0.00     0.071 C 
BRANCH  32  33
HETATM   33  C25 UNL     1      46.379  13.215   2.282  1.00  0.00     0.249 C 
HETATM   34  O3  UNL     1      46.687  13.167   3.493  1.00  0.00    -0.268 OA
HETATM   35  N1  UNL     1      45.397  14.106   1.801  1.00  0.00    -0.269 N 
HETATM   36  C26 UNL     1      44.697  15.008   2.676  1.00  0.00     0.367 C 
ATOM     37  H1  UNL     1      45.177  14.110   0.805  1.00  0.00     0.174 HD
HETATM   38  O4  UNL     1      43.832  15.788   2.214  1.00  0.00    -0.238 OA
BRANCH  36  39
HETATM   39  O5  UNL     1      44.946  15.047   4.021  1.00  0.00    -0.304 OA
BRANCH  39  40
HETATM   40  C27 UNL     1      44.983  16.186   4.839  1.00  0.00     0.180 C 
BRANCH  40  41
HETATM   41  C28 UNL     1      46.344  16.465   5.431  1.00  0.00     0.026 C 
BRANCH  41  42
HETATM   42  C29 UNL     1      47.127  17.253   4.397  1.00  0.00    -0.002 C 
HETATM   43  C30 UNL     1      48.190  16.404   3.725  1.00  0.00     0.005 C 
ENDBRANCH  41  42
ENDBRANCH  40  41
ENDBRANCH  39  40
ENDBRANCH  36  39
ENDBRANCH  32  33
ENDBRANCH  29  31
ENDBRANCH  21  29
ENDBRANCH   4   6
ENDBRANCH   3   4
TORSDOF 11
ENDMDL
MODEL 2
REMARK VINA RESULT: -7.107622163      2.389      4.105
REMARK  11 active torsions:
REMARK  status: ('A' for Active; 'I' for Inactive)
REMARK    1  A    between atoms: C3_3  and  C4_4 
REMARK    2  A    between atoms: C4_4  and  C5_6 
REMARK    3  A    between atoms: C8_10  and  C10_12 
REMARK    4  A    between atoms: C10_12  and  O2_13 
REMARK    5  A    between atoms: C20_24  and  C21_25 
REMARK    6  A    between atoms: C21_25  and  C23_27 
REMARK    7  A    between atoms: C24_28  and  C25_29 
REMARK       I    between atoms: C25_29  and  N1_31 
REMARK       I    between atoms: N1_31  and  C26_33 
REMARK    8  A    between atoms: C26_33  and  O5_35 
REMARK    9  A    between atoms: O5_35  and  C27_36 
REMARK   10  A    between atoms: C27_36  and  C28_37 
REMARK   11  A    between atoms: C28_37  and  C29_38 
ROOT
HETATM    1  C1  UNL     1      46.275  -0.380   4.682  1.00  0.00     0.112 C 
HETATM    2  C2  UNL     1      47.549   0.202   5.123  1.00  0.00    -0.103 C 
HETATM    3  C3  UNL     1      48.595   0.694   5.468  1.00  0.00    -0.026 C 
ENDROOT
BRANCH   3   4
HETATM    4  C4  UNL     1      49.852   1.309   5.872  1.00  0.00     0.242 C 
HETATM    5  O1  UNL     1      50.063   1.402   7.077  1.00  0.00    -0.280 OA
BRANCH   4   6
HETATM    6  C5  UNL     1      50.728   1.751   4.757  1.00  0.00     0.180 C 
HETATM    7  F1  UNL     1      50.325   0.908   3.697  1.00  0.00    -0.233 F 
HETATM    8  C6  UNL     1      52.179   1.430   4.991  1.00  0.00     0.054 C 
HETATM    9  C7  UNL     1      53.097   2.531   4.556  1.00  0.00     0.015 C 
HETATM   10  C8  UNL     1      52.760   3.866   5.209  1.00  0.00    -0.018 C 
HETATM   11  C9  UNL     1      53.870   4.782   4.848  1.00  0.00     0.018 C 
HETATM   12  C11 UNL     1      51.375   4.228   4.848  1.00  0.00     0.012 C 
HETATM   13  C12 UNL     1      51.228   5.409   3.910  1.00  0.00     0.020 C 
HETATM   14  C34 UNL     1      50.538   3.133   4.287  1.00  0.00     0.043 C 
HETATM   15  C13 UNL     1      51.336   6.746   4.605  1.00  0.00     0.010 C 
HETATM   16  C31 UNL     1      49.928   5.444   3.193  1.00  0.00    -0.074 C 
HETATM   17  C14 UNL     1      51.113   7.858   3.649  1.00  0.00     0.011 C 
HETATM   18  C15 UNL     1      49.780   7.845   2.924  1.00  0.00    -0.032 C 
HETATM   19  C16 UNL     1      48.703   8.006   3.927  1.00  0.00     0.016 C 
HETATM   20  C17 UNL     1      49.755   6.516   2.179  1.00  0.00     0.023 C 
HETATM   21  C20 UNL     1      49.854   8.823   1.822  1.00  0.00     0.002 C 
HETATM   22  C18 UNL     1      50.863   6.687   1.214  1.00  0.00     0.010 C 
HETATM   23  C19 UNL     1      50.925   8.182   0.934  1.00  0.00     0.007 C 
HETATM   24  C32 UNL     1      48.904   4.633   3.385  1.00  0.00    -0.023 C 
HETATM   25  C33 UNL     1      49.074   3.574   4.428  1.00  0.00     0.036 C 
BRANCH  10  26
HETATM   26  C10 UNL     1      52.891   3.662   6.730  1.00  0.00     0.173 C 
BRANCH  26  27
HETATM   27  O2  UNL     1      51.703   4.047   7.366  1.00  0.00    -0.400 OA
ATOM     28  H2  UNL     1      51.826   4.041   8.309  1.00  0.00     0.209 HD
ENDBRANCH  26  27
ENDBRANCH  10  26
BRANCH  21  29
HETATM   29  C21 UNL     1      48.656   9.081   0.984  1.00  0.00     0.009 C 
HETATM   30  C22 UNL     1      47.446   8.251   1.240  1.00  0.00     0.014 C 
BRANCH  29  31
HETATM   31  C23 UNL     1      48.258  10.511   1.261  1.00  0.00    -0.017 C 
HETATM   32  C24 UNL     1      47.304  10.824   2.090  1.00  0.00     0.071 C 
BRANCH  32  33
HETATM   33  C25 UNL     1      46.906  12.199   2.369  1.00  0.00     0.249 C 
HETATM   34  O3  UNL     1      46.416  12.878   1.440  1.00  0.00    -0.268 OA
HETATM   35  N1  UNL     1      47.080  12.728   3.664  1.00  0.00    -0.269 N 
HETATM   36  C26 UNL     1      46.702  14.077   3.989  1.00  0.00     0.367 C 
ATOM     37  H1  UNL     1      47.484  12.138   4.391  1.00  0.00     0.174 HD
HETATM   38  O4  UNL     1      46.868  14.515   5.152  1.00  0.00    -0.238 OA
BRANCH  36  39
HETATM   39  O5  UNL     1      46.157  14.919   3.056  1.00  0.00    -0.304 OA
BRANCH  39  40
HETATM   40  C27 UNL     1      45.912  16.292   3.202  1.00  0.00     0.180 C 
BRANCH  40  41
HETATM   41  C28 UNL     1      44.891  16.833   2.229  1.00  0.00     0.026 C 
BRANCH  41  42
HETATM   42  C29 UNL     1      44.429  15.668   1.374  1.00  0.00    -0.002 C 
HETATM   43  C30 UNL     1      44.082  16.104  -0.037  1.00  0.00     0.005 C 
ENDBRANCH  41  42
ENDBRANCH  40  41
ENDBRANCH  39  40
ENDBRANCH  36  39
ENDBRANCH  32  33
ENDBRANCH  29  31
ENDBRANCH  21  29
ENDBRANCH   4   6
ENDBRANCH   3   4
TORSDOF 11
ENDMDL
MODEL 3
REMARK VINA RESULT: -6.963861217      6.064      9.413
REMARK  11 active torsions:
REMARK  status: ('A' for Active; 'I' for Inactive)
REMARK    1  A    between atoms: C3_3  and  C4_4 
REMARK    2  A    between atoms: C4_4  and  C5_6 
REMARK    3  A    between atoms: C8_10  and  C10_12 
REMARK    4  A    between atoms: C10_12  and  O2_13 
REMARK    5  A    between atoms: C20_24  and  C21_25 
REMARK    6  A    between atoms: C21_25  and  C23_27 
REMARK    7  A    between atoms: C24_28  and  C25_29 
REMARK       I    between atoms: C25_29  and  N1_31 
REMARK       I    between atoms: N1_31  and  C26_33 
REMARK    8  A    between atoms: C26_33  and  O5_35 
REMARK    9  A    between atoms: O5_35  and  C27_36 
REMARK   10  A    between atoms: C27_36  and  C28_37 
REMARK   11  A    between atoms: C28_37  and  C29_38 
ROOT
HETATM    1  C1  UNL     1      38.348   6.118  -4.592  1.00  0.00     0.112 C 
HETATM    2  C2  UNL     1      39.707   6.411  -5.065  1.00  0.00    -0.103 C 
HETATM    3  C3  UNL     1      40.830   6.656  -5.434  1.00  0.00    -0.026 C 
ENDROOT
BRANCH   3   4
HETATM    4  C4  UNL     1      42.193   6.944  -5.855  1.00  0.00     0.242 C 
HETATM    5  O1  UNL     1      42.852   6.003  -6.287  1.00  0.00    -0.280 OA
BRANCH   4   6
HETATM    6  C5  UNL     1      42.617   8.360  -5.707  1.00  0.00     0.180 C 
HETATM    7  F1  UNL     1      41.421   8.998  -5.306  1.00  0.00    -0.233 F 
HETATM    8  C6  UNL     1      42.990   8.999  -7.015  1.00  0.00     0.054 C 
HETATM    9  C7  UNL     1      44.195   9.882  -6.910  1.00  0.00     0.015 C 
HETATM   10  C8  UNL     1      45.405   9.154  -6.337  1.00  0.00    -0.018 C 
HETATM   11  C9  UNL     1      46.549  10.086  -6.497  1.00  0.00     0.018 C 
HETATM   12  C11 UNL     1      45.059   8.656  -4.992  1.00  0.00     0.012 C 
HETATM   13  C12 UNL     1      45.762   9.340  -3.837  1.00  0.00     0.020 C 
HETATM   14  C34 UNL     1      43.610   8.636  -4.655  1.00  0.00     0.043 C 
HETATM   15  C13 UNL     1      47.165   8.833  -3.602  1.00  0.00     0.010 C 
HETATM   16  C31 UNL     1      45.065   9.183  -2.535  1.00  0.00    -0.074 C 
HETATM   17  C14 UNL     1      47.772   9.488  -2.418  1.00  0.00     0.011 C 
HETATM   18  C15 UNL     1      47.018   9.318  -1.113  1.00  0.00    -0.032 C 
HETATM   19  C16 UNL     1      47.007   7.879  -0.765  1.00  0.00     0.016 C 
HETATM   20  C17 UNL     1      45.642   9.915  -1.378  1.00  0.00     0.023 C 
HETATM   21  C20 UNL     1      47.588  10.264  -0.133  1.00  0.00     0.002 C 
HETATM   22  C18 UNL     1      45.964  11.340  -1.602  1.00  0.00     0.010 C 
HETATM   23  C19 UNL     1      47.212  11.605  -0.770  1.00  0.00     0.007 C 
HETATM   24  C32 UNL     1      44.000   8.439  -2.301  1.00  0.00    -0.023 C 
HETATM   25  C33 UNL     1      43.442   7.682  -3.464  1.00  0.00     0.036 C 
BRANCH  10  26
HETATM   26  C10 UNL     1      45.710   7.983  -7.290  1.00  0.00     0.173 C 
BRANCH  26  27
HETATM   27  O2  UNL     1      45.785   6.786  -6.565  1.00  0.00    -0.400 OA
ATOM     28  H2  UNL     1      45.721   6.045  -7.157  1.00  0.00     0.209 HD
ENDBRANCH  26  27
ENDBRANCH  10  26
BRANCH  21  29
HETATM   29  C21 UNL     1      47.091  10.264   1.266  1.00  0.00     0.009 C 
HETATM   30  C22 UNL     1      47.945   9.613   2.299  1.00  0.00     0.014 C 
BRANCH  29  31
HETATM   31  C23 UNL     1      46.974  11.716   1.663  1.00  0.00    -0.017 C 
HETATM   32  C24 UNL     1      45.849  12.250   2.044  1.00  0.00     0.071 C 
BRANCH  32  33
HETATM   33  C25 UNL     1      45.719  13.650   2.429  1.00  0.00     0.249 C 
HETATM   34  O3  UNL     1      46.524  14.118   3.263  1.00  0.00    -0.268 OA
HETATM   35  N1  UNL     1      44.698  14.439   1.859  1.00  0.00    -0.269 N 
HETATM   36  C26 UNL     1      44.529  15.825   2.206  1.00  0.00     0.367 C 
ATOM     37  H1  UNL     1      44.063  14.016   1.183  1.00  0.00     0.174 HD
HETATM   38  O4  UNL     1      43.612  16.498   1.678  1.00  0.00    -0.238 OA
BRANCH  36  39
HETATM   39  O5  UNL     1      45.347  16.448   3.109  1.00  0.00    -0.304 OA
BRANCH  39  40
HETATM   40  C27 UNL     1      45.073  16.699   4.461  1.00  0.00     0.180 C 
BRANCH  40  41
HETATM   41  C28 UNL     1      46.310  16.808   5.322  1.00  0.00     0.026 C 
BRANCH  41  42
HETATM   42  C29 UNL     1      47.395  17.433   4.464  1.00  0.00    -0.002 C 
HETATM   43  C30 UNL     1      48.749  16.793   4.709  1.00  0.00     0.005 C 
ENDBRANCH  41  42
ENDBRANCH  40  41
ENDBRANCH  39  40
ENDBRANCH  36  39
ENDBRANCH  32  33
ENDBRANCH  29  31
ENDBRANCH  21  29
ENDBRANCH   4   6
ENDBRANCH   3   4
TORSDOF 11
ENDMDL
MODEL 4
REMARK VINA RESULT: -6.924141772      6.456     10.248
REMARK  11 active torsions:
REMARK  status: ('A' for Active; 'I' for Inactive)
REMARK    1  A    between atoms: C3_3  and  C4_4 
REMARK    2  A    between atoms: C4_4  and  C5_6 
REMARK    3  A    between atoms: C8_10  and  C10_12 
REMARK    4  A    between atoms: C10_12  and  O2_13 
REMARK    5  A    between atoms: C20_24  and  C21_25 
REMARK    6  A    between atoms: C21_25  and  C23_27 
REMARK    7  A    between atoms: C24_28  and  C25_29 
REMARK       I    between atoms: C25_29  and  N1_31 
REMARK       I    between atoms: N1_31  and  C26_33 
REMARK    8  A    between atoms: C26_33  and  O5_35 
REMARK    9  A    between atoms: O5_35  and  C27_36 
REMARK   10  A    between atoms: C27_36  and  C28_37 
REMARK   11  A    between atoms: C28_37  and  C29_38 
ROOT
HETATM    1  C1  UNL     1      40.334   5.989  -6.939  1.00  0.00     0.112 C 
HETATM    2  C2  UNL     1      40.053   6.782  -5.736  1.00  0.00    -0.103 C 
HETATM    3  C3  UNL     1      39.823   7.416  -4.735  1.00  0.00    -0.026 C 
ENDROOT
BRANCH   3   4
HETATM    4  C4  UNL     1      39.558   8.163  -3.514  1.00  0.00     0.242 C 
HETATM    5  O1  UNL     1      38.926   7.586  -2.635  1.00  0.00    -0.280 OA
BRANCH   4   6
HETATM    6  C5  UNL     1      40.095   9.548  -3.488  1.00  0.00     0.180 C 
HETATM    7  F1  UNL     1      39.369  10.139  -2.430  1.00  0.00    -0.233 F 
HETATM    8  C6  UNL     1      39.729  10.340  -4.713  1.00  0.00     0.054 C 
HETATM    9  C7  UNL     1      40.853  11.196  -5.211  1.00  0.00     0.015 C 
HETATM   10  C8  UNL     1      42.122  10.397  -5.482  1.00  0.00    -0.018 C 
HETATM   11  C9  UNL     1      43.051  11.335  -6.159  1.00  0.00     0.018 C 
HETATM   12  C11 UNL     1      42.540   9.741  -4.228  1.00  0.00     0.012 C 
HETATM   13  C12 UNL     1      43.811  10.275  -3.600  1.00  0.00     0.020 C 
HETATM   14  C34 UNL     1      41.520   9.689  -3.146  1.00  0.00     0.043 C 
HETATM   15  C13 UNL     1      45.070   9.735  -4.236  1.00  0.00     0.010 C 
HETATM   16  C31 UNL     1      43.939   9.964  -2.153  1.00  0.00    -0.074 C 
HETATM   17  C14 UNL     1      46.275  10.238  -3.532  1.00  0.00     0.011 C 
HETATM   18  C15 UNL     1      46.356   9.914  -2.053  1.00  0.00    -0.032 C 
HETATM   19  C16 UNL     1      46.434   8.444  -1.900  1.00  0.00     0.016 C 
HETATM   20  C17 UNL     1      45.109  10.547  -1.447  1.00  0.00     0.023 C 
HETATM   21  C20 UNL     1      47.438  10.731  -1.469  1.00  0.00     0.002 C 
HETATM   22  C18 UNL     1      45.357  11.987  -1.672  1.00  0.00     0.010 C 
HETATM   23  C19 UNL     1      46.872  12.141  -1.654  1.00  0.00     0.007 C 
HETATM   24  C32 UNL     1      43.129   9.204  -1.440  1.00  0.00    -0.023 C 
HETATM   25  C33 UNL     1      41.968   8.597  -2.163  1.00  0.00     0.036 C 
BRANCH  10  26
HETATM   26  C10 UNL     1      41.765   9.349  -6.553  1.00  0.00     0.173 C 
BRANCH  26  27
HETATM   27  O2  UNL     1      42.900   8.596  -6.881  1.00  0.00    -0.400 OA
ATOM     28  H2  UNL     1      42.743   7.677  -6.699  1.00  0.00     0.209 HD
ENDBRANCH  26  27
ENDBRANCH  10  26
BRANCH  21  29
HETATM   29  C21 UNL     1      47.797  10.563  -0.038  1.00  0.00     0.009 C 
HETATM   30  C22 UNL     1      49.243  10.440   0.299  1.00  0.00     0.014 C 
BRANCH  29  31
HETATM   31  C23 UNL     1      47.302  11.807   0.661  1.00  0.00    -0.017 C 
HETATM   32  C24 UNL     1      46.785  11.780   1.856  1.00  0.00     0.071 C 
BRANCH  32  33
HETATM   33  C25 UNL     1      46.301  12.970   2.544  1.00  0.00     0.249 C 
HETATM   34  O3  UNL     1      46.808  13.270   3.647  1.00  0.00    -0.268 OA
HETATM   35  N1  UNL     1      45.282  13.751   1.959  1.00  0.00    -0.269 N 
HETATM   36  C26 UNL     1      44.772  14.934   2.598  1.00  0.00     0.367 C 
ATOM     37  H1  UNL     1      44.897  13.468   1.058  1.00  0.00     0.174 HD
HETATM   38  O4  UNL     1      43.867  15.605   2.048  1.00  0.00    -0.238 OA
BRANCH  36  39
HETATM   39  O5  UNL     1      45.246  15.362   3.808  1.00  0.00    -0.304 OA
BRANCH  39  40
HETATM   40  C27 UNL     1      45.347  16.689   4.252  1.00  0.00     0.180 C 
BRANCH  40  41
HETATM   41  C28 UNL     1      46.542  17.426   3.696  1.00  0.00     0.026 C 
BRANCH  41  42
HETATM   42  C29 UNL     1      47.600  17.444   4.785  1.00  0.00    -0.002 C 
HETATM   43  C30 UNL     1      48.801  16.592   4.421  1.00  0.00     0.005 C 
ENDBRANCH  41  42
ENDBRANCH  40  41
ENDBRANCH  39  40
ENDBRANCH  36  39
ENDBRANCH  32  33
ENDBRANCH  29  31
ENDBRANCH  21  29
ENDBRANCH   4   6
ENDBRANCH   3   4
TORSDOF 11
ENDMDL
MODEL 5
REMARK VINA RESULT: -6.881632360      3.786      5.924
REMARK  11 active torsions:
REMARK  status: ('A' for Active; 'I' for Inactive)
REMARK    1  A    between atoms: C3_3  and  C4_4 
REMARK    2  A    between atoms: C4_4  and  C5_6 
REMARK    3  A    between atoms: C8_10  and  C10_12 
REMARK    4  A    between atoms: C10_12  and  O2_13 
REMARK    5  A    between atoms: C20_24  and  C21_25 
REMARK    6  A    between atoms: C21_25  and  C23_27 
REMARK    7  A    between atoms: C24_28  and  C25_29 
REMARK       I    between atoms: C25_29  and  N1_31 
REMARK       I    between atoms: N1_31  and  C26_33 
REMARK    8  A    between atoms: C26_33  and  O5_35 
REMARK    9  A    between atoms: O5_35  and  C27_36 
REMARK   10  A    between atoms: C27_36  and  C28_37 
REMARK   11  A    between atoms: C28_37  and  C29_38 
ROOT
HETATM    1  C1  UNL     1      46.435   1.682   3.327  1.00  0.00     0.112 C 
HETATM    2  C2  UNL     1      47.467   2.610   2.847  1.00  0.00    -0.103 C 
HETATM    3  C3  UNL     1      48.300   3.388   2.452  1.00  0.00    -0.026 C 
ENDROOT
BRANCH   3   4
HETATM    4  C4  UNL     1      49.292   4.347   1.986  1.00  0.00     0.242 C 
HETATM    5  O1  UNL     1      50.244   4.567   2.728  1.00  0.00    -0.280 OA
BRANCH   4   6
HETATM    6  C5  UNL     1      49.019   4.944   0.654  1.00  0.00     0.180 C 
HETATM    7  F1  UNL     1      47.904   4.200   0.206  1.00  0.00    -0.233 F 
HETATM    8  C6  UNL     1      50.109   4.667  -0.345  1.00  0.00     0.054 C 
HETATM    9  C7  UNL     1      50.419   5.848  -1.212  1.00  0.00     0.015 C 
HETATM   10  C8  UNL     1      50.774   7.090  -0.403  1.00  0.00    -0.018 C 
HETATM   11  C9  UNL     1      51.254   8.089  -1.390  1.00  0.00     0.018 C 
HETATM   12  C11 UNL     1      49.631   7.425   0.468  1.00  0.00     0.012 C 
HETATM   13  C12 UNL     1      48.879   8.690   0.110  1.00  0.00     0.020 C 
HETATM   14  C34 UNL     1      48.609   6.358   0.644  1.00  0.00     0.043 C 
HETATM   15  C13 UNL     1      49.551   9.949   0.603  1.00  0.00     0.010 C 
HETATM   16  C31 UNL     1      47.499   8.741   0.658  1.00  0.00    -0.074 C 
HETATM   17  C14 UNL     1      48.732  11.145   0.284  1.00  0.00     0.011 C 
HETATM   18  C15 UNL     1      47.324  11.147   0.848  1.00  0.00    -0.032 C 
HETATM   19  C16 UNL     1      47.413  11.152   2.326  1.00  0.00     0.016 C 
HETATM   20  C17 UNL     1      46.667   9.905   0.259  1.00  0.00     0.023 C 
HETATM   21  C20 UNL     1      46.576  12.239   0.194  1.00  0.00     0.002 C 
HETATM   22  C18 UNL     1      46.643  10.227  -1.183  1.00  0.00     0.010 C 
HETATM   23  C19 UNL     1      46.546  11.745  -1.254  1.00  0.00     0.007 C 
HETATM   24  C32 UNL     1      46.950   7.868   1.482  1.00  0.00    -0.023 C 
HETATM   25  C33 UNL     1      47.804   6.714   1.902  1.00  0.00     0.036 C 
BRANCH  10  26
HETATM   26  C10 UNL     1      52.014   6.733   0.437  1.00  0.00     0.173 C 
BRANCH  26  27
HETATM   27  O2  UNL     1      51.788   7.056   1.782  1.00  0.00    -0.400 OA
ATOM     28  H2  UNL     1      51.837   6.270   2.315  1.00  0.00     0.209 HD
ENDBRANCH  26  27
ENDBRANCH  10  26
BRANCH  21  29
HETATM   29  C21 UNL     1      45.181  12.528   0.611  1.00  0.00     0.009 C 
HETATM   30  C22 UNL     1      44.985  13.417   1.791  1.00  0.00     0.014 C 
BRANCH  29  31
HETATM   31  C23 UNL     1      44.537  13.229  -0.561  1.00  0.00    -0.017 C 
HETATM   32  C24 UNL     1      44.392  14.523  -0.611  1.00  0.00     0.071 C 
BRANCH  32  33
HETATM   33  C25 UNL     1      43.772  15.215  -1.733  1.00  0.00     0.249 C 
HETATM   34  O3  UNL     1      44.429  15.350  -2.789  1.00  0.00    -0.268 OA
HETATM   35  N1  UNL     1      42.458  15.713  -1.608  1.00  0.00    -0.269 N 
HETATM   36  C26 UNL     1      41.802  16.402  -2.687  1.00  0.00     0.367 C 
ATOM     37  H1  UNL     1      41.959  15.580  -0.728  1.00  0.00     0.174 HD
HETATM   38  O4  UNL     1      40.633  16.829  -2.542  1.00  0.00    -0.238 OA
BRANCH  36  39
HETATM   39  O5  UNL     1      42.420  16.613  -3.890  1.00  0.00    -0.304 OA
BRANCH  39  40
HETATM   40  C27 UNL     1      42.475  17.816  -4.610  1.00  0.00     0.180 C 
BRANCH  40  41
HETATM   41  C28 UNL     1      43.094  18.958  -3.839  1.00  0.00     0.026 C 
BRANCH  41  42
HETATM   42  C29 UNL     1      44.591  18.710  -3.802  1.00  0.00    -0.002 C 
HETATM   43  C30 UNL     1      45.124  18.674  -2.383  1.00  0.00     0.005 C 
ENDBRANCH  41  42
ENDBRANCH  40  41
ENDBRANCH  39  40
ENDBRANCH  36  39
ENDBRANCH  32  33
ENDBRANCH  29  31
ENDBRANCH  21  29
ENDBRANCH   4   6
ENDBRANCH   3   4
TORSDOF 11
ENDMDL
