MODEL 1
REMARK VINA RESULT: -8.744870644      0.000      0.000
REMARK  11 active torsions:
REMARK  status: ('A' for Active; 'I' for Inactive)
REMARK    1  A    between atoms: C2_2  and  O1_3 
REMARK    2  A    between atoms: C2_2  and  C3_5 
REMARK    3  A    between atoms: C2_2  and  C15_26 
REMARK    4  A    between atoms: C4_6  and  C5_7 
REMARK    5  A    between atoms: C5_7  and  N1_8 
REMARK    6  A    between atoms: C9_12  and  C10_13 
REMARK    7  A    between atoms: C10_13  and  C11_14 
REMARK    8  A    between atoms: C11_14  and  C12_15 
REMARK    9  A    between atoms: C12_15  and  N2_16 
REMARK   10  A    between atoms: C15_26  and  C16_27 
REMARK   11  A    between atoms: C16_27  and  N6_28 
ROOT
HETATM    1  C5  UNL     1      18.466  -9.391  11.421  1.00  0.00     0.221 C 
ENDROOT
BRANCH   1   2
HETATM    2  C4  UNL     1      17.978 -10.770  11.318  1.00  0.00    -0.083 C 
HETATM    3  C3  UNL     1      17.561 -11.899  11.245  1.00  0.00    -0.067 C 
BRANCH   3   4
HETATM    4  C2  UNL     1      17.033 -13.267  11.173  1.00  0.00     0.119 C 
HETATM    5  C1  UNL     1      18.182 -14.198  11.461  1.00  0.00     0.060 C 
BRANCH   4   6
HETATM    6  O1  UNL     1      16.052 -13.422  12.158  1.00  0.00    -0.378 OA
ATOM      7  H1  UNL     1      15.553 -12.617  12.236  1.00  0.00     0.211 HD
ENDBRANCH   4   6
BRANCH   4   8
HETATM    8  C15 UNL     1      16.445 -13.450   9.816  1.00  0.00     0.071 C 
BRANCH   8   9
HETATM    9  C16 UNL     1      17.344 -14.194   8.863  1.00  0.00     0.134 C 
BRANCH   9  10
HETATM   10  N6  UNL     1      16.630 -15.334   8.321  1.00  0.00    -0.341 N 
HETATM   11  C17 UNL     1      15.570 -15.226   7.484  1.00  0.00     0.183 A 
HETATM   12  N7  UNL     1      15.172 -16.477   7.194  1.00  0.00    -0.350 N 
HETATM   13  C18 UNL     1      15.936 -17.385   7.813  1.00  0.00     0.060 A 
ATOM     14  H7  UNL     1      14.389 -16.705   6.580  1.00  0.00     0.166 HD
HETATM   15  C19 UNL     1      15.994 -18.756   7.884  1.00  0.00     0.032 A 
HETATM   16  C23 UNL     1      16.868 -16.657   8.534  1.00  0.00     0.062 A 
HETATM   17  C20 UNL     1      16.946 -19.412   8.646  1.00  0.00     0.002 A 
HETATM   18  C21 UNL     1      17.858 -18.647   9.352  1.00  0.00     0.002 A 
HETATM   19  C22 UNL     1      17.831 -17.275   9.305  1.00  0.00     0.032 A 
ENDBRANCH   9  10
ENDBRANCH   8   9
ENDBRANCH   4   8
ENDBRANCH   3   4
ENDBRANCH   1   2
BRANCH   1  20
HETATM   20  N1  UNL     1      17.549  -8.524  12.102  1.00  0.00    -0.355 N 
HETATM   21  C6  UNL     1      16.730  -9.011  13.041  1.00  0.00     0.091 A 
HETATM   22  C7  UNL     1      15.841  -8.202  13.711  1.00  0.00     0.018 A 
HETATM   23  C8  UNL     1      15.800  -6.857  13.398  1.00  0.00     0.014 A 
HETATM   24  C9  UNL     1      16.624  -6.343  12.445  1.00  0.00    -0.021 A 
HETATM   25  C14 UNL     1      17.490  -7.230  11.820  1.00  0.00     0.102 A 
BRANCH  24  26
HETATM   26  C10 UNL     1      16.577  -4.966  12.037  1.00  0.00     0.010 C 
BRANCH  26  27
HETATM   27  C11 UNL     1      16.971  -4.314  11.010  1.00  0.00    -0.003 C 
BRANCH  27  28
HETATM   28  C12 UNL     1      16.241  -3.680   9.928  1.00  0.00     0.198 C 
BRANCH  28  29
HETATM   29  N2  UNL     1      16.934  -3.683   8.665  1.00  0.00    -0.212 N 
HETATM   30  N3  UNL     1      18.251  -3.698   8.551  1.00  0.00    -0.232 N 
HETATM   31  C13 UNL     1      18.519  -3.698   7.241  1.00  0.00     0.355 A 
ATOM     32  H3  UNL     1      18.930  -3.706   9.312  1.00  0.00     0.193 HD
HETATM   33  O2  UNL     1      19.661  -3.711   6.685  1.00  0.00    -0.244 OA
HETATM   34  N4  UNL     1      17.378  -3.686   6.555  1.00  0.00    -0.234 N 
HETATM   35  N5  UNL     1      16.414  -3.676   7.458  1.00  0.00    -0.222 N 
ATOM     36  H4  UNL     1      17.271  -3.684   5.541  1.00  0.00     0.193 HD
ATOM     37  H5  UNL     1      15.415  -3.664   7.250  1.00  0.00     0.210 HD
ENDBRANCH  28  29
ENDBRANCH  27  28
ENDBRANCH  26  27
ENDBRANCH  24  26
ENDBRANCH   1  20
TORSDOF 11
ENDMDL
MODEL 2
REMARK VINA RESULT: -8.692683623      2.097      3.306
REMARK  11 active torsions:
REMARK  status: ('A' for Active; 'I' for Inactive)
REMARK    1  A    between atoms: C2_2  and  O1_3 
REMARK    2  A    between atoms: C2_2  and  C3_5 
REMARK    3  A    between atoms: C2_2  and  C15_26 
REMARK    4  A    between atoms: C4_6  and  C5_7 
REMARK    5  A    between atoms: C5_7  and  N1_8 
REMARK    6  A    between atoms: C9_12  and  C10_13 
REMARK    7  A    between atoms: C10_13  and  C11_14 
REMARK    8  A    between atoms: C11_14  and  C12_15 
REMARK    9  A    between atoms: C12_15  and  N2_16 
REMARK   10  A    between atoms: C15_26  and  C16_27 
REMARK   11  A    between atoms: C16_27  and  N6_28 
ROOT
HETATM    1  C5  UNL     1      15.512  -8.690  14.032  1.00  0.00     0.221 C 
ENDROOT
BRANCH   1   2
HETATM    2  C4  UNL     1      15.837 -10.117  14.118  1.00  0.00    -0.083 C 
HETATM    3  C3  UNL     1      16.084 -11.295  14.194  1.00  0.00    -0.067 C 
BRANCH   3   4
HETATM    4  C2  UNL     1      16.363 -12.733  14.299  1.00  0.00     0.119 C 
HETATM    5  C1  UNL     1      16.121 -13.126  15.732  1.00  0.00     0.060 C 
BRANCH   4   6
HETATM    6  O1  UNL     1      15.471 -13.424  13.471  1.00  0.00    -0.378 OA
ATOM      7  H1  UNL     1      15.915 -13.675  12.669  1.00  0.00     0.211 HD
ENDBRANCH   4   6
BRANCH   4   8
HETATM    8  C15 UNL     1      17.767 -12.951  13.850  1.00  0.00     0.071 C 
BRANCH   8   9
HETATM    9  C16 UNL     1      18.129 -12.186  12.604  1.00  0.00     0.134 C 
BRANCH   9  10
HETATM   10  N6  UNL     1      18.525 -13.119  11.567  1.00  0.00    -0.341 N 
HETATM   11  C17 UNL     1      19.749 -13.697  11.505  1.00  0.00     0.183 A 
HETATM   12  N7  UNL     1      19.752 -14.492  10.422  1.00  0.00    -0.350 N 
HETATM   13  C18 UNL     1      18.576 -14.446   9.784  1.00  0.00     0.060 A 
ATOM     14  H7  UNL     1      20.547 -15.058  10.123  1.00  0.00     0.166 HD
HETATM   15  C19 UNL     1      18.026 -15.026   8.665  1.00  0.00     0.032 A 
HETATM   16  C23 UNL     1      17.791 -13.570  10.514  1.00  0.00     0.062 A 
HETATM   17  C20 UNL     1      16.730 -14.756   8.261  1.00  0.00     0.002 A 
HETATM   18  C21 UNL     1      15.979 -13.874   9.018  1.00  0.00     0.002 A 
HETATM   19  C22 UNL     1      16.495 -13.276  10.141  1.00  0.00     0.032 A 
ENDBRANCH   9  10
ENDBRANCH   8   9
ENDBRANCH   4   8
ENDBRANCH   3   4
ENDBRANCH   1   2
BRANCH   1  20
HETATM   20  N1  UNL     1      16.358  -7.979  13.120  1.00  0.00    -0.355 N 
HETATM   21  C6  UNL     1      17.350  -8.613  12.483  1.00  0.00     0.091 A 
HETATM   22  C7  UNL     1      18.177  -7.956  11.602  1.00  0.00     0.018 A 
HETATM   23  C8  UNL     1      17.971  -6.609  11.375  1.00  0.00     0.014 A 
HETATM   24  C9  UNL     1      16.969  -5.946  12.014  1.00  0.00    -0.021 A 
HETATM   25  C14 UNL     1      16.182  -6.686  12.884  1.00  0.00     0.102 A 
BRANCH  24  26
HETATM   26  C10 UNL     1      16.753  -4.533  11.862  1.00  0.00     0.010 C 
BRANCH  26  27
HETATM   27  C11 UNL     1      16.792  -3.714  10.881  1.00  0.00    -0.003 C 
BRANCH  27  28
HETATM   28  C12 UNL     1      16.040  -3.656   9.640  1.00  0.00     0.198 C 
BRANCH  28  29
HETATM   29  N2  UNL     1      16.856  -3.669   8.454  1.00  0.00    -0.212 N 
HETATM   30  N3  UNL     1      18.178  -3.703   8.471  1.00  0.00    -0.232 N 
HETATM   31  C13 UNL     1      18.576  -3.708   7.195  1.00  0.00     0.355 A 
ATOM     32  H3  UNL     1      18.777  -3.722   9.297  1.00  0.00     0.193 HD
HETATM   33  O2  UNL     1      19.768  -3.737   6.756  1.00  0.00    -0.244 OA
HETATM   34  N4  UNL     1      17.510  -3.678   6.398  1.00  0.00    -0.234 N 
HETATM   35  N5  UNL     1      16.460  -3.654   7.200  1.00  0.00    -0.222 N 
ATOM     36  H4  UNL     1      17.505  -3.675   5.378  1.00  0.00     0.193 HD
ATOM     37  H5  UNL     1      15.488  -3.627   6.893  1.00  0.00     0.210 HD
ENDBRANCH  28  29
ENDBRANCH  27  28
ENDBRANCH  26  27
ENDBRANCH  24  26
ENDBRANCH   1  20
TORSDOF 11
ENDMDL
MODEL 3
REMARK VINA RESULT: -8.454196591      1.045      1.661
REMARK  11 active torsions:
REMARK  status: ('A' for Active; 'I' for Inactive)
REMARK    1  A    between atoms: C2_2  and  O1_3 
REMARK    2  A    between atoms: C2_2  and  C3_5 
REMARK    3  A    between atoms: C2_2  and  C15_26 
REMARK    4  A    between atoms: C4_6  and  C5_7 
REMARK    5  A    between atoms: C5_7  and  N1_8 
REMARK    6  A    between atoms: C9_12  and  C10_13 
REMARK    7  A    between atoms: C10_13  and  C11_14 
REMARK    8  A    between atoms: C11_14  and  C12_15 
REMARK    9  A    between atoms: C12_15  and  N2_16 
REMARK   10  A    between atoms: C15_26  and  C16_27 
REMARK   11  A    between atoms: C16_27  and  N6_28 
ROOT
HETATM    1  C5  UNL     1      18.599  -9.060  11.362  1.00  0.00     0.221 C 
ENDROOT
BRANCH   1   2
HETATM    2  C4  UNL     1      18.090 -10.417  11.134  1.00  0.00    -0.083 C 
HETATM    3  C3  UNL     1      17.684 -11.539  10.962  1.00  0.00    -0.067 C 
BRANCH   3   4
HETATM    4  C2  UNL     1      17.206 -12.914  10.769  1.00  0.00     0.119 C 
HETATM    5  C1  UNL     1      16.503 -13.319  12.038  1.00  0.00     0.060 C 
BRANCH   4   6
HETATM    6  O1  UNL     1      16.292 -12.927   9.709  1.00  0.00    -0.378 OA
ATOM      7  H1  UNL     1      16.034 -12.036   9.505  1.00  0.00     0.211 HD
ENDBRANCH   4   6
BRANCH   4   8
HETATM    8  C15 UNL     1      18.390 -13.760  10.449  1.00  0.00     0.071 C 
BRANCH   8   9
HETATM    9  C16 UNL     1      18.432 -14.223   9.016  1.00  0.00     0.134 C 
BRANCH   9  10
HETATM   10  N6  UNL     1      18.377 -15.671   8.978  1.00  0.00    -0.341 N 
HETATM   11  C17 UNL     1      19.353 -16.472   9.472  1.00  0.00     0.183 A 
HETATM   12  N7  UNL     1      18.961 -17.740   9.262  1.00  0.00    -0.350 N 
HETATM   13  C18 UNL     1      17.770 -17.785   8.652  1.00  0.00     0.060 A 
ATOM     14  H7  UNL     1      19.500 -18.563   9.533  1.00  0.00     0.166 HD
HETATM   15  C19 UNL     1      16.915 -18.765   8.207  1.00  0.00     0.032 A 
HETATM   16  C23 UNL     1      17.395 -16.465   8.469  1.00  0.00     0.062 A 
HETATM   17  C20 UNL     1      15.711 -18.465   7.592  1.00  0.00     0.002 A 
HETATM   18  C21 UNL     1      15.375 -17.133   7.429  1.00  0.00     0.002 A 
HETATM   19  C22 UNL     1      16.204 -16.126   7.860  1.00  0.00     0.032 A 
ENDBRANCH   9  10
ENDBRANCH   8   9
ENDBRANCH   4   8
ENDBRANCH   3   4
ENDBRANCH   1   2
BRANCH   1  20
HETATM   20  N1  UNL     1      17.654  -8.216  12.032  1.00  0.00    -0.355 N 
HETATM   21  C6  UNL     1      16.810  -8.729  12.935  1.00  0.00     0.091 A 
HETATM   22  C7  UNL     1      15.894  -7.941  13.593  1.00  0.00     0.018 A 
HETATM   23  C8  UNL     1      15.851  -6.590  13.308  1.00  0.00     0.014 A 
HETATM   24  C9  UNL     1      16.700  -6.050  12.392  1.00  0.00    -0.021 A 
HETATM   25  C14 UNL     1      17.592  -6.916  11.777  1.00  0.00     0.102 A 
BRANCH  24  26
HETATM   26  C10 UNL     1      16.654  -4.665  12.013  1.00  0.00     0.010 C 
BRANCH  26  27
HETATM   27  C11 UNL     1      16.971  -4.005  10.965  1.00  0.00    -0.003 C 
BRANCH  27  28
HETATM   28  C12 UNL     1      16.199  -3.613   9.799  1.00  0.00     0.198 C 
BRANCH  28  29
HETATM   29  N2  UNL     1      16.934  -3.657   8.561  1.00  0.00    -0.212 N 
HETATM   30  N3  UNL     1      18.251  -3.741   8.492  1.00  0.00    -0.232 N 
HETATM   31  C13 UNL     1      18.564  -3.761   7.192  1.00  0.00     0.355 A 
ATOM     32  H3  UNL     1      18.902  -3.783   9.277  1.00  0.00     0.193 HD
HETATM   33  O2  UNL     1      19.722  -3.835   6.676  1.00  0.00    -0.244 OA
HETATM   34  N4  UNL     1      17.450  -3.690   6.467  1.00  0.00    -0.234 N 
HETATM   35  N5  UNL     1      16.456  -3.626   7.337  1.00  0.00    -0.222 N 
ATOM     36  H4  UNL     1      17.377  -3.686   5.450  1.00  0.00     0.193 HD
ATOM     37  H5  UNL     1      15.468  -3.562   7.094  1.00  0.00     0.210 HD
ENDBRANCH  28  29
ENDBRANCH  27  28
ENDBRANCH  26  27
ENDBRANCH  24  26
ENDBRANCH   1  20
TORSDOF 11
ENDMDL
MODEL 4
REMARK VINA RESULT: -8.298872137      1.481      2.480
REMARK  11 active torsions:
REMARK  status: ('A' for Active; 'I' for Inactive)
REMARK    1  A    between atoms: C2_2  and  O1_3 
REMARK    2  A    between atoms: C2_2  and  C3_5 
REMARK    3  A    between atoms: C2_2  and  C15_26 
REMARK    4  A    between atoms: C4_6  and  C5_7 
REMARK    5  A    between atoms: C5_7  and  N1_8 
REMARK    6  A    between atoms: C9_12  and  C10_13 
REMARK    7  A    between atoms: C10_13  and  C11_14 
REMARK    8  A    between atoms: C11_14  and  C12_15 
REMARK    9  A    between atoms: C12_15  and  N2_16 
REMARK   10  A    between atoms: C15_26  and  C16_27 
REMARK   11  A    between atoms: C16_27  and  N6_28 
ROOT
HETATM    1  C5  UNL     1      15.613  -8.873  14.317  1.00  0.00     0.221 C 
ENDROOT
BRANCH   1   2
HETATM    2  C4  UNL     1      16.448  -9.712  13.452  1.00  0.00    -0.083 C 
HETATM    3  C3  UNL     1      17.144 -10.411  12.758  1.00  0.00    -0.067 C 
BRANCH   3   4
HETATM    4  C2  UNL     1      18.003 -11.270  11.933  1.00  0.00     0.119 C 
HETATM    5  C1  UNL     1      18.588 -10.401  10.851  1.00  0.00     0.060 C 
BRANCH   4   6
HETATM    6  O1  UNL     1      19.036 -11.771  12.733  1.00  0.00    -0.378 OA
ATOM      7  H1  UNL     1      18.879 -11.529  13.639  1.00  0.00     0.211 HD
ENDBRANCH   4   6
BRANCH   4   8
HETATM    8  C15 UNL     1      17.159 -12.382  11.413  1.00  0.00     0.071 C 
BRANCH   8   9
HETATM    9  C16 UNL     1      17.682 -12.992  10.138  1.00  0.00     0.134 C 
BRANCH   9  10
HETATM   10  N6  UNL     1      17.645 -14.437  10.248  1.00  0.00    -0.341 N 
HETATM   11  C17 UNL     1      18.222 -15.128  11.261  1.00  0.00     0.183 A 
HETATM   12  N7  UNL     1      17.985 -16.431  11.031  1.00  0.00    -0.350 N 
HETATM   13  C18 UNL     1      17.278 -16.603   9.907  1.00  0.00     0.060 A 
ATOM     14  H7  UNL     1      18.302 -17.190  11.634  1.00  0.00     0.166 HD
HETATM   15  C19 UNL     1      16.767 -17.669   9.207  1.00  0.00     0.032 A 
HETATM   16  C23 UNL     1      17.059 -15.332   9.406  1.00  0.00     0.062 A 
HETATM   17  C20 UNL     1      16.052 -17.501   8.032  1.00  0.00     0.002 A 
HETATM   18  C21 UNL     1      15.856 -16.213   7.565  1.00  0.00     0.002 A 
HETATM   19  C22 UNL     1      16.352 -15.124   8.239  1.00  0.00     0.032 A 
ENDBRANCH   9  10
ENDBRANCH   8   9
ENDBRANCH   4   8
ENDBRANCH   3   4
ENDBRANCH   1   2
BRANCH   1  20
HETATM   20  N1  UNL     1      15.904  -7.475  14.188  1.00  0.00    -0.355 N 
HETATM   21  C6  UNL     1      15.795  -6.661  15.245  1.00  0.00     0.091 A 
HETATM   22  C7  UNL     1      16.069  -5.316  15.149  1.00  0.00     0.018 A 
HETATM   23  C8  UNL     1      16.464  -4.803  13.929  1.00  0.00     0.014 A 
HETATM   24  C9  UNL     1      16.579  -5.614  12.842  1.00  0.00    -0.021 A 
HETATM   25  C14 UNL     1      16.285  -6.957  13.029  1.00  0.00     0.102 A 
BRANCH  24  26
HETATM   26  C10 UNL     1      16.924  -5.120  11.538  1.00  0.00     0.010 C 
BRANCH  26  27
HETATM   27  C11 UNL     1      16.800  -4.000  10.935  1.00  0.00    -0.003 C 
BRANCH  27  28
HETATM   28  C12 UNL     1      16.065  -3.620   9.741  1.00  0.00     0.198 C 
BRANCH  28  29
HETATM   29  N2  UNL     1      16.847  -3.648   8.532  1.00  0.00    -0.212 N 
HETATM   30  N3  UNL     1      18.167  -3.715   8.512  1.00  0.00    -0.232 N 
HETATM   31  C13 UNL     1      18.528  -3.723   7.226  1.00  0.00     0.355 A 
ATOM     32  H3  UNL     1      18.788  -3.752   9.321  1.00  0.00     0.193 HD
HETATM   33  O2  UNL     1      19.707  -3.780   6.753  1.00  0.00    -0.244 OA
HETATM   34  N4  UNL     1      17.442  -3.663   6.459  1.00  0.00    -0.234 N 
HETATM   35  N5  UNL     1      16.416  -3.616   7.291  1.00  0.00    -0.222 N 
ATOM     36  H4  UNL     1      17.408  -3.655   5.440  1.00  0.00     0.193 HD
ATOM     37  H5  UNL     1      15.436  -3.564   7.011  1.00  0.00     0.210 HD
ENDBRANCH  28  29
ENDBRANCH  27  28
ENDBRANCH  26  27
ENDBRANCH  24  26
ENDBRANCH   1  20
TORSDOF 11
ENDMDL
MODEL 5
REMARK VINA RESULT: -8.284744113      2.435      3.639
REMARK  11 active torsions:
REMARK  status: ('A' for Active; 'I' for Inactive)
REMARK    1  A    between atoms: C2_2  and  O1_3 
REMARK    2  A    between atoms: C2_2  and  C3_5 
REMARK    3  A    between atoms: C2_2  and  C15_26 
REMARK    4  A    between atoms: C4_6  and  C5_7 
REMARK    5  A    between atoms: C5_7  and  N1_8 
REMARK    6  A    between atoms: C9_12  and  C10_13 
REMARK    7  A    between atoms: C10_13  and  C11_14 
REMARK    8  A    between atoms: C11_14  and  C12_15 
REMARK    9  A    between atoms: C12_15  and  N2_16 
REMARK   10  A    between atoms: C15_26  and  C16_27 
REMARK   11  A    between atoms: C16_27  and  N6_28 
ROOT
HETATM    1  C5  UNL     1      16.337  -8.928  13.389  1.00  0.00     0.221 C 
ENDROOT
BRANCH   1   2
HETATM    2  C4  UNL     1      17.676  -9.526  13.393  1.00  0.00    -0.083 C 
HETATM    3  C3  UNL     1      18.771 -10.031  13.381  1.00  0.00    -0.067 C 
BRANCH   3   4
HETATM    4  C2  UNL     1      20.095 -10.665  13.351  1.00  0.00     0.119 C 
HETATM    5  C1  UNL     1      21.086  -9.599  12.962  1.00  0.00     0.060 C 
BRANCH   4   6
HETATM    6  O1  UNL     1      20.398 -11.133  14.635  1.00  0.00    -0.378 OA
ATOM      7  H1  UNL     1      19.764 -11.794  14.886  1.00  0.00     0.211 HD
ENDBRANCH   4   6
BRANCH   4   8
HETATM    8  C15 UNL     1      20.029 -11.797  12.384  1.00  0.00     0.071 C 
BRANCH   8   9
HETATM    9  C16 UNL     1      19.812 -11.362  10.958  1.00  0.00     0.134 C 
BRANCH   9  10
HETATM   10  N6  UNL     1      19.574 -12.529  10.131  1.00  0.00    -0.341 N 
HETATM   11  C17 UNL     1      20.564 -13.260   9.564  1.00  0.00     0.183 A 
HETATM   12  N7  UNL     1      19.973 -14.253   8.877  1.00  0.00    -0.350 N 
HETATM   13  C18 UNL     1      18.640 -14.186   8.981  1.00  0.00     0.060 A 
ATOM     14  H7  UNL     1      20.474 -14.964   8.345  1.00  0.00     0.166 HD
HETATM   15  C19 UNL     1      17.567 -14.906   8.511  1.00  0.00     0.032 A 
HETATM   16  C23 UNL     1      18.383 -13.086   9.782  1.00  0.00     0.062 A 
HETATM   17  C20 UNL     1      16.261 -14.560   8.814  1.00  0.00     0.002 A 
HETATM   18  C21 UNL     1      16.049 -13.453   9.617  1.00  0.00     0.002 A 
HETATM   19  C22 UNL     1      17.095 -12.710  10.106  1.00  0.00     0.032 A 
ENDBRANCH   9  10
ENDBRANCH   8   9
ENDBRANCH   4   8
ENDBRANCH   3   4
ENDBRANCH   1   2
BRANCH   1  20
HETATM   20  N1  UNL     1      16.367  -7.495  13.415  1.00  0.00    -0.355 N 
HETATM   21  C6  UNL     1      16.206  -6.836  14.568  1.00  0.00     0.091 A 
HETATM   22  C7  UNL     1      16.231  -5.461  14.622  1.00  0.00     0.018 A 
HETATM   23  C8  UNL     1      16.426  -4.753  13.452  1.00  0.00     0.014 A 
HETATM   24  C9  UNL     1      16.590  -5.405  12.269  1.00  0.00    -0.021 A 
HETATM   25  C14 UNL     1      16.552  -6.792  12.306  1.00  0.00     0.102 A 
BRANCH  24  26
HETATM   26  C10 UNL     1      16.731  -4.716  11.016  1.00  0.00     0.010 C 
BRANCH  26  27
HETATM   27  C11 UNL     1      17.484  -3.777  10.582  1.00  0.00    -0.003 C 
BRANCH  27  28
HETATM   28  C12 UNL     1      18.767  -3.802   9.903  1.00  0.00     0.198 C 
BRANCH  28  29
HETATM   29  N2  UNL     1      18.682  -3.662   8.472  1.00  0.00    -0.212 N 
HETATM   30  N3  UNL     1      17.541  -3.624   7.804  1.00  0.00    -0.232 N 
HETATM   31  C13 UNL     1      17.860  -3.484   6.514  1.00  0.00     0.355 A 
ATOM     32  H3  UNL     1      16.602  -3.688   8.197  1.00  0.00     0.193 HD
HETATM   33  O2  UNL     1      17.066  -3.404   5.525  1.00  0.00    -0.244 OA
HETATM   34  N4  UNL     1      19.184  -3.436   6.387  1.00  0.00    -0.234 N 
HETATM   35  N5  UNL     1      19.668  -3.549   7.611  1.00  0.00    -0.222 N 
ATOM     36  H4  UNL     1      19.715  -3.333   5.522  1.00  0.00     0.193 HD
ATOM     37  H5  UNL     1      20.660  -3.548   7.852  1.00  0.00     0.210 HD
ENDBRANCH  28  29
ENDBRANCH  27  28
ENDBRANCH  26  27
ENDBRANCH  24  26
ENDBRANCH   1  20
TORSDOF 11
ENDMDL
