MODEL 1
REMARK VINA RESULT: -7.644865067      0.000      0.000
REMARK  10 active torsions:
REMARK  status: ('A' for Active; 'I' for Inactive)
REMARK    1  A    between atoms: C3_6  and  N3_7 
REMARK    2  A    between atoms: N3_7  and  C4_8 
REMARK    3  A    between atoms: C4_8  and  C5_9 
REMARK    4  A    between atoms: C5_9  and  N4_10 
REMARK    5  A    between atoms: N4_10  and  C6_12 
REMARK    6  A    between atoms: C11_19  and  C12_20 
REMARK    7  A    between atoms: C12_20  and  C13_21 
REMARK    8  A    between atoms: C13_21  and  C14_22 
REMARK    9  A    between atoms: C14_22  and  C15_23 
REMARK   10  A    between atoms: C15_23  and  N6_24 
ROOT
HETATM    1  C1  UNL     1      18.670 -11.124  12.081  1.00  0.00     0.156 C 
HETATM    2  N1  UNL     1      18.168  -9.770  12.078  1.00  0.00    -0.357 N 
HETATM    3  C2  UNL     1      18.851  -8.750  11.523  1.00  0.00     0.184 A 
HETATM    4  N2  UNL     1      18.380  -7.504  11.526  1.00  0.00    -0.327 N 
ATOM      5  H2  UNL     1      18.940  -6.770  11.092  1.00  0.00     0.169 HD
HETATM    6  C3  UNL     1      17.169  -7.162  12.088  1.00  0.00     0.186 A 
HETATM    7  C11 UNL     1      16.453  -8.226  12.668  1.00  0.00     0.016 A 
HETATM    8  C23 UNL     1      16.989  -9.482  12.636  1.00  0.00     0.103 A 
ENDROOT
BRANCH   7   9
HETATM    9  C12 UNL     1      15.123  -7.984  13.298  1.00  0.00     0.045 C 
BRANCH   9  10
HETATM   10  C13 UNL     1      14.918  -8.814  14.531  1.00  0.00     0.006 C 
BRANCH  10  11
HETATM   11  C14 UNL     1      14.868  -8.046  15.805  1.00  0.00     0.021 C 
BRANCH  11  12
HETATM   12  C15 UNL     1      15.870  -6.965  15.984  1.00  0.00     0.128 C 
BRANCH  12  13
HETATM   13  N6  UNL     1      15.321  -5.688  16.385  1.00  0.00    -0.362 N 
HETATM   14  C16 UNL     1      15.617  -4.559  15.668  1.00  0.00     0.119 A 
HETATM   15  C17 UNL     1      15.093  -3.343  16.034  1.00  0.00     0.090 A 
HETATM   16  N7  UNL     1      15.409  -2.177  15.278  1.00  0.00    -0.099 NA
HETATM   17  C18 UNL     1      14.261  -3.211  17.124  1.00  0.00     0.087 A 
HETATM   18  N8  UNL     1      13.600  -2.205  17.735  1.00  0.00    -0.349 N 
HETATM   19  C21 UNL     1      13.958  -4.343  17.851  1.00  0.00     0.079 A 
HETATM   20  C19 UNL     1      12.905  -2.665  18.807  1.00  0.00     0.183 A 
ATOM     21  H8  UNL     1      13.619  -1.231  17.433  1.00  0.00     0.167 HD
HETATM   22  N9  UNL     1      13.142  -3.982  18.855  1.00  0.00    -0.344 N 
HETATM   23  C20 UNL     1      12.603  -4.885  19.839  1.00  0.00     0.157 C 
HETATM   24  C22 UNL     1      14.514  -5.548  17.438  1.00  0.00     0.122 A 
ENDBRANCH  12  13
ENDBRANCH  11  12
ENDBRANCH  10  11
ENDBRANCH   9  10
ENDBRANCH   7   9
BRANCH   6  25
HETATM   25  N3  UNL     1      16.772  -6.023  12.083  1.00  0.00    -0.402 NA
BRANCH  25  26
HETATM   26  C4  UNL     1      16.318  -4.786  12.070  1.00  0.00     0.177 C 
BRANCH  26  27
HETATM   27  C5  UNL     1      17.034  -3.788  11.142  1.00  0.00     0.180 C 
BRANCH  27  28
HETATM   28  N4  UNL     1      16.462  -3.820   9.825  1.00  0.00    -0.371 N 
ATOM     29  H4  UNL     1      15.451  -3.860   9.699  1.00  0.00     0.161 HD
BRANCH  28  30
HETATM   30  C6  UNL     1      17.250  -3.797   8.804  1.00  0.00     0.101 A 
HETATM   31  C7  UNL     1      18.613  -3.971   8.928  1.00  0.00     0.048 A 
HETATM   32  C8  UNL     1      19.358  -3.926   7.768  1.00  0.00     0.005 A 
HETATM   33  C9  UNL     1      18.790  -3.716   6.522  1.00  0.00     0.017 A 
HETATM   34  C10 UNL     1      17.426  -3.550   6.471  1.00  0.00     0.089 A 
HETATM   35  N5  UNL     1      16.700  -3.594   7.598  1.00  0.00    -0.353 N 
ATOM     36  H5  UNL     1      15.690  -3.470   7.536  1.00  0.00     0.166 HD
ENDBRANCH  28  30
ENDBRANCH  27  28
ENDBRANCH  26  27
ENDBRANCH  25  26
ENDBRANCH   6  25
TORSDOF 10
ENDMDL
MODEL 2
REMARK VINA RESULT: -7.307654172      2.549      8.221
REMARK  10 active torsions:
REMARK  status: ('A' for Active; 'I' for Inactive)
REMARK    1  A    between atoms: C3_6  and  N3_7 
REMARK    2  A    between atoms: N3_7  and  C4_8 
REMARK    3  A    between atoms: C4_8  and  C5_9 
REMARK    4  A    between atoms: C5_9  and  N4_10 
REMARK    5  A    between atoms: N4_10  and  C6_12 
REMARK    6  A    between atoms: C11_19  and  C12_20 
REMARK    7  A    between atoms: C12_20  and  C13_21 
REMARK    8  A    between atoms: C13_21  and  C14_22 
REMARK    9  A    between atoms: C14_22  and  C15_23 
REMARK   10  A    between atoms: C15_23  and  N6_24 
ROOT
HETATM    1  C1  UNL     1      15.055  -7.461  17.021  1.00  0.00     0.156 C 
HETATM    2  N1  UNL     1      15.459  -6.634  15.908  1.00  0.00    -0.357 N 
HETATM    3  C2  UNL     1      15.476  -5.289  15.980  1.00  0.00     0.184 A 
HETATM    4  N2  UNL     1      15.850  -4.534  14.947  1.00  0.00    -0.327 N 
ATOM      5  H2  UNL     1      15.842  -3.520  15.057  1.00  0.00     0.169 HD
HETATM    6  C3  UNL     1      16.246  -5.062  13.739  1.00  0.00     0.186 A 
HETATM    7  C11 UNL     1      16.231  -6.468  13.661  1.00  0.00     0.016 A 
HETATM    8  C23 UNL     1      15.836  -7.188  14.753  1.00  0.00     0.103 A 
ENDROOT
BRANCH   7   9
HETATM    9  C12 UNL     1      16.650  -7.158  12.408  1.00  0.00     0.045 C 
BRANCH   9  10
HETATM   10  C13 UNL     1      17.951  -7.889  12.567  1.00  0.00     0.006 C 
BRANCH  10  11
HETATM   11  C14 UNL     1      17.987  -9.248  11.962  1.00  0.00     0.021 C 
BRANCH  11  12
HETATM   12  C15 UNL     1      19.298  -9.944  11.933  1.00  0.00     0.128 C 
BRANCH  12  13
HETATM   13  N6  UNL     1      19.354 -11.099  11.064  1.00  0.00    -0.362 N 
HETATM   14  C16 UNL     1      20.559 -11.533  10.578  1.00  0.00     0.119 A 
HETATM   15  C17 UNL     1      20.624 -12.635   9.760  1.00  0.00     0.090 A 
HETATM   16  N7  UNL     1      21.884 -13.076   9.263  1.00  0.00    -0.099 NA
HETATM   17  C18 UNL     1      19.496 -13.337   9.398  1.00  0.00     0.087 A 
HETATM   18  N8  UNL     1      19.216 -14.419   8.641  1.00  0.00    -0.349 N 
HETATM   19  C21 UNL     1      18.279 -12.905   9.883  1.00  0.00     0.079 A 
HETATM   20  C19 UNL     1      17.882 -14.673   8.636  1.00  0.00     0.183 A 
ATOM     21  H8  UNL     1      19.912 -14.972   8.140  1.00  0.00     0.167 HD
HETATM   22  N9  UNL     1      17.330 -13.729   9.407  1.00  0.00    -0.344 N 
HETATM   23  C20 UNL     1      15.922 -13.608   9.688  1.00  0.00     0.157 C 
HETATM   24  C22 UNL     1      18.268 -11.786  10.707  1.00  0.00     0.122 A 
ENDBRANCH  12  13
ENDBRANCH  11  12
ENDBRANCH  10  11
ENDBRANCH   9  10
ENDBRANCH   7   9
BRANCH   6  25
HETATM   25  N3  UNL     1      16.571  -4.354  12.818  1.00  0.00    -0.402 NA
BRANCH  25  26
HETATM   26  C4  UNL     1      16.907  -3.568  11.814  1.00  0.00     0.177 C 
BRANCH  26  27
HETATM   27  C5  UNL     1      16.232  -3.840  10.458  1.00  0.00     0.180 C 
BRANCH  27  28
HETATM   28  N4  UNL     1      16.641  -2.867   9.483  1.00  0.00    -0.371 N 
ATOM     29  H4  UNL     1      16.287  -1.911   9.524  1.00  0.00     0.161 HD
BRANCH  28  30
HETATM   30  C6  UNL     1      17.463  -3.224   8.556  1.00  0.00     0.101 A 
HETATM   31  C7  UNL     1      18.747  -3.640   8.838  1.00  0.00     0.048 A 
HETATM   32  C8  UNL     1      19.540  -3.997   7.766  1.00  0.00     0.005 A 
HETATM   33  C9  UNL     1      19.091  -3.949   6.456  1.00  0.00     0.017 A 
HETATM   34  C10 UNL     1      17.800  -3.525   6.246  1.00  0.00     0.089 A 
HETATM   35  N5  UNL     1      17.028  -3.178   7.288  1.00  0.00    -0.353 N 
ATOM     36  H5  UNL     1      16.074  -2.867   7.109  1.00  0.00     0.166 HD
ENDBRANCH  28  30
ENDBRANCH  27  28
ENDBRANCH  26  27
ENDBRANCH  25  26
ENDBRANCH   6  25
TORSDOF 10
ENDMDL
MODEL 3
REMARK VINA RESULT: -7.267771219      2.155      5.448
REMARK  10 active torsions:
REMARK  status: ('A' for Active; 'I' for Inactive)
REMARK    1  A    between atoms: C3_6  and  N3_7 
REMARK    2  A    between atoms: N3_7  and  C4_8 
REMARK    3  A    between atoms: C4_8  and  C5_9 
REMARK    4  A    between atoms: C5_9  and  N4_10 
REMARK    5  A    between atoms: N4_10  and  C6_12 
REMARK    6  A    between atoms: C11_19  and  C12_20 
REMARK    7  A    between atoms: C12_20  and  C13_21 
REMARK    8  A    between atoms: C13_21  and  C14_22 
REMARK    9  A    between atoms: C14_22  and  C15_23 
REMARK   10  A    between atoms: C15_23  and  N6_24 
ROOT
HETATM    1  C1  UNL     1      16.596  -4.195  11.359  1.00  0.00     0.156 C 
HETATM    2  N1  UNL     1      17.179  -5.513  11.451  1.00  0.00    -0.357 N 
HETATM    3  C2  UNL     1      18.327  -5.837  10.825  1.00  0.00     0.184 A 
HETATM    4  N2  UNL     1      18.858  -7.056  10.916  1.00  0.00    -0.327 N 
ATOM      5  H2  UNL     1      19.728  -7.247  10.420  1.00  0.00     0.169 HD
HETATM    6  C3  UNL     1      18.283  -8.070  11.650  1.00  0.00     0.186 A 
HETATM    7  C11 UNL     1      17.083  -7.734  12.306  1.00  0.00     0.016 A 
HETATM    8  C23 UNL     1      16.588  -6.468  12.174  1.00  0.00     0.103 A 
ENDROOT
BRANCH   7   9
HETATM    9  C12 UNL     1      16.373  -8.744  13.141  1.00  0.00     0.045 C 
BRANCH   9  10
HETATM   10  C13 UNL     1      15.108  -8.201  13.739  1.00  0.00     0.006 C 
BRANCH  10  11
HETATM   11  C14 UNL     1      15.126  -8.050  15.219  1.00  0.00     0.021 C 
BRANCH  11  12
HETATM   12  C15 UNL     1      16.085  -7.071  15.790  1.00  0.00     0.128 C 
BRANCH  12  13
HETATM   13  N6  UNL     1      15.503  -5.805  16.178  1.00  0.00    -0.362 N 
HETATM   14  C16 UNL     1      15.812  -4.667  15.483  1.00  0.00     0.119 A 
HETATM   15  C17 UNL     1      15.257  -3.461  15.837  1.00  0.00     0.090 A 
HETATM   16  N7  UNL     1      15.587  -2.284  15.105  1.00  0.00    -0.099 NA
HETATM   17  C18 UNL     1      14.380  -3.349  16.894  1.00  0.00     0.087 A 
HETATM   18  N8  UNL     1      13.681  -2.358  17.487  1.00  0.00    -0.349 N 
HETATM   19  C21 UNL     1      14.064  -4.491  17.599  1.00  0.00     0.079 A 
HETATM   20  C19 UNL     1      12.950  -2.836  18.526  1.00  0.00     0.183 A 
ATOM     21  H8  UNL     1      13.700  -1.381  17.194  1.00  0.00     0.167 HD
HETATM   22  N9  UNL     1      13.203  -4.150  18.573  1.00  0.00    -0.344 N 
HETATM   23  C20 UNL     1      12.638  -5.069  19.527  1.00  0.00     0.157 C 
HETATM   24  C22 UNL     1      14.653  -5.686  17.199  1.00  0.00     0.122 A 
ENDBRANCH  12  13
ENDBRANCH  11  12
ENDBRANCH  10  11
ENDBRANCH   9  10
ENDBRANCH   7   9
BRANCH   6  25
HETATM   25  N3  UNL     1      18.781  -9.167  11.706  1.00  0.00    -0.402 NA
BRANCH  25  26
HETATM   26  C4  UNL     1      19.335 -10.363  11.748  1.00  0.00     0.177 C 
BRANCH  26  27
HETATM   27  C5  UNL     1      19.442 -11.130  10.420  1.00  0.00     0.180 C 
BRANCH  27  28
HETATM   28  N4  UNL     1      19.247 -12.538  10.629  1.00  0.00    -0.371 N 
ATOM     29  H4  UNL     1      19.856 -13.058  11.262  1.00  0.00     0.161 HD
BRANCH  28  30
HETATM   30  C6  UNL     1      18.288 -13.133  10.005  1.00  0.00     0.101 A 
HETATM   31  C7  UNL     1      16.965 -12.799  10.207  1.00  0.00     0.048 A 
HETATM   32  C8  UNL     1      16.023 -13.502   9.485  1.00  0.00     0.005 A 
HETATM   33  C9  UNL     1      16.363 -14.504   8.591  1.00  0.00     0.017 A 
HETATM   34  C10 UNL     1      17.700 -14.787   8.438  1.00  0.00     0.089 A 
HETATM   35  N5  UNL     1      18.617 -14.102   9.139  1.00  0.00    -0.353 N 
ATOM     36  H5  UNL     1      19.603 -14.328   9.008  1.00  0.00     0.166 HD
ENDBRANCH  28  30
ENDBRANCH  27  28
ENDBRANCH  26  27
ENDBRANCH  25  26
ENDBRANCH   6  25
TORSDOF 10
ENDMDL
MODEL 4
REMARK VINA RESULT: -7.047794404      0.837      1.971
REMARK  10 active torsions:
REMARK  status: ('A' for Active; 'I' for Inactive)
REMARK    1  A    between atoms: C3_6  and  N3_7 
REMARK    2  A    between atoms: N3_7  and  C4_8 
REMARK    3  A    between atoms: C4_8  and  C5_9 
REMARK    4  A    between atoms: C5_9  and  N4_10 
REMARK    5  A    between atoms: N4_10  and  C6_12 
REMARK    6  A    between atoms: C11_19  and  C12_20 
REMARK    7  A    between atoms: C12_20  and  C13_21 
REMARK    8  A    between atoms: C13_21  and  C14_22 
REMARK    9  A    between atoms: C14_22  and  C15_23 
REMARK   10  A    between atoms: C15_23  and  N6_24 
ROOT
HETATM    1  C1  UNL     1      18.662 -11.061  12.051  1.00  0.00     0.156 C 
HETATM    2  N1  UNL     1      18.158  -9.708  12.074  1.00  0.00    -0.357 N 
HETATM    3  C2  UNL     1      18.834  -8.678  11.528  1.00  0.00     0.184 A 
HETATM    4  N2  UNL     1      18.361  -7.433  11.554  1.00  0.00    -0.327 N 
ATOM      5  H2  UNL     1      18.915  -6.692  11.126  1.00  0.00     0.169 HD
HETATM    6  C3  UNL     1      17.155  -7.102  12.133  1.00  0.00     0.186 A 
HETATM    7  C11 UNL     1      16.446  -8.176  12.704  1.00  0.00     0.016 A 
HETATM    8  C23 UNL     1      16.984  -9.431  12.647  1.00  0.00     0.103 A 
ENDROOT
BRANCH   7   9
HETATM    9  C12 UNL     1      15.122  -7.947  13.350  1.00  0.00     0.045 C 
BRANCH   9  10
HETATM   10  C13 UNL     1      14.651  -9.142  14.125  1.00  0.00     0.006 C 
BRANCH  10  11
HETATM   11  C14 UNL     1      14.511  -8.927  15.591  1.00  0.00     0.021 C 
BRANCH  11  12
HETATM   12  C15 UNL     1      15.517  -8.054  16.247  1.00  0.00     0.128 C 
BRANCH  12  13
HETATM   13  N6  UNL     1      14.980  -6.854  16.850  1.00  0.00    -0.362 N 
HETATM   14  C16 UNL     1      14.122  -6.945  17.913  1.00  0.00     0.119 A 
HETATM   15  C17 UNL     1      13.614  -5.811  18.499  1.00  0.00     0.090 A 
HETATM   16  N7  UNL     1      12.722  -5.921  19.605  1.00  0.00    -0.099 NA
HETATM   17  C18 UNL     1      13.942  -4.552  18.046  1.00  0.00     0.087 A 
HETATM   18  N8  UNL     1      13.634  -3.281  18.378  1.00  0.00    -0.349 N 
HETATM   19  C21 UNL     1      14.806  -4.452  16.975  1.00  0.00     0.079 A 
HETATM   20  C19 UNL     1      14.268  -2.401  17.561  1.00  0.00     0.183 A 
ATOM     21  H8  UNL     1      13.011  -3.016  19.141  1.00  0.00     0.167 HD
HETATM   22  N9  UNL     1      14.982  -3.147  16.709  1.00  0.00    -0.344 N 
HETATM   23  C20 UNL     1      15.818  -2.630  15.656  1.00  0.00     0.157 C 
HETATM   24  C22 UNL     1      15.291  -5.630  16.420  1.00  0.00     0.122 A 
ENDBRANCH  12  13
ENDBRANCH  11  12
ENDBRANCH  10  11
ENDBRANCH   9  10
ENDBRANCH   7   9
BRANCH   6  25
HETATM   25  N3  UNL     1      16.756  -5.964  12.149  1.00  0.00    -0.402 NA
BRANCH  25  26
HETATM   26  C4  UNL     1      16.306  -4.725  12.151  1.00  0.00     0.177 C 
BRANCH  26  27
HETATM   27  C5  UNL     1      16.973  -3.739  11.176  1.00  0.00     0.180 C 
BRANCH  27  28
HETATM   28  N4  UNL     1      16.421  -3.877   9.857  1.00  0.00    -0.371 N 
ATOM     29  H4  UNL     1      15.418  -4.008   9.725  1.00  0.00     0.161 HD
BRANCH  28  30
HETATM   30  C6  UNL     1      17.216  -3.832   8.843  1.00  0.00     0.101 A 
HETATM   31  C7  UNL     1      18.578  -4.005   8.973  1.00  0.00     0.048 A 
HETATM   32  C8  UNL     1      19.332  -3.936   7.819  1.00  0.00     0.005 A 
HETATM   33  C9  UNL     1      18.771  -3.704   6.573  1.00  0.00     0.017 A 
HETATM   34  C10 UNL     1      17.407  -3.540   6.515  1.00  0.00     0.089 A 
HETATM   35  N5  UNL     1      16.673  -3.608   7.637  1.00  0.00    -0.353 N 
ATOM     36  H5  UNL     1      15.664  -3.484   7.570  1.00  0.00     0.166 HD
ENDBRANCH  28  30
ENDBRANCH  27  28
ENDBRANCH  26  27
ENDBRANCH  25  26
ENDBRANCH   6  25
TORSDOF 10
ENDMDL
MODEL 5
REMARK VINA RESULT: -7.041860834      2.322      5.736
REMARK  10 active torsions:
REMARK  status: ('A' for Active; 'I' for Inactive)
REMARK    1  A    between atoms: C3_6  and  N3_7 
REMARK    2  A    between atoms: N3_7  and  C4_8 
REMARK    3  A    between atoms: C4_8  and  C5_9 
REMARK    4  A    between atoms: C5_9  and  N4_10 
REMARK    5  A    between atoms: N4_10  and  C6_12 
REMARK    6  A    between atoms: C11_19  and  C12_20 
REMARK    7  A    between atoms: C12_20  and  C13_21 
REMARK    8  A    between atoms: C13_21  and  C14_22 
REMARK    9  A    between atoms: C14_22  and  C15_23 
REMARK   10  A    between atoms: C15_23  and  N6_24 
ROOT
HETATM    1  C1  UNL     1      16.921  -3.307  10.065  1.00  0.00     0.156 C 
HETATM    2  N1  UNL     1      17.389  -4.588  10.540  1.00  0.00    -0.357 N 
HETATM    3  C2  UNL     1      18.517  -5.159  10.075  1.00  0.00     0.184 A 
HETATM    4  N2  UNL     1      18.941  -6.342  10.519  1.00  0.00    -0.327 N 
ATOM      5  H2  UNL     1      19.802  -6.728  10.130  1.00  0.00     0.169 HD
HETATM    6  C3  UNL     1      18.269  -7.066  11.479  1.00  0.00     0.186 A 
HETATM    7  C11 UNL     1      17.091  -6.471  11.968  1.00  0.00     0.016 A 
HETATM    8  C23 UNL     1      16.706  -5.257  11.472  1.00  0.00     0.103 A 
ENDROOT
BRANCH   7   9
HETATM    9  C12 UNL     1      16.282  -7.152  13.018  1.00  0.00     0.045 C 
BRANCH   9  10
HETATM   10  C13 UNL     1      16.732  -6.795  14.405  1.00  0.00     0.006 C 
BRANCH  10  11
HETATM   11  C14 UNL     1      15.842  -5.848  15.130  1.00  0.00     0.021 C 
BRANCH  11  12
HETATM   12  C15 UNL     1      16.087  -4.398  14.929  1.00  0.00     0.128 C 
BRANCH  12  13
HETATM   13  N6  UNL     1      15.571  -3.543  15.975  1.00  0.00    -0.362 N 
HETATM   14  C16 UNL     1      14.402  -3.865  16.610  1.00  0.00     0.119 A 
HETATM   15  C17 UNL     1      13.909  -3.065  17.612  1.00  0.00     0.090 A 
HETATM   16  N7  UNL     1      12.691  -3.412  18.265  1.00  0.00    -0.099 NA
HETATM   17  C18 UNL     1      14.561  -1.919  18.013  1.00  0.00     0.087 A 
HETATM   18  N8  UNL     1      14.361  -0.946  18.926  1.00  0.00    -0.349 N 
HETATM   19  C21 UNL     1      15.739  -1.588  17.377  1.00  0.00     0.079 A 
HETATM   20  C19 UNL     1      15.361  -0.029  18.883  1.00  0.00     0.183 A 
ATOM     21  H8  UNL     1      13.565  -0.905  19.564  1.00  0.00     0.167 HD
HETATM   22  N9  UNL     1      16.195  -0.448  17.923  1.00  0.00    -0.344 N 
HETATM   23  C20 UNL     1      17.406   0.224  17.528  1.00  0.00     0.157 C 
HETATM   24  C22 UNL     1      16.195  -2.432  16.371  1.00  0.00     0.122 A 
ENDBRANCH  12  13
ENDBRANCH  11  12
ENDBRANCH  10  11
ENDBRANCH   9  10
ENDBRANCH   7   9
BRANCH   6  25
HETATM   25  N3  UNL     1      18.673  -8.138  11.855  1.00  0.00    -0.402 NA
BRANCH  25  26
HETATM   26  C4  UNL     1      19.094  -9.319  12.263  1.00  0.00     0.177 C 
BRANCH  26  27
HETATM   27  C5  UNL     1      19.134 -10.447  11.217  1.00  0.00     0.180 C 
BRANCH  27  28
HETATM   28  N4  UNL     1      17.865 -11.118  11.145  1.00  0.00    -0.371 N 
ATOM     29  H4  UNL     1      17.060 -10.761  11.659  1.00  0.00     0.161 HD
BRANCH  28  30
HETATM   30  C6  UNL     1      17.763 -12.178  10.419  1.00  0.00     0.101 A 
HETATM   31  C7  UNL     1      16.540 -12.730  10.099  1.00  0.00     0.048 A 
HETATM   32  C8  UNL     1      16.551 -13.866   9.316  1.00  0.00     0.005 A 
HETATM   33  C9  UNL     1      17.722 -14.447   8.858  1.00  0.00     0.017 A 
HETATM   34  C10 UNL     1      18.906 -13.845   9.214  1.00  0.00     0.089 A 
HETATM   35  N5  UNL     1      18.897 -12.740   9.975  1.00  0.00    -0.353 N 
ATOM     36  H5  UNL     1      19.787 -12.310  10.226  1.00  0.00     0.166 HD
ENDBRANCH  28  30
ENDBRANCH  27  28
ENDBRANCH  26  27
ENDBRANCH  25  26
ENDBRANCH   6  25
TORSDOF 10
ENDMDL
