MODEL 1
REMARK VINA RESULT: -8.136493763      0.000      0.000
REMARK  13 active torsions:
REMARK  status: ('A' for Active; 'I' for Inactive)
REMARK    1  A    between atoms: C4_4  and  C5_5 
REMARK    2  A    between atoms: C5_5  and  C6_6 
REMARK    3  A    between atoms: C9_10  and  O2_11 
REMARK    4  A    between atoms: O2_11  and  C10_12 
REMARK    5  A    between atoms: C14_16  and  O3_17 
REMARK    6  A    between atoms: O3_17  and  C15_18 
REMARK    7  A    between atoms: C16_20  and  C17_21 
REMARK    8  A    between atoms: C17_21  and  N1_22 
REMARK    9  A    between atoms: C18_26  and  O5_27 
REMARK   10  A    between atoms: C19_29  and  O6_30 
REMARK   11  A    between atoms: C20_32  and  O7_33 
REMARK   12  A    between atoms: C21_35  and  O8_36 
REMARK   13  A    between atoms: C22_38  and  O9_39 
ROOT
HETATM    1  C10 UNL     1      59.610  18.468  15.562  1.00  0.00     0.156 C 
HETATM    2  C11 UNL     1      58.207  18.595  16.092  1.00  0.00     0.041 C 
HETATM    3  C12 UNL     1      57.769  17.373  16.862  1.00  0.00     0.016 C 
HETATM    4  C13 UNL     1      56.260  17.410  16.946  1.00  0.00     0.012 C 
HETATM    5  C14 UNL     1      58.151  16.162  16.031  1.00  0.00     0.160 C 
HETATM    6  C21 UNL     1      59.648  16.031  16.143  1.00  0.00     0.178 C 
HETATM    7  C22 UNL     1      60.360  17.332  16.225  1.00  0.00     0.178 C 
ENDROOT
BRANCH   5   8
HETATM    8  O3  UNL     1      57.703  16.361  14.756  1.00  0.00    -0.350 OA
BRANCH   8   9
HETATM    9  C15 UNL     1      57.096  15.249  14.164  1.00  0.00     0.292 C 
HETATM   10  O4  UNL     1      57.047  14.173  14.990  1.00  0.00    -0.349 OA
HETATM   11  C16 UNL     1      56.223  13.143  14.734  1.00  0.00     0.181 C 
HETATM   12  C18 UNL     1      54.891  13.439  14.169  1.00  0.00     0.180 C 
HETATM   13  C19 UNL     1      54.626  14.866  13.839  1.00  0.00     0.183 C 
HETATM   14  C20 UNL     1      55.840  15.680  13.509  1.00  0.00     0.204 C 
BRANCH  11  15
HETATM   15  C17 UNL     1      56.987  12.069  13.982  1.00  0.00     0.264 C 
BRANCH  15  16
HETATM   16  N1  UNL     1      56.863  12.115  12.575  1.00  0.00    -0.077 N 
ATOM     17  H13 UNL     1      56.439  11.253  12.232  1.00  0.00     0.274 HD
ATOM     18  H12 UNL     1      56.143  12.787  12.308  1.00  0.00     0.274 HD
ATOM     19  H11 UNL     1      57.726  12.307  12.068  1.00  0.00     0.274 HD
ENDBRANCH  15  16
ENDBRANCH  11  15
BRANCH  12  20
HETATM   20  O5  UNL     1      53.865  12.994  15.012  1.00  0.00    -0.390 OA
ATOM     21  H5  UNL     1      53.523  12.154  14.732  1.00  0.00     0.210 HD
ENDBRANCH  12  20
BRANCH  13  22
HETATM   22  O6  UNL     1      53.889  15.470  14.872  1.00  0.00    -0.390 OA
ATOM     23  H6  UNL     1      54.354  16.229  15.202  1.00  0.00     0.210 HD
ENDBRANCH  13  22
BRANCH  14  24
HETATM   24  O7  UNL     1      55.539  16.998  13.932  1.00  0.00    -0.388 OA
ATOM     25  H7  UNL     1      54.618  17.164  13.773  1.00  0.00     0.210 HD
ENDBRANCH  14  24
ENDBRANCH   8   9
ENDBRANCH   5   8
BRANCH   6  26
HETATM   26  O8  UNL     1      59.913  15.299  17.315  1.00  0.00    -0.390 OA
ATOM     27  H8  UNL     1      59.770  15.885  18.050  1.00  0.00     0.210 HD
ENDBRANCH   6  26
BRANCH   7  28
HETATM   28  O9  UNL     1      60.586  17.634  17.567  1.00  0.00    -0.390 OA
ATOM     29  H9  UNL     1      61.474  17.397  17.807  1.00  0.00     0.210 HD
ENDBRANCH   7  28
BRANCH   1  30
HETATM   30  O2  UNL     1      60.315  19.659  15.628  1.00  0.00    -0.352 OA
BRANCH  30  31
HETATM   31  C9  UNL     1      59.699  20.667  16.324  1.00  0.00     0.270 C 
HETATM   32  C6  UNL     1      60.609  21.860  16.642  1.00  0.00     0.031 C 
HETATM   33  C7  UNL     1      62.012  21.524  16.256  1.00  0.00     0.023 C 
HETATM   34  C8  UNL     1      60.216  21.693  18.071  1.00  0.00     0.185 C 
HETATM   35  O1  UNL     1      59.567  20.495  17.698  1.00  0.00    -0.359 OA
BRANCH  32  36
HETATM   36  C5  UNL     1      60.160  23.137  15.966  1.00  0.00     0.043 C 
BRANCH  36  37
HETATM   37  C4  UNL     1      61.243  24.119  15.835  1.00  0.00    -0.024 C 
HETATM   38  C2  UNL     1      61.227  25.293  16.426  1.00  0.00    -0.091 C 
HETATM   39  C1  UNL     1      62.361  26.227  16.243  1.00  0.00     0.042 C 
HETATM   40  C3  UNL     1      60.094  25.719  17.286  1.00  0.00     0.042 C 
ENDBRANCH  36  37
ENDBRANCH  32  36
ENDBRANCH  30  31
ENDBRANCH   1  30
TORSDOF 13
ENDMDL
MODEL 2
REMARK VINA RESULT: -7.988753044      1.776      2.449
REMARK  13 active torsions:
REMARK  status: ('A' for Active; 'I' for Inactive)
REMARK    1  A    between atoms: C4_4  and  C5_5 
REMARK    2  A    between atoms: C5_5  and  C6_6 
REMARK    3  A    between atoms: C9_10  and  O2_11 
REMARK    4  A    between atoms: O2_11  and  C10_12 
REMARK    5  A    between atoms: C14_16  and  O3_17 
REMARK    6  A    between atoms: O3_17  and  C15_18 
REMARK    7  A    between atoms: C16_20  and  C17_21 
REMARK    8  A    between atoms: C17_21  and  N1_22 
REMARK    9  A    between atoms: C18_26  and  O5_27 
REMARK   10  A    between atoms: C19_29  and  O6_30 
REMARK   11  A    between atoms: C20_32  and  O7_33 
REMARK   12  A    between atoms: C21_35  and  O8_36 
REMARK   13  A    between atoms: C22_38  and  O9_39 
ROOT
HETATM    1  C10 UNL     1      59.578  18.053  15.695  1.00  0.00     0.156 C 
HETATM    2  C11 UNL     1      58.196  18.110  16.288  1.00  0.00     0.041 C 
HETATM    3  C12 UNL     1      57.784  16.801  16.916  1.00  0.00     0.016 C 
HETATM    4  C13 UNL     1      56.279  16.822  17.059  1.00  0.00     0.012 C 
HETATM    5  C14 UNL     1      58.133  15.703  15.927  1.00  0.00     0.160 C 
HETATM    6  C21 UNL     1      59.633  15.564  15.968  1.00  0.00     0.178 C 
HETATM    7  C22 UNL     1      60.350  16.846  16.185  1.00  0.00     0.178 C 
ENDROOT
BRANCH   5   8
HETATM    8  O3  UNL     1      57.639  16.058  14.704  1.00  0.00    -0.350 OA
BRANCH   8   9
HETATM    9  C15 UNL     1      56.977  15.035  14.016  1.00  0.00     0.292 C 
HETATM   10  O4  UNL     1      57.026  13.846  14.667  1.00  0.00    -0.349 OA
HETATM   11  C16 UNL     1      56.184  12.848  14.346  1.00  0.00     0.181 C 
HETATM   12  C18 UNL     1      54.797  13.197  13.979  1.00  0.00     0.180 C 
HETATM   13  C19 UNL     1      54.489  14.651  13.903  1.00  0.00     0.183 C 
HETATM   14  C20 UNL     1      55.655  15.532  13.574  1.00  0.00     0.204 C 
BRANCH  11  15
HETATM   15  C17 UNL     1      56.868  11.919  13.360  1.00  0.00     0.264 C 
BRANCH  15  16
HETATM   16  N1  UNL     1      56.193  11.743  12.131  1.00  0.00    -0.077 N 
ATOM     17  H13 UNL     1      55.686  10.857  12.133  1.00  0.00     0.274 HD
ATOM     18  H12 UNL     1      55.413  12.396  12.062  1.00  0.00     0.274 HD
ATOM     19  H11 UNL     1      56.779  11.809  11.300  1.00  0.00     0.274 HD
ENDBRANCH  15  16
ENDBRANCH  11  15
BRANCH  12  20
HETATM   20  O5  UNL     1      53.872  12.606  14.848  1.00  0.00    -0.390 OA
ATOM     21  H5  UNL     1      53.003  12.577  14.466  1.00  0.00     0.210 HD
ENDBRANCH  12  20
BRANCH  13  22
HETATM   22  O6  UNL     1      53.865  15.074  15.089  1.00  0.00    -0.390 OA
ATOM     23  H6  UNL     1      53.938  16.017  15.176  1.00  0.00     0.210 HD
ENDBRANCH  13  22
BRANCH  14  24
HETATM   24  O7  UNL     1      55.395  16.764  14.225  1.00  0.00    -0.388 OA
ATOM     25  H7  UNL     1      54.864  17.303  13.651  1.00  0.00     0.210 HD
ENDBRANCH  14  24
ENDBRANCH   8   9
ENDBRANCH   5   8
BRANCH   6  26
HETATM   26  O8  UNL     1      59.939  14.691  17.029  1.00  0.00    -0.390 OA
ATOM     27  H8  UNL     1      59.117  14.457  17.444  1.00  0.00     0.210 HD
ENDBRANCH   6  26
BRANCH   7  28
HETATM   28  O9  UNL     1      60.625  16.979  17.544  1.00  0.00    -0.390 OA
ATOM     29  H9  UNL     1      60.145  17.718  17.900  1.00  0.00     0.210 HD
ENDBRANCH   7  28
BRANCH   1  30
HETATM   30  O2  UNL     1      60.288  19.228  15.883  1.00  0.00    -0.352 OA
BRANCH  30  31
HETATM   31  C9  UNL     1      59.634  20.373  15.505  1.00  0.00     0.270 C 
HETATM   32  C6  UNL     1      60.540  21.607  15.390  1.00  0.00     0.031 C 
HETATM   33  C7  UNL     1      61.900  21.266  15.908  1.00  0.00     0.023 C 
HETATM   34  C8  UNL     1      59.595  22.304  16.309  1.00  0.00     0.185 C 
HETATM   35  O1  UNL     1      58.945  21.063  16.497  1.00  0.00    -0.359 OA
BRANCH  32  36
HETATM   36  C5  UNL     1      60.625  22.144  13.979  1.00  0.00     0.043 C 
BRANCH  36  37
HETATM   37  C4  UNL     1      60.658  21.080  12.969  1.00  0.00    -0.024 C 
HETATM   38  C2  UNL     1      61.136  21.252  11.756  1.00  0.00    -0.091 C 
HETATM   39  C1  UNL     1      61.134  20.125  10.796  1.00  0.00     0.042 C 
HETATM   40  C3  UNL     1      61.687  22.557  11.312  1.00  0.00     0.042 C 
ENDBRANCH  36  37
ENDBRANCH  32  36
ENDBRANCH  30  31
ENDBRANCH   1  30
TORSDOF 13
ENDMDL
MODEL 3
REMARK VINA RESULT: -7.618178309      0.993      1.430
REMARK  13 active torsions:
REMARK  status: ('A' for Active; 'I' for Inactive)
REMARK    1  A    between atoms: C4_4  and  C5_5 
REMARK    2  A    between atoms: C5_5  and  C6_6 
REMARK    3  A    between atoms: C9_10  and  O2_11 
REMARK    4  A    between atoms: O2_11  and  C10_12 
REMARK    5  A    between atoms: C14_16  and  O3_17 
REMARK    6  A    between atoms: O3_17  and  C15_18 
REMARK    7  A    between atoms: C16_20  and  C17_21 
REMARK    8  A    between atoms: C17_21  and  N1_22 
REMARK    9  A    between atoms: C18_26  and  O5_27 
REMARK   10  A    between atoms: C19_29  and  O6_30 
REMARK   11  A    between atoms: C20_32  and  O7_33 
REMARK   12  A    between atoms: C21_35  and  O8_36 
REMARK   13  A    between atoms: C22_38  and  O9_39 
ROOT
HETATM    1  C10 UNL     1      58.858  19.019  15.851  1.00  0.00     0.156 C 
HETATM    2  C11 UNL     1      57.519  18.592  16.388  1.00  0.00     0.041 C 
HETATM    3  C12 UNL     1      57.537  17.183  16.930  1.00  0.00     0.016 C 
HETATM    4  C13 UNL     1      56.103  16.712  17.011  1.00  0.00     0.012 C 
HETATM    5  C14 UNL     1      58.244  16.320  15.901  1.00  0.00     0.160 C 
HETATM    6  C21 UNL     1      59.707  16.667  15.996  1.00  0.00     0.178 C 
HETATM    7  C22 UNL     1      59.967  18.095  16.308  1.00  0.00     0.178 C 
ENDROOT
BRANCH   5   8
HETATM    8  O3  UNL     1      57.690  16.573  14.678  1.00  0.00    -0.350 OA
BRANCH   8   9
HETATM    9  C15 UNL     1      57.100  15.467  14.057  1.00  0.00     0.292 C 
HETATM   10  O4  UNL     1      57.048  14.376  14.863  1.00  0.00    -0.349 OA
HETATM   11  C16 UNL     1      56.235  13.345  14.577  1.00  0.00     0.181 C 
HETATM   12  C18 UNL     1      54.910  13.640  13.999  1.00  0.00     0.180 C 
HETATM   13  C19 UNL     1      54.638  15.070  13.690  1.00  0.00     0.183 C 
HETATM   14  C20 UNL     1      55.850  15.899  13.392  1.00  0.00     0.204 C 
BRANCH  11  15
HETATM   15  C17 UNL     1      57.019  12.290  13.818  1.00  0.00     0.264 C 
BRANCH  15  16
HETATM   16  N1  UNL     1      56.781  12.249  12.426  1.00  0.00    -0.077 N 
ATOM     17  H13 UNL     1      56.064  12.929  12.172  1.00  0.00     0.274 HD
ATOM     18  H12 UNL     1      57.580  12.634  11.921  1.00  0.00     0.274 HD
ATOM     19  H11 UNL     1      56.541  11.331  12.053  1.00  0.00     0.274 HD
ENDBRANCH  15  16
ENDBRANCH  11  15
BRANCH  12  20
HETATM   20  O5  UNL     1      53.875  13.173  14.817  1.00  0.00    -0.390 OA
ATOM     21  H5  UNL     1      53.168  12.797  14.307  1.00  0.00     0.210 HD
ENDBRANCH  12  20
BRANCH  13  22
HETATM   22  O6  UNL     1      53.881  15.651  14.722  1.00  0.00    -0.390 OA
ATOM     23  H6  UNL     1      54.199  15.353  15.565  1.00  0.00     0.210 HD
ENDBRANCH  13  22
BRANCH  14  24
HETATM   24  O7  UNL     1      55.533  17.207  13.834  1.00  0.00    -0.388 OA
ATOM     25  H7  UNL     1      54.861  17.147  14.502  1.00  0.00     0.210 HD
ENDBRANCH  14  24
ENDBRANCH   8   9
ENDBRANCH   5   8
BRANCH   6  26
HETATM   26  O8  UNL     1      60.255  15.874  17.022  1.00  0.00    -0.390 OA
ATOM     27  H8  UNL     1      60.699  16.462  17.622  1.00  0.00     0.210 HD
ENDBRANCH   6  26
BRANCH   7  28
HETATM   28  O9  UNL     1      60.154  18.224  17.683  1.00  0.00    -0.390 OA
ATOM     29  H9  UNL     1      59.332  18.459  18.100  1.00  0.00     0.210 HD
ENDBRANCH   7  28
BRANCH   1  30
HETATM   30  O2  UNL     1      59.146  20.345  16.128  1.00  0.00    -0.352 OA
BRANCH  30  31
HETATM   31  C9  UNL     1      60.285  20.833  15.540  1.00  0.00     0.270 C 
HETATM   32  C6  UNL     1      60.474  22.348  15.695  1.00  0.00     0.031 C 
HETATM   33  C7  UNL     1      59.245  22.936  16.308  1.00  0.00     0.023 C 
HETATM   34  C8  UNL     1      60.619  22.414  14.213  1.00  0.00     0.185 C 
HETATM   35  O1  UNL     1      60.241  21.053  14.168  1.00  0.00    -0.359 OA
BRANCH  32  36
HETATM   36  C5  UNL     1      61.699  22.707  16.506  1.00  0.00     0.043 C 
BRANCH  36  37
HETATM   37  C4  UNL     1      62.186  24.063  16.229  1.00  0.00    -0.024 C 
HETATM   38  C2  UNL     1      62.648  24.869  17.159  1.00  0.00    -0.091 C 
HETATM   39  C1  UNL     1      63.121  26.223  16.794  1.00  0.00     0.042 C 
HETATM   40  C3  UNL     1      62.714  24.458  18.584  1.00  0.00     0.042 C 
ENDBRANCH  36  37
ENDBRANCH  32  36
ENDBRANCH  30  31
ENDBRANCH   1  30
TORSDOF 13
ENDMDL
MODEL 4
REMARK VINA RESULT: -7.569769524      1.491      1.919
REMARK  13 active torsions:
REMARK  status: ('A' for Active; 'I' for Inactive)
REMARK    1  A    between atoms: C4_4  and  C5_5 
REMARK    2  A    between atoms: C5_5  and  C6_6 
REMARK    3  A    between atoms: C9_10  and  O2_11 
REMARK    4  A    between atoms: O2_11  and  C10_12 
REMARK    5  A    between atoms: C14_16  and  O3_17 
REMARK    6  A    between atoms: O3_17  and  C15_18 
REMARK    7  A    between atoms: C16_20  and  C17_21 
REMARK    8  A    between atoms: C17_21  and  N1_22 
REMARK    9  A    between atoms: C18_26  and  O5_27 
REMARK   10  A    between atoms: C19_29  and  O6_30 
REMARK   11  A    between atoms: C20_32  and  O7_33 
REMARK   12  A    between atoms: C21_35  and  O8_36 
REMARK   13  A    between atoms: C22_38  and  O9_39 
ROOT
HETATM    1  C10 UNL     1      58.646  19.118  15.944  1.00  0.00     0.156 C 
HETATM    2  C11 UNL     1      59.120  18.422  17.192  1.00  0.00     0.041 C 
HETATM    3  C12 UNL     1      59.934  17.187  16.888  1.00  0.00     0.016 C 
HETATM    4  C13 UNL     1      59.964  16.346  18.144  1.00  0.00     0.012 C 
HETATM    5  C14 UNL     1      59.177  16.404  15.831  1.00  0.00     0.160 C 
HETATM    6  C21 UNL     1      59.347  17.165  14.542  1.00  0.00     0.178 C 
HETATM    7  C22 UNL     1      59.389  18.639  14.716  1.00  0.00     0.178 C 
ENDROOT
BRANCH   5   8
HETATM    8  O3  UNL     1      57.879  16.281  16.239  1.00  0.00    -0.350 OA
BRANCH   8   9
HETATM    9  C15 UNL     1      57.066  15.512  15.399  1.00  0.00     0.292 C 
HETATM   10  O4  UNL     1      57.419  14.202  15.380  1.00  0.00    -0.349 OA
HETATM   11  C16 UNL     1      56.574  13.267  14.912  1.00  0.00     0.181 C 
HETATM   12  C18 UNL     1      55.134  13.425  15.192  1.00  0.00     0.180 C 
HETATM   13  C19 UNL     1      54.739  14.678  15.891  1.00  0.00     0.183 C 
HETATM   14  C20 UNL     1      55.649  15.847  15.664  1.00  0.00     0.204 C 
BRANCH  11  15
HETATM   15  C17 UNL     1      56.894  12.994  13.454  1.00  0.00     0.264 C 
BRANCH  15  16
HETATM   16  N1  UNL     1      57.283  11.668  13.161  1.00  0.00    -0.077 N 
ATOM     17  H13 UNL     1      58.243  11.652  12.815  1.00  0.00     0.274 HD
ATOM     18  H12 UNL     1      57.396  11.136  14.024  1.00  0.00     0.274 HD
ATOM     19  H11 UNL     1      56.670  11.166  12.519  1.00  0.00     0.274 HD
ENDBRANCH  15  16
ENDBRANCH  11  15
BRANCH  12  20
HETATM   20  O5  UNL     1      54.631  12.345  15.929  1.00  0.00    -0.390 OA
ATOM     21  H5  UNL     1      53.739  12.136  15.678  1.00  0.00     0.210 HD
ENDBRANCH  12  20
BRANCH  13  22
HETATM   22  O6  UNL     1      54.578  14.434  17.265  1.00  0.00    -0.390 OA
ATOM     23  H6  UNL     1      53.735  14.758  17.557  1.00  0.00     0.210 HD
ENDBRANCH  13  22
BRANCH  14  24
HETATM   24  O7  UNL     1      55.581  16.617  16.851  1.00  0.00    -0.388 OA
ATOM     25  H7  UNL     1      56.373  16.469  17.354  1.00  0.00     0.210 HD
ENDBRANCH  14  24
ENDBRANCH   8   9
ENDBRANCH   5   8
BRANCH   6  26
HETATM   26  O8  UNL     1      60.561  16.744  13.970  1.00  0.00    -0.390 OA
ATOM     27  H8  UNL     1      61.160  16.563  14.686  1.00  0.00     0.210 HD
ENDBRANCH   6  26
BRANCH   7  28
HETATM   28  O9  UNL     1      60.722  19.043  14.782  1.00  0.00    -0.390 OA
ATOM     29  H9  UNL     1      61.267  18.314  15.056  1.00  0.00     0.210 HD
ENDBRANCH   7  28
BRANCH   1  30
HETATM   30  O2  UNL     1      58.678  20.499  16.060  1.00  0.00    -0.352 OA
BRANCH  30  31
HETATM   31  C9  UNL     1      59.532  20.987  17.015  1.00  0.00     0.270 C 
HETATM   32  C6  UNL     1      60.397  22.163  16.543  1.00  0.00     0.031 C 
HETATM   33  C7  UNL     1      60.203  22.357  15.075  1.00  0.00     0.023 C 
HETATM   34  C8  UNL     1      61.585  21.385  16.997  1.00  0.00     0.185 C 
HETATM   35  O1  UNL     1      60.719  20.290  17.214  1.00  0.00    -0.359 OA
BRANCH  32  36
HETATM   36  C5  UNL     1      60.106  23.444  17.294  1.00  0.00     0.043 C 
BRANCH  36  37
HETATM   37  C4  UNL     1      60.634  24.632  16.613  1.00  0.00    -0.024 C 
HETATM   38  C2  UNL     1      61.736  25.246  16.983  1.00  0.00    -0.091 C 
HETATM   39  C1  UNL     1      62.201  26.439  16.241  1.00  0.00     0.042 C 
HETATM   40  C3  UNL     1      62.543  24.772  18.136  1.00  0.00     0.042 C 
ENDBRANCH  36  37
ENDBRANCH  32  36
ENDBRANCH  30  31
ENDBRANCH   1  30
TORSDOF 13
ENDMDL
MODEL 5
REMARK VINA RESULT: -7.408638614      1.942      2.821
REMARK  13 active torsions:
REMARK  status: ('A' for Active; 'I' for Inactive)
REMARK    1  A    between atoms: C4_4  and  C5_5 
REMARK    2  A    between atoms: C5_5  and  C6_6 
REMARK    3  A    between atoms: C9_10  and  O2_11 
REMARK    4  A    between atoms: O2_11  and  C10_12 
REMARK    5  A    between atoms: C14_16  and  O3_17 
REMARK    6  A    between atoms: O3_17  and  C15_18 
REMARK    7  A    between atoms: C16_20  and  C17_21 
REMARK    8  A    between atoms: C17_21  and  N1_22 
REMARK    9  A    between atoms: C18_26  and  O5_27 
REMARK   10  A    between atoms: C19_29  and  O6_30 
REMARK   11  A    between atoms: C20_32  and  O7_33 
REMARK   12  A    between atoms: C21_35  and  O8_36 
REMARK   13  A    between atoms: C22_38  and  O9_39 
ROOT
HETATM    1  C10 UNL     1      59.240  18.932  16.001  1.00  0.00     0.156 C 
HETATM    2  C11 UNL     1      59.690  17.648  16.645  1.00  0.00     0.041 C 
HETATM    3  C12 UNL     1      60.092  16.604  15.631  1.00  0.00     0.016 C 
HETATM    4  C13 UNL     1      60.081  15.265  16.332  1.00  0.00     0.012 C 
HETATM    5  C14 UNL     1      59.006  16.574  14.570  1.00  0.00     0.160 C 
HETATM    6  C21 UNL     1      59.181  17.828  13.754  1.00  0.00     0.178 C 
HETATM    7  C22 UNL     1      59.640  18.999  14.543  1.00  0.00     0.178 C 
ENDROOT
BRANCH   5   8
HETATM    8  O3  UNL     1      57.797  16.483  15.200  1.00  0.00    -0.350 OA
BRANCH   8   9
HETATM    9  C15 UNL     1      56.868  15.646  14.574  1.00  0.00     0.292 C 
HETATM   10  O4  UNL     1      57.246  14.343  14.577  1.00  0.00    -0.349 OA
HETATM   11  C16 UNL     1      56.357  13.365  14.333  1.00  0.00     0.181 C 
HETATM   12  C18 UNL     1      54.986  13.521  14.859  1.00  0.00     0.180 C 
HETATM   13  C19 UNL     1      54.691  14.814  15.534  1.00  0.00     0.183 C 
HETATM   14  C20 UNL     1      55.513  15.977  15.070  1.00  0.00     0.204 C 
BRANCH  11  15
HETATM   15  C17 UNL     1      56.415  12.997  12.862  1.00  0.00     0.264 C 
BRANCH  15  16
HETATM   16  N1  UNL     1      56.927  11.709  12.584  1.00  0.00    -0.077 N 
ATOM     17  H13 UNL     1      57.255  11.663  11.619  1.00  0.00     0.274 HD
ATOM     18  H12 UNL     1      57.807  11.566  13.079  1.00  0.00     0.274 HD
ATOM     19  H11 UNL     1      56.288  10.937  12.774  1.00  0.00     0.274 HD
ENDBRANCH  15  16
ENDBRANCH  11  15
BRANCH  12  20
HETATM   20  O5  UNL     1      54.654  12.488  15.743  1.00  0.00    -0.390 OA
ATOM     21  H5  UNL     1      54.066  11.860  15.342  1.00  0.00     0.210 HD
ENDBRANCH  12  20
BRANCH  13  22
HETATM   22  O6  UNL     1      54.787  14.663  16.928  1.00  0.00    -0.390 OA
ATOM     23  H6  UNL     1      55.309  15.366  17.296  1.00  0.00     0.210 HD
ENDBRANCH  13  22
BRANCH  14  24
HETATM   24  O7  UNL     1      55.640  16.826  16.197  1.00  0.00    -0.388 OA
ATOM     25  H7  UNL     1      54.776  17.138  16.440  1.00  0.00     0.210 HD
ENDBRANCH  14  24
ENDBRANCH   8   9
ENDBRANCH   5   8
BRANCH   6  26
HETATM   26  O8  UNL     1      60.142  17.547  12.765  1.00  0.00    -0.390 OA
ATOM     27  H8  UNL     1      60.207  18.317  12.211  1.00  0.00     0.210 HD
ENDBRANCH   6  26
BRANCH   7  28
HETATM   28  O9  UNL     1      61.027  19.094  14.436  1.00  0.00    -0.390 OA
ATOM     29  H9  UNL     1      61.271  19.975  14.175  1.00  0.00     0.210 HD
ENDBRANCH   7  28
BRANCH   1  30
HETATM   30  O2  UNL     1      59.655  20.053  16.702  1.00  0.00    -0.352 OA
BRANCH  30  31
HETATM   31  C9  UNL     1      59.493  21.247  16.046  1.00  0.00     0.270 C 
HETATM   32  C6  UNL     1      60.724  22.162  16.089  1.00  0.00     0.031 C 
HETATM   33  C7  UNL     1      61.741  21.573  17.012  1.00  0.00     0.023 C 
HETATM   34  C8  UNL     1      59.829  23.229  16.623  1.00  0.00     0.185 C 
HETATM   35  O1  UNL     1      58.813  22.252  16.724  1.00  0.00    -0.359 OA
BRANCH  32  36
HETATM   36  C5  UNL     1      61.322  22.408  14.722  1.00  0.00     0.043 C 
BRANCH  36  37
HETATM   37  C4  UNL     1      60.363  22.177  13.635  1.00  0.00    -0.024 C 
HETATM   38  C2  UNL     1      60.701  22.173  12.364  1.00  0.00    -0.091 C 
HETATM   39  C1  UNL     1      59.671  21.931  11.328  1.00  0.00     0.042 C 
HETATM   40  C3  UNL     1      62.101  22.404  11.928  1.00  0.00     0.042 C 
ENDBRANCH  36  37
ENDBRANCH  32  36
ENDBRANCH  30  31
ENDBRANCH   1  30
TORSDOF 13
ENDMDL
