MODEL 1
REMARK VINA RESULT: -8.445855118      0.000      0.000
REMARK  12 active torsions:
REMARK  status: ('A' for Active; 'I' for Inactive)
REMARK    1  A    between atoms: O1_2  and  C2_3 
REMARK    2  A    between atoms: C3_4  and  C4_5 
REMARK    3  A    between atoms: C4_5  and  C5_6 
REMARK    4  A    between atoms: C7_11  and  O5_12 
REMARK    5  A    between atoms: O5_12  and  C8_13 
REMARK    6  A    between atoms: C11_16  and  N1_17 
REMARK    7  A    between atoms: C12_21  and  O6_22 
REMARK    8  A    between atoms: C13_24  and  O7_25 
REMARK    9  A    between atoms: C14_27  and  O8_28 
REMARK   10  A    between atoms: O8_28  and  C15_29 
REMARK   11  A    between atoms: C18_32  and  O9_34 
REMARK   12  A    between atoms: C21_37  and  O10_38 
ROOT
HETATM    1  C2  UNL     1      61.782  22.860  16.408  1.00  0.00     0.181 C 
HETATM    2  C3  UNL     1      62.042  22.033  17.627  1.00  0.00     0.163 C 
HETATM    3  O4  UNL     1      61.445  20.793  17.591  1.00  0.00    -0.380 OA
HETATM    4  C6  UNL     1      60.094  20.786  17.335  1.00  0.00     0.203 C 
HETATM    5  C7  UNL     1      59.900  20.357  15.874  1.00  0.00     0.177 C 
HETATM    6  C14 UNL     1      60.164  21.564  15.042  1.00  0.00     0.184 C 
HETATM    7  C21 UNL     1      61.628  21.960  15.166  1.00  0.00     0.181 C 
ENDROOT
BRANCH   5   8
HETATM    8  O5  UNL     1      58.617  19.887  15.673  1.00  0.00    -0.373 OA
BRANCH   8   9
HETATM    9  C8  UNL     1      58.360  18.661  16.296  1.00  0.00     0.153 C 
HETATM   10  C9  UNL     1      56.893  18.368  15.974  1.00  0.00     0.037 C 
HETATM   11  C10 UNL     1      56.489  17.112  16.697  1.00  0.00     0.038 C 
HETATM   12  C11 UNL     1      57.323  15.941  16.215  1.00  0.00     0.214 C 
HETATM   13  C12 UNL     1      58.805  16.243  16.317  1.00  0.00     0.179 C 
HETATM   14  C13 UNL     1      59.162  17.546  15.672  1.00  0.00     0.177 C 
BRANCH  12  15
HETATM   15  N1  UNL     1      56.908  15.548  14.895  1.00  0.00    -0.072 N 
ATOM     16  H13 UNL     1      57.163  16.241  14.192  1.00  0.00     0.274 HD
ATOM     17  H12 UNL     1      57.457  14.766  14.539  1.00  0.00     0.274 HD
ATOM     18  H11 UNL     1      55.907  15.346  14.888  1.00  0.00     0.274 HD
ENDBRANCH  12  15
BRANCH  13  19
HETATM   19  O6  UNL     1      59.275  16.146  17.597  1.00  0.00    -0.391 OA
ATOM     20  H6  UNL     1      60.196  16.370  17.666  1.00  0.00     0.210 HD
ENDBRANCH  13  19
BRANCH  14  21
HETATM   21  O7  UNL     1      58.999  17.526  14.288  1.00  0.00    -0.390 OA
ATOM     22  H7  UNL     1      58.085  17.634  14.051  1.00  0.00     0.210 HD
ENDBRANCH  14  21
ENDBRANCH   8   9
ENDBRANCH   5   8
BRANCH   6  23
HETATM   23  O8  UNL     1      59.770  21.504  13.716  1.00  0.00    -0.375 OA
BRANCH  23  24
HETATM   24  C15 UNL     1      60.848  21.395  12.844  1.00  0.00     0.125 C 
HETATM   25  C16 UNL     1      60.892  22.402  11.754  1.00  0.00     0.035 C 
HETATM   26  C17 UNL     1      61.499  21.679  10.571  1.00  0.00     0.040 C 
HETATM   27  C18 UNL     1      60.902  20.318  10.658  1.00  0.00     0.057 C 
HETATM   28  C19 UNL     1      61.886  19.314  10.081  1.00  0.00     0.045 C 
HETATM   29  C20 UNL     1      60.620  20.066  12.098  1.00  0.00     0.069 C 
BRANCH  27  30
HETATM   30  O9  UNL     1      59.768  20.261   9.848  1.00  0.00    -0.390 OA
ATOM     31  H9  UNL     1      60.032  20.306   8.936  1.00  0.00     0.210 HD
ENDBRANCH  27  30
ENDBRANCH  23  24
ENDBRANCH   6  23
BRANCH   7  32
HETATM   32  O10 UNL     1      62.387  20.823  15.426  1.00  0.00    -0.390 OA
ATOM     33  H10 UNL     1      61.820  20.085  15.234  1.00  0.00     0.210 HD
ENDBRANCH   7  32
BRANCH   2  34
HETATM   34  C4  UNL     1      61.652  22.746  18.905  1.00  0.00     0.147 C 
BRANCH  34  35
HETATM   35  C5  UNL     1      62.567  23.899  19.061  1.00  0.00     0.175 C 
HETATM   36  O2  UNL     1      63.822  23.825  18.987  1.00  0.00    -0.648 OA
HETATM   37  O3  UNL     1      61.992  25.160  19.304  1.00  0.00    -0.648 OA
ENDBRANCH  34  35
ENDBRANCH   2  34
BRANCH   1  38
HETATM   38  O1  UNL     1      60.696  23.706  16.528  1.00  0.00    -0.385 OA
HETATM   39  C1  UNL     1      60.942  25.009  16.160  1.00  0.00     0.202 C 
ENDBRANCH   1  38
TORSDOF 12
ENDMDL
MODEL 2
REMARK VINA RESULT: -8.323829596      2.518      6.249
REMARK  12 active torsions:
REMARK  status: ('A' for Active; 'I' for Inactive)
REMARK    1  A    between atoms: O1_2  and  C2_3 
REMARK    2  A    between atoms: C3_4  and  C4_5 
REMARK    3  A    between atoms: C4_5  and  C5_6 
REMARK    4  A    between atoms: C7_11  and  O5_12 
REMARK    5  A    between atoms: O5_12  and  C8_13 
REMARK    6  A    between atoms: C11_16  and  N1_17 
REMARK    7  A    between atoms: C12_21  and  O6_22 
REMARK    8  A    between atoms: C13_24  and  O7_25 
REMARK    9  A    between atoms: C14_27  and  O8_28 
REMARK   10  A    between atoms: O8_28  and  C15_29 
REMARK   11  A    between atoms: C18_32  and  O9_34 
REMARK   12  A    between atoms: C21_37  and  O10_38 
ROOT
HETATM    1  C2  UNL     1      59.193  18.501  15.631  1.00  0.00     0.181 C 
HETATM    2  C3  UNL     1      59.241  18.350  17.119  1.00  0.00     0.163 C 
HETATM    3  O4  UNL     1      59.632  19.495  17.776  1.00  0.00    -0.380 OA
HETATM    4  C6  UNL     1      60.815  20.054  17.353  1.00  0.00     0.203 C 
HETATM    5  C7  UNL     1      60.468  21.278  16.494  1.00  0.00     0.177 C 
HETATM    6  C14 UNL     1      60.103  20.758  15.147  1.00  0.00     0.184 C 
HETATM    7  C21 UNL     1      58.821  19.945  15.244  1.00  0.00     0.181 C 
ENDROOT
BRANCH   5   8
HETATM    8  O5  UNL     1      61.546  22.139  16.419  1.00  0.00    -0.373 OA
BRANCH   8   9
HETATM    9  C8  UNL     1      61.190  23.476  16.216  1.00  0.00     0.153 C 
HETATM   10  C9  UNL     1      59.799  23.601  16.841  1.00  0.00     0.037 C 
HETATM   11  C10 UNL     1      59.282  24.988  16.575  1.00  0.00     0.038 C 
HETATM   12  C11 UNL     1      60.186  26.017  17.225  1.00  0.00     0.214 C 
HETATM   13  C12 UNL     1      61.629  25.823  16.803  1.00  0.00     0.179 C 
HETATM   14  C13 UNL     1      62.088  24.410  16.990  1.00  0.00     0.177 C 
BRANCH  12  15
HETATM   15  N1  UNL     1      60.000  26.009  18.651  1.00  0.00    -0.072 N 
ATOM     16  H13 UNL     1      59.228  25.405  18.932  1.00  0.00     0.274 HD
ATOM     17  H12 UNL     1      60.754  25.520  19.132  1.00  0.00     0.274 HD
ATOM     18  H11 UNL     1      59.882  26.963  18.994  1.00  0.00     0.274 HD
ENDBRANCH  12  15
BRANCH  13  19
HETATM   19  O6  UNL     1      61.878  26.292  15.544  1.00  0.00    -0.391 OA
ATOM     20  H6  UNL     1      62.781  26.560  15.424  1.00  0.00     0.210 HD
ENDBRANCH  13  19
BRANCH  14  21
HETATM   21  O7  UNL     1      62.160  24.038  18.331  1.00  0.00    -0.390 OA
ATOM     22  H7  UNL     1      62.002  23.107  18.435  1.00  0.00     0.210 HD
ENDBRANCH  14  21
ENDBRANCH   8   9
ENDBRANCH   5   8
BRANCH   6  23
HETATM   23  O8  UNL     1      60.034  21.685  14.120  1.00  0.00    -0.375 OA
BRANCH  23  24
HETATM   24  C15 UNL     1      61.059  21.530  13.193  1.00  0.00     0.125 C 
HETATM   25  C16 UNL     1      61.209  22.637  12.216  1.00  0.00     0.035 C 
HETATM   26  C17 UNL     1      61.672  21.976  10.936  1.00  0.00     0.040 C 
HETATM   27  C18 UNL     1      60.894  20.708  10.904  1.00  0.00     0.057 C 
HETATM   28  C19 UNL     1      61.709  19.650  10.179  1.00  0.00     0.045 C 
HETATM   29  C20 UNL     1      60.624  20.336  12.320  1.00  0.00     0.069 C 
BRANCH  27  30
HETATM   30  O9  UNL     1      59.738  20.895  10.146  1.00  0.00    -0.390 OA
ATOM     31  H9  UNL     1      59.465  21.803  10.210  1.00  0.00     0.210 HD
ENDBRANCH  27  30
ENDBRANCH  23  24
ENDBRANCH   6  23
BRANCH   7  32
HETATM   32  O10 UNL     1      58.050  20.431  16.296  1.00  0.00    -0.390 OA
ATOM     33  H10 UNL     1      57.531  21.137  15.930  1.00  0.00     0.210 HD
ENDBRANCH   7  32
BRANCH   2  34
HETATM   34  C4  UNL     1      60.111  17.191  17.557  1.00  0.00     0.147 C 
BRANCH  34  35
HETATM   35  C5  UNL     1      59.472  15.951  17.064  1.00  0.00     0.175 C 
HETATM   36  O2  UNL     1      58.237  15.714  17.130  1.00  0.00    -0.648 OA
HETATM   37  O3  UNL     1      60.302  14.976  16.481  1.00  0.00    -0.648 OA
ENDBRANCH  34  35
ENDBRANCH   2  34
BRANCH   1  38
HETATM   38  O1  UNL     1      60.357  18.115  14.993  1.00  0.00    -0.385 OA
HETATM   39  C1  UNL     1      60.164  17.435  13.812  1.00  0.00     0.202 C 
ENDBRANCH   1  38
TORSDOF 12
ENDMDL
MODEL 3
REMARK VINA RESULT: -8.244879274      1.125      1.580
REMARK  12 active torsions:
REMARK  status: ('A' for Active; 'I' for Inactive)
REMARK    1  A    between atoms: O1_2  and  C2_3 
REMARK    2  A    between atoms: C3_4  and  C4_5 
REMARK    3  A    between atoms: C4_5  and  C5_6 
REMARK    4  A    between atoms: C7_11  and  O5_12 
REMARK    5  A    between atoms: O5_12  and  C8_13 
REMARK    6  A    between atoms: C11_16  and  N1_17 
REMARK    7  A    between atoms: C12_21  and  O6_22 
REMARK    8  A    between atoms: C13_24  and  O7_25 
REMARK    9  A    between atoms: C14_27  and  O8_28 
REMARK   10  A    between atoms: O8_28  and  C15_29 
REMARK   11  A    between atoms: C18_32  and  O9_34 
REMARK   12  A    between atoms: C21_37  and  O10_38 
ROOT
HETATM    1  C2  UNL     1      61.556  22.755  16.095  1.00  0.00     0.181 C 
HETATM    2  C3  UNL     1      61.777  22.168  17.453  1.00  0.00     0.163 C 
HETATM    3  O4  UNL     1      61.200  20.930  17.620  1.00  0.00    -0.380 OA
HETATM    4  C6  UNL     1      59.861  20.848  17.319  1.00  0.00     0.203 C 
HETATM    5  C7  UNL     1      59.733  20.158  15.954  1.00  0.00     0.177 C 
HETATM    6  C14 UNL     1      60.014  21.200  14.927  1.00  0.00     0.184 C 
HETATM    7  C21 UNL     1      61.466  21.642  15.032  1.00  0.00     0.181 C 
ENDROOT
BRANCH   5   8
HETATM    8  O5  UNL     1      58.466  19.632  15.793  1.00  0.00    -0.373 OA
BRANCH   8   9
HETATM    9  C8  UNL     1      58.455  18.269  15.478  1.00  0.00     0.153 C 
HETATM   10  C9  UNL     1      59.931  17.868  15.459  1.00  0.00     0.037 C 
HETATM   11  C10 UNL     1      60.029  16.433  15.020  1.00  0.00     0.038 C 
HETATM   12  C11 UNL     1      59.306  15.534  16.004  1.00  0.00     0.214 C 
HETATM   13  C12 UNL     1      57.881  15.999  16.227  1.00  0.00     0.179 C 
HETATM   14  C13 UNL     1      57.807  17.455  16.570  1.00  0.00     0.177 C 
BRANCH  12  15
HETATM   15  N1  UNL     1      60.067  15.418  17.219  1.00  0.00    -0.072 N 
ATOM     16  H13 UNL     1      60.760  14.671  17.166  1.00  0.00     0.274 HD
ATOM     17  H12 UNL     1      60.705  16.203  17.347  1.00  0.00     0.274 HD
ATOM     18  H11 UNL     1      59.440  15.301  18.016  1.00  0.00     0.274 HD
ENDBRANCH  12  15
BRANCH  13  19
HETATM   19  O6  UNL     1      57.049  15.661  15.196  1.00  0.00    -0.391 OA
ATOM     20  H6  UNL     1      56.639  14.813  15.319  1.00  0.00     0.210 HD
ENDBRANCH  13  19
BRANCH  14  21
HETATM   21  O7  UNL     1      58.369  17.746  17.811  1.00  0.00    -0.390 OA
ATOM     22  H7  UNL     1      58.160  18.633  18.080  1.00  0.00     0.210 HD
ENDBRANCH  14  21
ENDBRANCH   8   9
ENDBRANCH   5   8
BRANCH   6  23
HETATM   23  O8  UNL     1      59.676  20.892  13.619  1.00  0.00    -0.375 OA
BRANCH  23  24
HETATM   24  C15 UNL     1      60.768  20.947  12.759  1.00  0.00     0.125 C 
HETATM   25  C16 UNL     1      60.736  22.042  11.757  1.00  0.00     0.035 C 
HETATM   26  C17 UNL     1      61.413  21.474  10.529  1.00  0.00     0.040 C 
HETATM   27  C18 UNL     1      60.933  20.065  10.493  1.00  0.00     0.057 C 
HETATM   28  C19 UNL     1      62.004  19.198   9.852  1.00  0.00     0.045 C 
HETATM   29  C20 UNL     1      60.660  19.670  11.902  1.00  0.00     0.069 C 
BRANCH  27  30
HETATM   30  O9  UNL     1      59.815  19.981   9.663  1.00  0.00    -0.390 OA
ATOM     31  H9  UNL     1      60.086  19.682   8.803  1.00  0.00     0.210 HD
ENDBRANCH  27  30
ENDBRANCH  23  24
ENDBRANCH   6  23
BRANCH   7  32
HETATM   32  O10 UNL     1      62.229  20.588  15.523  1.00  0.00    -0.390 OA
ATOM     33  H10 UNL     1      62.794  20.966  16.187  1.00  0.00     0.210 HD
ENDBRANCH   7  32
BRANCH   2  34
HETATM   34  C4  UNL     1      61.325  23.092  18.565  1.00  0.00     0.147 C 
BRANCH  34  35
HETATM   35  C5  UNL     1      62.543  23.619  19.220  1.00  0.00     0.175 C 
HETATM   36  O2  UNL     1      63.220  22.989  20.075  1.00  0.00    -0.648 OA
HETATM   37  O3  UNL     1      62.973  24.909  18.858  1.00  0.00    -0.648 OA
ENDBRANCH  34  35
ENDBRANCH   2  34
BRANCH   1  38
HETATM   38  O1  UNL     1      60.454  23.585  16.018  1.00  0.00    -0.385 OA
HETATM   39  C1  UNL     1      60.732  24.922  16.194  1.00  0.00     0.202 C 
ENDBRANCH   1  38
TORSDOF 12
ENDMDL
MODEL 4
REMARK VINA RESULT: -8.181929016      2.660      6.394
REMARK  12 active torsions:
REMARK  status: ('A' for Active; 'I' for Inactive)
REMARK    1  A    between atoms: O1_2  and  C2_3 
REMARK    2  A    between atoms: C3_4  and  C4_5 
REMARK    3  A    between atoms: C4_5  and  C5_6 
REMARK    4  A    between atoms: C7_11  and  O5_12 
REMARK    5  A    between atoms: O5_12  and  C8_13 
REMARK    6  A    between atoms: C11_16  and  N1_17 
REMARK    7  A    between atoms: C12_21  and  O6_22 
REMARK    8  A    between atoms: C13_24  and  O7_25 
REMARK    9  A    between atoms: C14_27  and  O8_28 
REMARK   10  A    between atoms: O8_28  and  C15_29 
REMARK   11  A    between atoms: C18_32  and  O9_34 
REMARK   12  A    between atoms: C21_37  and  O10_38 
ROOT
HETATM    1  C2  UNL     1      59.047  18.329  15.585  1.00  0.00     0.181 C 
HETATM    2  C3  UNL     1      59.093  18.082  17.059  1.00  0.00     0.163 C 
HETATM    3  O4  UNL     1      59.532  19.165  17.787  1.00  0.00    -0.380 OA
HETATM    4  C6  UNL     1      60.736  19.701  17.394  1.00  0.00     0.203 C 
HETATM    5  C7  UNL     1      60.438  20.991  16.617  1.00  0.00     0.177 C 
HETATM    6  C14 UNL     1      60.049  20.573  15.241  1.00  0.00     0.184 C 
HETATM    7  C21 UNL     1      58.734  19.809  15.292  1.00  0.00     0.181 C 
ENDROOT
BRANCH   5   8
HETATM    8  O5  UNL     1      61.551  21.809  16.591  1.00  0.00    -0.373 OA
BRANCH   8   9
HETATM    9  C8  UNL     1      61.373  23.027  17.254  1.00  0.00     0.153 C 
HETATM   10  C9  UNL     1      62.791  23.488  17.599  1.00  0.00     0.037 C 
HETATM   11  C10 UNL     1      62.697  24.747  18.415  1.00  0.00     0.038 C 
HETATM   12  C11 UNL     1      62.027  25.843  17.610  1.00  0.00     0.214 C 
HETATM   13  C12 UNL     1      60.692  25.382  17.060  1.00  0.00     0.179 C 
HETATM   14  C13 UNL     1      60.799  24.077  16.334  1.00  0.00     0.177 C 
BRANCH  12  15
HETATM   15  N1  UNL     1      62.924  26.333  16.599  1.00  0.00    -0.072 N 
ATOM     16  H13 UNL     1      63.002  25.688  15.812  1.00  0.00     0.274 HD
ATOM     17  H12 UNL     1      62.536  27.133  16.098  1.00  0.00     0.274 HD
ATOM     18  H11 UNL     1      63.834  26.545  17.010  1.00  0.00     0.274 HD
ENDBRANCH  12  15
BRANCH  13  19
HETATM   19  O6  UNL     1      59.706  25.375  18.008  1.00  0.00    -0.391 OA
ATOM     20  H6  UNL     1      58.915  24.942  17.709  1.00  0.00     0.210 HD
ENDBRANCH  13  19
BRANCH  14  21
HETATM   21  O7  UNL     1      61.541  24.173  15.159  1.00  0.00    -0.390 OA
ATOM     22  H7  UNL     1      62.450  24.378  15.345  1.00  0.00     0.210 HD
ENDBRANCH  14  21
ENDBRANCH   8   9
ENDBRANCH   5   8
BRANCH   6  23
HETATM   23  O8  UNL     1      60.016  21.566  14.276  1.00  0.00    -0.375 OA
BRANCH  23  24
HETATM   24  C15 UNL     1      61.037  21.434  13.341  1.00  0.00     0.125 C 
HETATM   25  C16 UNL     1      61.194  22.572  12.401  1.00  0.00     0.035 C 
HETATM   26  C17 UNL     1      61.648  21.950  11.098  1.00  0.00     0.040 C 
HETATM   27  C18 UNL     1      60.860  20.690  11.027  1.00  0.00     0.057 C 
HETATM   28  C19 UNL     1      61.665  19.651  10.264  1.00  0.00     0.045 C 
HETATM   29  C20 UNL     1      60.591  20.273  12.430  1.00  0.00     0.069 C 
BRANCH  27  30
HETATM   30  O9  UNL     1      59.703  20.912  10.278  1.00  0.00    -0.390 OA
ATOM     31  H9  UNL     1      59.019  21.241  10.849  1.00  0.00     0.210 HD
ENDBRANCH  27  30
ENDBRANCH  23  24
ENDBRANCH   6  23
BRANCH   7  32
HETATM   32  O10 UNL     1      57.987  20.259  16.376  1.00  0.00    -0.390 OA
ATOM     33  H10 UNL     1      57.093  19.990  16.202  1.00  0.00     0.210 HD
ENDBRANCH   7  32
BRANCH   2  34
HETATM   34  C4  UNL     1      59.915  16.862  17.419  1.00  0.00     0.147 C 
BRANCH  34  35
HETATM   35  C5  UNL     1      59.228  15.684  16.842  1.00  0.00     0.175 C 
HETATM   36  O2  UNL     1      57.989  15.478  16.916  1.00  0.00    -0.648 OA
HETATM   37  O3  UNL     1      60.017  14.738  16.163  1.00  0.00    -0.648 OA
ENDBRANCH  34  35
ENDBRANCH   2  34
BRANCH   1  38
HETATM   38  O1  UNL     1      60.193  17.937  14.918  1.00  0.00    -0.385 OA
HETATM   39  C1  UNL     1      59.974  17.407  13.666  1.00  0.00     0.202 C 
ENDBRANCH   1  38
TORSDOF 12
ENDMDL
MODEL 5
REMARK VINA RESULT: -8.136852340      1.548      2.097
REMARK  12 active torsions:
REMARK  status: ('A' for Active; 'I' for Inactive)
REMARK    1  A    between atoms: O1_2  and  C2_3 
REMARK    2  A    between atoms: C3_4  and  C4_5 
REMARK    3  A    between atoms: C4_5  and  C5_6 
REMARK    4  A    between atoms: C7_11  and  O5_12 
REMARK    5  A    between atoms: O5_12  and  C8_13 
REMARK    6  A    between atoms: C11_16  and  N1_17 
REMARK    7  A    between atoms: C12_21  and  O6_22 
REMARK    8  A    between atoms: C13_24  and  O7_25 
REMARK    9  A    between atoms: C14_27  and  O8_28 
REMARK   10  A    between atoms: O8_28  and  C15_29 
REMARK   11  A    between atoms: C18_32  and  O9_34 
REMARK   12  A    between atoms: C21_37  and  O10_38 
ROOT
HETATM    1  C2  UNL     1      61.344  22.736  15.404  1.00  0.00     0.181 C 
HETATM    2  C3  UNL     1      60.806  22.926  16.787  1.00  0.00     0.163 C 
HETATM    3  O4  UNL     1      60.202  21.803  17.304  1.00  0.00    -0.380 OA
HETATM    4  C6  UNL     1      59.220  21.239  16.524  1.00  0.00     0.203 C 
HETATM    5  C7  UNL     1      59.814  19.989  15.859  1.00  0.00     0.177 C 
HETATM    6  C14 UNL     1      60.615  20.471  14.699  1.00  0.00     0.184 C 
HETATM    7  C21 UNL     1      61.803  21.279  15.198  1.00  0.00     0.181 C 
ENDROOT
BRANCH   5   8
HETATM    8  O5  UNL     1      58.810  19.134  15.449  1.00  0.00    -0.373 OA
BRANCH   8   9
HETATM    9  C8  UNL     1      58.718  17.964  16.210  1.00  0.00     0.153 C 
HETATM   10  C9  UNL     1      57.515  17.220  15.627  1.00  0.00     0.037 C 
HETATM   11  C10 UNL     1      57.268  15.991  16.456  1.00  0.00     0.038 C 
HETATM   12  C11 UNL     1      58.470  15.068  16.395  1.00  0.00     0.214 C 
HETATM   13  C12 UNL     1      59.743  15.800  16.770  1.00  0.00     0.179 C 
HETATM   14  C13 UNL     1      59.915  17.070  15.996  1.00  0.00     0.177 C 
BRANCH  12  15
HETATM   15  N1  UNL     1      58.536  14.426  15.110  1.00  0.00    -0.072 N 
ATOM     16  H13 UNL     1      57.610  14.277  14.709  1.00  0.00     0.274 HD
ATOM     17  H12 UNL     1      58.912  15.045  14.392  1.00  0.00     0.274 HD
ATOM     18  H11 UNL     1      59.066  13.556  15.179  1.00  0.00     0.274 HD
ENDBRANCH  12  15
BRANCH  13  19
HETATM   19  O6  UNL     1      59.865  15.989  18.119  1.00  0.00    -0.391 OA
ATOM     20  H6  UNL     1      59.026  16.103  18.550  1.00  0.00     0.210 HD
ENDBRANCH  13  19
BRANCH  14  21
HETATM   21  O7  UNL     1      60.137  16.849  14.638  1.00  0.00    -0.390 OA
ATOM     22  H7  UNL     1      60.890  16.285  14.504  1.00  0.00     0.210 HD
ENDBRANCH  14  21
ENDBRANCH   8   9
ENDBRANCH   5   8
BRANCH   6  23
HETATM   23  O8  UNL     1      61.008  19.516  13.776  1.00  0.00    -0.375 OA
BRANCH  23  24
HETATM   24  C15 UNL     1      60.240  19.547  12.617  1.00  0.00     0.125 C 
HETATM   25  C16 UNL     1      59.865  18.222  12.062  1.00  0.00     0.035 C 
HETATM   26  C17 UNL     1      59.841  18.412  10.562  1.00  0.00     0.040 C 
HETATM   27  C18 UNL     1      60.998  19.314  10.312  1.00  0.00     0.057 C 
HETATM   28  C19 UNL     1      60.701  20.166   9.089  1.00  0.00     0.045 C 
HETATM   29  C20 UNL     1      61.173  20.137  11.540  1.00  0.00     0.069 C 
BRANCH  27  30
HETATM   30  O9  UNL     1      62.118  18.547   9.989  1.00  0.00    -0.390 OA
ATOM     31  H9  UNL     1      62.763  19.099   9.563  1.00  0.00     0.210 HD
ENDBRANCH  27  30
ENDBRANCH  23  24
ENDBRANCH   6  23
BRANCH   7  32
HETATM   32  O10 UNL     1      62.173  20.817  16.457  1.00  0.00    -0.390 OA
ATOM     33  H10 UNL     1      62.779  21.462  16.800  1.00  0.00     0.210 HD
ENDBRANCH   7  32
BRANCH   2  34
HETATM   34  C4  UNL     1      59.856  24.102  16.883  1.00  0.00     0.147 C 
BRANCH  34  35
HETATM   35  C5  UNL     1      60.661  25.287  17.257  1.00  0.00     0.175 C 
HETATM   36  O2  UNL     1      60.725  26.345  16.579  1.00  0.00    -0.648 OA
HETATM   37  O3  UNL     1      61.398  25.223  18.454  1.00  0.00    -0.648 OA
ENDBRANCH  34  35
ENDBRANCH   2  34
BRANCH   1  38
HETATM   38  O1  UNL     1      60.464  23.110  14.406  1.00  0.00    -0.385 OA
HETATM   39  C1  UNL     1      61.004  23.116  13.140  1.00  0.00     0.202 C 
ENDBRANCH   1  38
TORSDOF 12
ENDMDL
