MODEL 1
REMARK VINA RESULT: -7.234165574      0.000      0.000
REMARK  12 active torsions:
REMARK  status: ('A' for Active; 'I' for Inactive)
REMARK    1  A    between atoms: O1_2  and  C2_3 
REMARK    2  A    between atoms: C3_4  and  C4_5 
REMARK    3  A    between atoms: C4_5  and  O2_6 
REMARK    4  A    between atoms: C5_9  and  O4_10 
REMARK    5  A    between atoms: O4_10  and  C6_11 
REMARK    6  A    between atoms: C7_12  and  O5_13 
REMARK    7  A    between atoms: C8_15  and  O6_16 
REMARK    8  A    between atoms: C10_19  and  C11_20 
REMARK    9  A    between atoms: C11_20  and  O7_21 
REMARK   10  A    between atoms: O7_21  and  C12_22 
REMARK   11  A    between atoms: C15_27  and  O9_29 
REMARK   12  A    between atoms: C19_33  and  N2_34 
ROOT
HETATM    1  C6  UNL     1      61.215  23.447  16.244  1.00  0.00     0.163 C 
HETATM    2  C7  UNL     1      60.850  24.907  16.095  1.00  0.00     0.176 C 
HETATM    3  C8  UNL     1      60.615  25.614  17.378  1.00  0.00     0.150 C 
HETATM    4  C9  UNL     1      61.677  25.435  18.398  1.00  0.00     0.046 C 
HETATM    5  C10 UNL     1      62.540  24.248  18.269  1.00  0.00    -0.007 C 
HETATM    6  C13 UNL     1      62.590  23.629  19.680  1.00  0.00     0.015 C 
HETATM    7  C14 UNL     1      62.501  22.160  19.529  1.00  0.00     0.038 C 
HETATM    8  C15 UNL     1      61.610  22.017  18.286  1.00  0.00     0.061 C 
HETATM    9  C16 UNL     1      61.989  20.649  17.723  1.00  0.00     0.046 C 
HETATM   10  C17 UNL     1      62.114  23.154  17.384  1.00  0.00     0.062 C 
ENDROOT
BRANCH   1  11
HETATM   11  O4  UNL     1      61.783  23.133  15.010  1.00  0.00    -0.353 OA
BRANCH  11  12
HETATM   12  C5  UNL     1      60.906  22.870  13.989  1.00  0.00     0.263 C 
HETATM   13  O3  UNL     1      59.905  22.037  14.544  1.00  0.00    -0.351 OA
HETATM   14  C3  UNL     1      60.401  20.714  14.635  1.00  0.00     0.179 C 
HETATM   15  C2  UNL     1      60.192  20.111  13.272  1.00  0.00     0.185 C 
HETATM   16  C19 UNL     1      60.492  21.166  12.248  1.00  0.00     0.258 C 
HETATM   17  C18 UNL     1      61.515  22.164  12.816  1.00  0.00     0.099 C 
BRANCH  14  18
HETATM   18  C4  UNL     1      59.496  20.014  15.617  1.00  0.00     0.198 C 
BRANCH  18  19
HETATM   19  O2  UNL     1      58.778  21.016  16.301  1.00  0.00    -0.398 OA
ATOM     20  H2  UNL     1      58.158  20.574  16.869  1.00  0.00     0.209 HD
ENDBRANCH  18  19
ENDBRANCH  14  18
BRANCH  15  21
HETATM   21  O1  UNL     1      60.745  18.890  13.079  1.00  0.00    -0.386 OA
HETATM   22  C1  UNL     1      59.854  17.831  13.059  1.00  0.00     0.202 C 
ENDBRANCH  15  21
BRANCH  16  23
HETATM   23  N2  UNL     1      60.910  20.626  11.007  1.00  0.00     0.087 N 
HETATM   24  C20 UNL     1      61.887  21.345  10.269  1.00  0.00     0.310 C 
HETATM   25  C21 UNL     1      59.808  20.240  10.194  1.00  0.00     0.310 C 
ENDBRANCH  16  23
ENDBRANCH  11  12
ENDBRANCH   1  11
BRANCH   2  26
HETATM   26  O5  UNL     1      61.754  25.576  15.261  1.00  0.00    -0.390 OA
ATOM     27  H5  UNL     1      61.556  26.503  15.209  1.00  0.00     0.210 HD
ENDBRANCH   2  26
BRANCH   3  28
HETATM   28  O6  UNL     1      59.345  25.277  17.850  1.00  0.00    -0.393 OA
ATOM     29  H6  UNL     1      59.374  25.234  18.799  1.00  0.00     0.210 HD
ENDBRANCH   3  28
BRANCH   5  30
HETATM   30  C11 UNL     1      63.999  24.634  17.977  1.00  0.00     0.190 C 
BRANCH  30  31
HETATM   31  O7  UNL     1      64.235  25.990  18.261  1.00  0.00    -0.306 OA
BRANCH  31  32
HETATM   32  C12 UNL     1      64.490  26.857  17.226  1.00  0.00     0.372 C 
HETATM   33  N1  UNL     1      64.300  26.548  15.856  1.00  0.00    -0.032 NA
HETATM   34  O8  UNL     1      64.921  28.005  17.502  1.00  0.00    -0.242 OA
ENDBRANCH  31  32
ENDBRANCH  30  31
ENDBRANCH   5  30
BRANCH   8  35
HETATM   35  O9  UNL     1      60.276  22.106  18.577  1.00  0.00    -0.390 OA
ATOM     36  H9  UNL     1      59.965  23.003  18.609  1.00  0.00     0.210 HD
ENDBRANCH   8  35
TORSDOF 12
ENDMDL
MODEL 2
REMARK VINA RESULT: -5.811332975      6.281     11.105
REMARK  12 active torsions:
REMARK  status: ('A' for Active; 'I' for Inactive)
REMARK    1  A    between atoms: O1_2  and  C2_3 
REMARK    2  A    between atoms: C3_4  and  C4_5 
REMARK    3  A    between atoms: C4_5  and  O2_6 
REMARK    4  A    between atoms: C5_9  and  O4_10 
REMARK    5  A    between atoms: O4_10  and  C6_11 
REMARK    6  A    between atoms: C7_12  and  O5_13 
REMARK    7  A    between atoms: C8_15  and  O6_16 
REMARK    8  A    between atoms: C10_19  and  C11_20 
REMARK    9  A    between atoms: C11_20  and  O7_21 
REMARK   10  A    between atoms: O7_21  and  C12_22 
REMARK   11  A    between atoms: C15_27  and  O9_29 
REMARK   12  A    between atoms: C19_33  and  N2_34 
ROOT
HETATM    1  C6  UNL     1      56.830  14.653  14.818  1.00  0.00     0.163 C 
HETATM    2  C7  UNL     1      55.970  15.856  15.135  1.00  0.00     0.176 C 
HETATM    3  C8  UNL     1      54.607  15.804  14.552  1.00  0.00     0.150 C 
HETATM    4  C9  UNL     1      53.865  14.543  14.797  1.00  0.00     0.046 C 
HETATM    5  C10 UNL     1      54.663  13.344  15.109  1.00  0.00    -0.007 C 
HETATM    6  C13 UNL     1      54.093  12.233  14.205  1.00  0.00     0.015 C 
HETATM    7  C14 UNL     1      55.235  11.449  13.683  1.00  0.00     0.038 C 
HETATM    8  C15 UNL     1      56.333  12.517  13.570  1.00  0.00     0.061 C 
HETATM    9  C16 UNL     1      57.629  11.714  13.660  1.00  0.00     0.046 C 
HETATM   10  C17 UNL     1      56.107  13.361  14.833  1.00  0.00     0.062 C 
ENDROOT
BRANCH   1  11
HETATM   11  O4  UNL     1      57.839  14.722  15.777  1.00  0.00    -0.353 OA
BRANCH  11  12
HETATM   12  C5  UNL     1      59.003  15.338  15.391  1.00  0.00     0.263 C 
HETATM   13  O3  UNL     1      59.591  15.833  16.579  1.00  0.00    -0.351 OA
HETATM   14  C3  UNL     1      58.931  17.026  16.960  1.00  0.00     0.179 C 
HETATM   15  C2  UNL     1      59.574  18.118  16.149  1.00  0.00     0.185 C 
HETATM   16  C19 UNL     1      59.837  17.580  14.774  1.00  0.00     0.258 C 
HETATM   17  C18 UNL     1      58.812  16.481  14.442  1.00  0.00     0.099 C 
BRANCH  14  18
HETATM   18  C4  UNL     1      59.283  17.232  18.412  1.00  0.00     0.198 C 
BRANCH  18  19
HETATM   19  O2  UNL     1      60.378  16.390  18.693  1.00  0.00    -0.398 OA
ATOM     20  H2  UNL     1      61.092  16.950  18.976  1.00  0.00     0.209 HD
ENDBRANCH  18  19
ENDBRANCH  14  18
BRANCH  15  21
HETATM   21  O1  UNL     1      58.986  19.336  16.233  1.00  0.00    -0.386 OA
HETATM   22  C1  UNL     1      59.658  20.267  17.005  1.00  0.00     0.202 C 
ENDBRANCH  15  21
BRANCH  16  23
HETATM   23  N2  UNL     1      59.869  18.592  13.782  1.00  0.00     0.087 N 
HETATM   24  C20 UNL     1      59.811  18.187  12.423  1.00  0.00     0.310 C 
HETATM   25  C21 UNL     1      60.910  19.533  14.014  1.00  0.00     0.310 C 
ENDBRANCH  16  23
ENDBRANCH  11  12
ENDBRANCH   1  11
BRANCH   2  26
HETATM   26  O5  UNL     1      55.967  16.132  16.508  1.00  0.00    -0.390 OA
ATOM     27  H5  UNL     1      55.119  15.949  16.895  1.00  0.00     0.210 HD
ENDBRANCH   2  26
BRANCH   3  28
HETATM   28  O6  UNL     1      54.685  16.135  13.198  1.00  0.00    -0.393 OA
ATOM     29  H6  UNL     1      55.068  15.404  12.727  1.00  0.00     0.210 HD
ENDBRANCH   3  28
BRANCH   5  30
HETATM   30  C11 UNL     1      54.398  12.839  16.537  1.00  0.00     0.190 C 
BRANCH  30  31
HETATM   31  O7  UNL     1      55.529  12.197  17.069  1.00  0.00    -0.306 OA
BRANCH  31  32
HETATM   32  C12 UNL     1      55.389  10.950  17.630  1.00  0.00     0.372 C 
HETATM   33  N1  UNL     1      55.684   9.734  16.964  1.00  0.00    -0.032 NA
HETATM   34  O8  UNL     1      54.973  10.872  18.814  1.00  0.00    -0.242 OA
ENDBRANCH  31  32
ENDBRANCH  30  31
ENDBRANCH   5  30
BRANCH   8  35
HETATM   35  O9  UNL     1      56.251  13.241  12.412  1.00  0.00    -0.390 OA
ATOM     36  H9  UNL     1      56.833  13.991  12.405  1.00  0.00     0.210 HD
ENDBRANCH   8  35
TORSDOF 12
ENDMDL
MODEL 3
REMARK VINA RESULT: -5.653644561      1.267      2.422
REMARK  12 active torsions:
REMARK  status: ('A' for Active; 'I' for Inactive)
REMARK    1  A    between atoms: O1_2  and  C2_3 
REMARK    2  A    between atoms: C3_4  and  C4_5 
REMARK    3  A    between atoms: C4_5  and  O2_6 
REMARK    4  A    between atoms: C5_9  and  O4_10 
REMARK    5  A    between atoms: O4_10  and  C6_11 
REMARK    6  A    between atoms: C7_12  and  O5_13 
REMARK    7  A    between atoms: C8_15  and  O6_16 
REMARK    8  A    between atoms: C10_19  and  C11_20 
REMARK    9  A    between atoms: C11_20  and  O7_21 
REMARK   10  A    between atoms: O7_21  and  C12_22 
REMARK   11  A    between atoms: C15_27  and  O9_29 
REMARK   12  A    between atoms: C19_33  and  N2_34 
ROOT
HETATM    1  C6  UNL     1      60.868  23.744  16.205  1.00  0.00     0.163 C 
HETATM    2  C7  UNL     1      60.579  25.228  16.259  1.00  0.00     0.176 C 
HETATM    3  C8  UNL     1      60.518  25.790  17.629  1.00  0.00     0.150 C 
HETATM    4  C9  UNL     1      61.664  25.441  18.505  1.00  0.00     0.046 C 
HETATM    5  C10 UNL     1      62.435  24.236  18.153  1.00  0.00    -0.007 C 
HETATM    6  C13 UNL     1      62.587  23.454  19.473  1.00  0.00     0.015 C 
HETATM    7  C14 UNL     1      62.394  22.019  19.169  1.00  0.00     0.038 C 
HETATM    8  C15 UNL     1      61.376  22.067  18.021  1.00  0.00     0.061 C 
HETATM    9  C16 UNL     1      61.612  20.757  17.272  1.00  0.00     0.046 C 
HETATM   10  C17 UNL     1      61.856  23.276  17.202  1.00  0.00     0.062 C 
ENDROOT
BRANCH   1  11
HETATM   11  O4  UNL     1      61.288  23.549  14.890  1.00  0.00    -0.353 OA
BRANCH  11  12
HETATM   12  C5  UNL     1      61.668  22.273  14.557  1.00  0.00     0.263 C 
HETATM   13  O3  UNL     1      62.193  22.356  13.246  1.00  0.00    -0.351 OA
HETATM   14  C3  UNL     1      61.123  22.419  12.321  1.00  0.00     0.179 C 
HETATM   15  C2  UNL     1      60.701  20.993  12.096  1.00  0.00     0.185 C 
HETATM   16  C19 UNL     1      60.774  20.275  13.411  1.00  0.00     0.258 C 
HETATM   17  C18 UNL     1      60.552  21.274  14.560  1.00  0.00     0.099 C 
BRANCH  14  18
HETATM   18  C4  UNL     1      61.727  22.951  11.045  1.00  0.00     0.198 C 
BRANCH  18  19
HETATM   19  O2  UNL     1      62.509  21.914  10.498  1.00  0.00    -0.398 OA
ATOM     20  H2  UNL     1      62.534  22.053   9.558  1.00  0.00     0.209 HD
ENDBRANCH  18  19
ENDBRANCH  14  18
BRANCH  15  21
HETATM   21  O1  UNL     1      59.575  20.822  11.362  1.00  0.00    -0.386 OA
HETATM   22  C1  UNL     1      59.763  20.272  10.106  1.00  0.00     0.202 C 
ENDBRANCH  15  21
BRANCH  16  23
HETATM   23  N2  UNL     1      59.887  19.173  13.488  1.00  0.00     0.087 N 
HETATM   24  C20 UNL     1      59.514  18.713  14.778  1.00  0.00     0.310 C 
HETATM   25  C21 UNL     1      60.288  18.105  12.638  1.00  0.00     0.310 C 
ENDBRANCH  16  23
ENDBRANCH  11  12
ENDBRANCH   1  11
BRANCH   2  26
HETATM   26  O5  UNL     1      61.435  25.943  15.412  1.00  0.00    -0.390 OA
ATOM     27  H5  UNL     1      62.196  26.264  15.882  1.00  0.00     0.210 HD
ENDBRANCH   2  26
BRANCH   3  28
HETATM   28  O6  UNL     1      59.283  25.464  18.194  1.00  0.00    -0.393 OA
ATOM     29  H6  UNL     1      59.423  24.830  18.889  1.00  0.00     0.210 HD
ENDBRANCH   3  28
BRANCH   5  30
HETATM   30  C11 UNL     1      63.878  24.580  17.752  1.00  0.00     0.190 C 
BRANCH  30  31
HETATM   31  O7  UNL     1      64.186  25.918  18.052  1.00  0.00    -0.306 OA
BRANCH  31  32
HETATM   32  C12 UNL     1      64.420  26.799  17.024  1.00  0.00     0.372 C 
HETATM   33  N1  UNL     1      64.189  26.513  15.655  1.00  0.00    -0.032 NA
HETATM   34  O8  UNL     1      64.870  27.939  17.305  1.00  0.00    -0.242 OA
ENDBRANCH  31  32
ENDBRANCH  30  31
ENDBRANCH   5  30
BRANCH   8  35
HETATM   35  O9  UNL     1      60.086  22.187  18.460  1.00  0.00    -0.390 OA
ATOM     36  H9  UNL     1      59.851  23.083  18.673  1.00  0.00     0.210 HD
ENDBRANCH   8  35
TORSDOF 12
ENDMDL
MODEL 4
REMARK VINA RESULT: -5.644122532      2.704      7.399
REMARK  12 active torsions:
REMARK  status: ('A' for Active; 'I' for Inactive)
REMARK    1  A    between atoms: O1_2  and  C2_3 
REMARK    2  A    between atoms: C3_4  and  C4_5 
REMARK    3  A    between atoms: C4_5  and  O2_6 
REMARK    4  A    between atoms: C5_9  and  O4_10 
REMARK    5  A    between atoms: O4_10  and  C6_11 
REMARK    6  A    between atoms: C7_12  and  O5_13 
REMARK    7  A    between atoms: C8_15  and  O6_16 
REMARK    8  A    between atoms: C10_19  and  C11_20 
REMARK    9  A    between atoms: C11_20  and  O7_21 
REMARK   10  A    between atoms: O7_21  and  C12_22 
REMARK   11  A    between atoms: C15_27  and  O9_29 
REMARK   12  A    between atoms: C19_33  and  N2_34 
ROOT
HETATM    1  C6  UNL     1      59.045  18.285  17.257  1.00  0.00     0.163 C 
HETATM    2  C7  UNL     1      60.226  17.376  17.516  1.00  0.00     0.176 C 
HETATM    3  C8  UNL     1      60.093  16.018  16.934  1.00  0.00     0.150 C 
HETATM    4  C9  UNL     1      59.700  15.983  15.504  1.00  0.00     0.046 C 
HETATM    5  C10 UNL     1      59.013  17.170  14.966  1.00  0.00    -0.007 C 
HETATM    6  C13 UNL     1      57.799  16.619  14.193  1.00  0.00     0.015 C 
HETATM    7  C14 UNL     1      56.646  17.502  14.478  1.00  0.00     0.038 C 
HETATM    8  C15 UNL     1      56.932  17.950  15.918  1.00  0.00     0.061 C 
HETATM    9  C16 UNL     1      56.193  19.281  16.037  1.00  0.00     0.046 C 
HETATM   10  C17 UNL     1      58.455  18.154  15.906  1.00  0.00     0.062 C 
ENDROOT
BRANCH   1  11
HETATM   11  O4  UNL     1      59.561  19.556  17.504  1.00  0.00    -0.353 OA
BRANCH  11  12
HETATM   12  C5  UNL     1      60.550  19.985  16.654  1.00  0.00     0.263 C 
HETATM   13  O3  UNL     1      61.431  20.758  17.447  1.00  0.00    -0.351 OA
HETATM   14  C3  UNL     1      60.868  22.041  17.651  1.00  0.00     0.179 C 
HETATM   15  C2  UNL     1      61.223  22.836  16.424  1.00  0.00     0.185 C 
HETATM   16  C19 UNL     1      61.106  21.929  15.234  1.00  0.00     0.258 C 
HETATM   17  C18 UNL     1      60.065  20.833  15.518  1.00  0.00     0.099 C 
BRANCH  14  18
HETATM   18  C4  UNL     1      61.607  22.620  18.831  1.00  0.00     0.198 C 
BRANCH  18  19
HETATM   19  O2  UNL     1      62.671  23.386  18.314  1.00  0.00    -0.398 OA
ATOM     20  H2  UNL     1      63.076  23.829  19.051  1.00  0.00     0.209 HD
ENDBRANCH  18  19
ENDBRANCH  14  18
BRANCH  15  21
HETATM   21  O1  UNL     1      60.644  24.057  16.327  1.00  0.00    -0.386 OA
HETATM   22  C1  UNL     1      59.342  24.135  16.787  1.00  0.00     0.202 C 
ENDBRANCH  15  21
BRANCH  16  23
HETATM   23  N2  UNL     1      60.826  22.627  14.034  1.00  0.00     0.087 N 
HETATM   24  C20 UNL     1      60.159  21.921  12.998  1.00  0.00     0.310 C 
HETATM   25  C21 UNL     1      61.963  23.333  13.549  1.00  0.00     0.310 C 
ENDBRANCH  16  23
ENDBRANCH  11  12
ENDBRANCH   1  11
BRANCH   2  26
HETATM   26  O5  UNL     1      61.432  18.000  17.176  1.00  0.00    -0.390 OA
ATOM     27  H5  UNL     1      61.708  17.764  16.299  1.00  0.00     0.210 HD
ENDBRANCH   2  26
BRANCH   3  28
HETATM   28  O6  UNL     1      59.248  15.261  17.749  1.00  0.00    -0.393 OA
ATOM     29  H6  UNL     1      59.394  14.340  17.567  1.00  0.00     0.210 HD
ENDBRANCH   3  28
BRANCH   5  30
HETATM   30  C11 UNL     1      59.854  17.876  13.891  1.00  0.00     0.190 C 
BRANCH  30  31
HETATM   31  O7  UNL     1      59.431  17.523  12.598  1.00  0.00    -0.306 OA
BRANCH  31  32
HETATM   32  C12 UNL     1      59.913  18.226  11.520  1.00  0.00     0.372 C 
HETATM   33  N1  UNL     1      59.340  18.199  10.224  1.00  0.00    -0.032 NA
HETATM   34  O8  UNL     1      60.931  18.945  11.684  1.00  0.00    -0.242 OA
ENDBRANCH  31  32
ENDBRANCH  30  31
ENDBRANCH   5  30
BRANCH   8  35
HETATM   35  O9  UNL     1      56.514  17.040  16.850  1.00  0.00    -0.390 OA
ATOM     36  H9  UNL     1      55.602  16.796  16.743  1.00  0.00     0.210 HD
ENDBRANCH   8  35
TORSDOF 12
ENDMDL
MODEL 5
REMARK VINA RESULT: -5.576490607      5.738      9.037
REMARK  12 active torsions:
REMARK  status: ('A' for Active; 'I' for Inactive)
REMARK    1  A    between atoms: O1_2  and  C2_3 
REMARK    2  A    between atoms: C3_4  and  C4_5 
REMARK    3  A    between atoms: C4_5  and  O2_6 
REMARK    4  A    between atoms: C5_9  and  O4_10 
REMARK    5  A    between atoms: O4_10  and  C6_11 
REMARK    6  A    between atoms: C7_12  and  O5_13 
REMARK    7  A    between atoms: C8_15  and  O6_16 
REMARK    8  A    between atoms: C10_19  and  C11_20 
REMARK    9  A    between atoms: C11_20  and  O7_21 
REMARK   10  A    between atoms: O7_21  and  C12_22 
REMARK   11  A    between atoms: C15_27  and  O9_29 
REMARK   12  A    between atoms: C19_33  and  N2_34 
ROOT
HETATM    1  C6  UNL     1      57.692  16.010  15.708  1.00  0.00     0.163 C 
HETATM    2  C7  UNL     1      56.466  16.687  15.138  1.00  0.00     0.176 C 
HETATM    3  C8  UNL     1      56.293  18.098  15.563  1.00  0.00     0.150 C 
HETATM    4  C9  UNL     1      57.494  18.955  15.405  1.00  0.00     0.046 C 
HETATM    5  C10 UNL     1      58.801  18.277  15.348  1.00  0.00    -0.007 C 
HETATM    6  C13 UNL     1      59.705  19.059  16.321  1.00  0.00     0.015 C 
HETATM    7  C14 UNL     1      60.517  18.075  17.070  1.00  0.00     0.038 C 
HETATM    8  C15 UNL     1      59.563  16.876  17.165  1.00  0.00     0.061 C 
HETATM    9  C16 UNL     1      60.498  15.680  17.331  1.00  0.00     0.046 C 
HETATM   10  C17 UNL     1      58.891  16.875  15.783  1.00  0.00     0.062 C 
ENDROOT
BRANCH   1  11
HETATM   11  O4  UNL     1      57.867  14.909  14.870  1.00  0.00    -0.353 OA
BRANCH  11  12
HETATM   12  C5  UNL     1      57.505  13.691  15.386  1.00  0.00     0.263 C 
HETATM   13  O3  UNL     1      57.577  12.778  14.306  1.00  0.00    -0.351 OA
HETATM   14  C3  UNL     1      56.425  12.926  13.497  1.00  0.00     0.179 C 
HETATM   15  C2  UNL     1      55.357  12.102  14.163  1.00  0.00     0.185 C 
HETATM   16  C19 UNL     1      55.499  12.272  15.647  1.00  0.00     0.258 C 
HETATM   17  C18 UNL     1      56.120  13.646  15.955  1.00  0.00     0.099 C 
BRANCH  14  18
HETATM   18  C4  UNL     1      56.777  12.284  12.178  1.00  0.00     0.198 C 
BRANCH  18  19
HETATM   19  O2  UNL     1      56.347  10.943  12.246  1.00  0.00    -0.398 OA
ATOM     20  H2  UNL     1      55.649  10.844  11.610  1.00  0.00     0.209 HD
ENDBRANCH  18  19
ENDBRANCH  14  18
BRANCH  15  21
HETATM   21  O1  UNL     1      54.111  12.225  13.645  1.00  0.00    -0.386 OA
HETATM   22  C1  UNL     1      53.871  13.394  12.945  1.00  0.00     0.202 C 
ENDBRANCH  15  21
BRANCH  16  23
HETATM   23  N2  UNL     1      54.282  12.072  16.344  1.00  0.00     0.087 N 
HETATM   24  C20 UNL     1      53.865  13.084  17.249  1.00  0.00     0.310 C 
HETATM   25  C21 UNL     1      54.206  10.775  16.925  1.00  0.00     0.310 C 
ENDBRANCH  16  23
ENDBRANCH  11  12
ENDBRANCH   1  11
BRANCH   2  26
HETATM   26  O5  UNL     1      56.393  16.522  13.750  1.00  0.00    -0.390 OA
ATOM     27  H5  UNL     1      55.505  16.335  13.470  1.00  0.00     0.210 HD
ENDBRANCH   2  26
BRANCH   3  28
HETATM   28  O6  UNL     1      55.779  18.116  16.861  1.00  0.00    -0.393 OA
ATOM     29  H6  UNL     1      54.877  18.413  16.828  1.00  0.00     0.210 HD
ENDBRANCH   3  28
BRANCH   5  30
HETATM   30  C11 UNL     1      59.477  18.456  13.979  1.00  0.00     0.190 C 
BRANCH  30  31
HETATM   31  O7  UNL     1      60.654  19.216  14.088  1.00  0.00    -0.306 OA
BRANCH  31  32
HETATM   32  C12 UNL     1      60.811  20.325  13.292  1.00  0.00     0.372 C 
HETATM   33  N1  UNL     1      60.713  20.317  11.877  1.00  0.00    -0.032 NA
HETATM   34  O8  UNL     1      61.059  21.426  13.845  1.00  0.00    -0.242 OA
ENDBRANCH  31  32
ENDBRANCH  30  31
ENDBRANCH   5  30
BRANCH   8  35
HETATM   35  O9  UNL     1      58.674  16.986  18.199  1.00  0.00    -0.390 OA
ATOM     36  H9  UNL     1      58.125  17.758  18.133  1.00  0.00     0.210 HD
ENDBRANCH   8  35
TORSDOF 12
ENDMDL
