MODEL 1
REMARK VINA RESULT: -7.137146997      0.000      0.000
REMARK  2 active torsions:
REMARK  status: ('A' for Active; 'I' for Inactive)
REMARK    1  A    between atoms: N3_4  and  N4_6 
REMARK       I    between atoms: N4_6  and  C2_7 
REMARK    2  A    between atoms: C2_7  and  C3_9 
REMARK       I    between atoms: C3_9  and  N5_11 
ROOT
HETATM    1  N4  UNL     1      -3.757  26.842  26.897  1.00  0.00    -0.274 NA
HETATM    2  C2  UNL     1      -2.494  26.417  26.481  1.00  0.00     0.403 C 
HETATM    3  O1  UNL     1      -1.771  25.622  27.094  1.00  0.00    -0.244 OA
ENDROOT
BRANCH   2   4
HETATM    4  C3  UNL     1      -1.955  26.937  25.217  1.00  0.00     0.332 C 
HETATM    5  O2  UNL     1      -2.623  26.758  24.174  1.00  0.00    -0.261 OA
HETATM    6  N5  UNL     1      -0.743  27.602  25.150  1.00  0.00    -0.294 N 
HETATM    7  C4  UNL     1      -0.025  27.833  24.102  1.00  0.00     0.203 C 
ATOM      8  H5  UNL     1      -0.372  27.950  26.034  1.00  0.00     0.171 HD
HETATM    9  N6  UNL     1       1.190  28.528  24.248  1.00  0.00    -0.066 NA
HETATM   10  N7  UNL     1      -0.491  27.381  22.849  1.00  0.00    -0.066 NA
ENDBRANCH   2   4
BRANCH   1  11
HETATM   11  N3  UNL     1      -4.879  27.221  27.269  1.00  0.00    -0.205 N 
HETATM   12  C1  UNL     1      -5.991  27.674  26.839  1.00  0.00     0.226 C 
HETATM   13  N1  UNL     1      -6.240  27.898  25.484  1.00  0.00    -0.065 NA
HETATM   14  N2  UNL     1      -6.996  27.963  27.785  1.00  0.00    -0.065 NA
ATOM     15  H3  UNL     1      -4.930  27.143  28.284  1.00  0.00     0.204 HD
ENDBRANCH   1  11
TORSDOF 2
ENDMDL
MODEL 2
REMARK VINA RESULT: -6.856644433      2.378      3.122
REMARK  2 active torsions:
REMARK  status: ('A' for Active; 'I' for Inactive)
REMARK    1  A    between atoms: N3_4  and  N4_6 
REMARK       I    between atoms: N4_6  and  C2_7 
REMARK    2  A    between atoms: C2_7  and  C3_9 
REMARK       I    between atoms: C3_9  and  N5_11 
ROOT
HETATM    1  N4  UNL     1      -2.351  26.635  27.202  1.00  0.00    -0.274 NA
HETATM    2  C2  UNL     1      -2.908  26.824  25.936  1.00  0.00     0.403 C 
HETATM    3  O1  UNL     1      -4.117  26.784  25.676  1.00  0.00    -0.244 OA
ENDROOT
BRANCH   2   4
HETATM    4  C3  UNL     1      -2.012  27.093  24.804  1.00  0.00     0.332 C 
HETATM    5  O2  UNL     1      -2.333  26.647  23.680  1.00  0.00    -0.261 OA
HETATM    6  N5  UNL     1      -0.836  27.809  24.948  1.00  0.00    -0.294 N 
HETATM    7  C4  UNL     1       0.165  27.857  24.133  1.00  0.00     0.203 C 
ATOM      8  H5  UNL     1      -0.750  28.366  25.799  1.00  0.00     0.171 HD
HETATM    9  N6  UNL     1       1.279  28.648  24.469  1.00  0.00    -0.066 NA
HETATM   10  N7  UNL     1       0.099  27.113  22.936  1.00  0.00    -0.066 NA
ENDBRANCH   2   4
BRANCH   1  11
HETATM   11  N3  UNL     1      -1.855  26.466  28.328  1.00  0.00    -0.205 N 
HETATM   12  C1  UNL     1      -2.121  26.040  29.500  1.00  0.00     0.226 C 
HETATM   13  N1  UNL     1      -3.375  25.538  29.854  1.00  0.00    -0.065 NA
HETATM   14  N2  UNL     1      -1.098  26.094  30.470  1.00  0.00    -0.065 NA
ATOM     15  H3  UNL     1      -0.886  26.782  28.309  1.00  0.00     0.204 HD
ENDBRANCH   1  11
TORSDOF 2
ENDMDL
MODEL 3
REMARK VINA RESULT: -6.772930358      1.171      5.855
REMARK  2 active torsions:
REMARK  status: ('A' for Active; 'I' for Inactive)
REMARK    1  A    between atoms: N3_4  and  N4_6 
REMARK       I    between atoms: N4_6  and  C2_7 
REMARK    2  A    between atoms: C2_7  and  C3_9 
REMARK       I    between atoms: C3_9  and  N5_11 
ROOT
HETATM    1  N4  UNL     1      -1.151  27.063  25.489  1.00  0.00    -0.274 NA
HETATM    2  C2  UNL     1      -2.473  26.624  25.391  1.00  0.00     0.403 C 
HETATM    3  O1  UNL     1      -2.960  26.041  24.415  1.00  0.00    -0.244 OA
ENDROOT
BRANCH   2   4
HETATM    4  C3  UNL     1      -3.380  26.857  26.523  1.00  0.00     0.332 C 
HETATM    5  O2  UNL     1      -2.918  26.747  27.680  1.00  0.00    -0.261 OA
HETATM    6  N5  UNL     1      -4.714  27.182  26.344  1.00  0.00    -0.294 N 
HETATM    7  C4  UNL     1      -5.667  27.115  27.213  1.00  0.00     0.203 C 
ATOM      8  H5  UNL     1      -4.975  27.515  25.416  1.00  0.00     0.171 HD
HETATM    9  N6  UNL     1      -6.967  27.490  26.827  1.00  0.00    -0.066 NA
HETATM   10  N7  UNL     1      -5.363  26.669  28.517  1.00  0.00    -0.066 NA
ENDBRANCH   2   4
BRANCH   1  11
HETATM   11  N3  UNL     1       0.024  27.455  25.575  1.00  0.00    -0.205 N 
HETATM   12  C1  UNL     1       0.936  28.076  24.937  1.00  0.00     0.226 C 
HETATM   13  N1  UNL     1       0.743  28.583  23.650  1.00  0.00    -0.065 NA
HETATM   14  N2  UNL     1       2.187  28.242  25.566  1.00  0.00    -0.065 NA
ATOM     15  H3  UNL     1       0.393  27.180  26.485  1.00  0.00     0.204 HD
ENDBRANCH   1  11
TORSDOF 2
ENDMDL
MODEL 4
REMARK VINA RESULT: -6.739978924      1.585      5.276
REMARK  2 active torsions:
REMARK  status: ('A' for Active; 'I' for Inactive)
REMARK    1  A    between atoms: N3_4  and  N4_6 
REMARK       I    between atoms: N4_6  and  C2_7 
REMARK    2  A    between atoms: C2_7  and  C3_9 
REMARK       I    between atoms: C3_9  and  N5_11 
ROOT
HETATM    1  N4  UNL     1      -1.855  26.755  26.239  1.00  0.00    -0.274 NA
HETATM    2  C2  UNL     1      -2.634  26.502  27.369  1.00  0.00     0.403 C 
HETATM    3  O1  UNL     1      -2.322  25.743  28.295  1.00  0.00    -0.244 OA
ENDROOT
BRANCH   2   4
HETATM    4  C3  UNL     1      -3.932  27.178  27.498  1.00  0.00     0.332 C 
HETATM    5  O2  UNL     1      -4.312  27.510  28.642  1.00  0.00    -0.261 OA
HETATM    6  N5  UNL     1      -4.737  27.443  26.404  1.00  0.00    -0.294 N 
HETATM    7  C4  UNL     1      -5.994  27.741  26.400  1.00  0.00     0.203 C 
ATOM      8  H5  UNL     1      -4.284  27.398  25.491  1.00  0.00     0.171 HD
HETATM    9  N6  UNL     1      -6.636  27.972  25.169  1.00  0.00    -0.066 NA
HETATM   10  N7  UNL     1      -6.673  27.825  27.635  1.00  0.00    -0.066 NA
ENDBRANCH   2   4
BRANCH   1  11
HETATM   11  N3  UNL     1      -1.162  26.980  25.233  1.00  0.00    -0.205 N 
HETATM   12  C1  UNL     1      -1.205  27.019  23.960  1.00  0.00     0.226 C 
HETATM   13  N1  UNL     1      -2.365  26.736  23.236  1.00  0.00    -0.065 NA
HETATM   14  N2  UNL     1      -0.022  27.353  23.269  1.00  0.00    -0.065 NA
ATOM     15  H3  UNL     1      -0.218  27.219  25.535  1.00  0.00     0.204 HD
ENDBRANCH   1  11
TORSDOF 2
ENDMDL
MODEL 5
REMARK VINA RESULT: -6.689924122      2.456      3.136
REMARK  2 active torsions:
REMARK  status: ('A' for Active; 'I' for Inactive)
REMARK    1  A    between atoms: N3_4  and  N4_6 
REMARK       I    between atoms: N4_6  and  C2_7 
REMARK    2  A    between atoms: C2_7  and  C3_9 
REMARK       I    between atoms: C3_9  and  N5_11 
ROOT
HETATM    1  N4  UNL     1      -2.313  26.969  25.621  1.00  0.00    -0.274 NA
HETATM    2  C2  UNL     1      -1.777  26.963  24.332  1.00  0.00     0.403 C 
HETATM    3  O1  UNL     1      -2.385  26.626  23.309  1.00  0.00    -0.244 OA
ENDROOT
BRANCH   2   4
HETATM    4  C3  UNL     1      -0.383  27.388  24.145  1.00  0.00     0.332 C 
HETATM    5  O2  UNL     1       0.101  27.325  22.993  1.00  0.00    -0.261 OA
HETATM    6  N5  UNL     1       0.398  27.839  25.194  1.00  0.00    -0.294 N 
HETATM    7  C4  UNL     1       1.684  27.949  25.233  1.00  0.00     0.203 C 
ATOM      8  H5  UNL     1      -0.102  28.119  26.039  1.00  0.00     0.171 HD
HETATM    9  N6  UNL     1       2.292  28.430  26.408  1.00  0.00    -0.066 NA
HETATM   10  N7  UNL     1       2.428  27.583  24.091  1.00  0.00    -0.066 NA
ENDBRANCH   2   4
BRANCH   1  11
HETATM   11  N3  UNL     1      -2.789  26.973  26.768  1.00  0.00    -0.205 N 
HETATM   12  C1  UNL     1      -2.583  26.552  27.954  1.00  0.00     0.226 C 
HETATM   13  N1  UNL     1      -1.468  25.785  28.298  1.00  0.00    -0.065 NA
HETATM   14  N2  UNL     1      -3.534  26.875  28.944  1.00  0.00    -0.065 NA
ATOM     15  H3  UNL     1      -3.659  27.505  26.758  1.00  0.00     0.204 HD
ENDBRANCH   1  11
TORSDOF 2
ENDMDL
