MODEL 1
REMARK VINA RESULT: -7.318735696      0.000      0.000
REMARK  2 active torsions:
REMARK  status: ('A' for Active; 'I' for Inactive)
REMARK       I    between atoms: C1_4  and  N3_6 
REMARK       I    between atoms: C2_8  and  N5_10 
REMARK       I    between atoms: N5_10  and  C3_12 
REMARK    1  A    between atoms: C3_12  and  C4_14 
REMARK    2  A    between atoms: N6_15  and  O2_17 
ROOT
HETATM    1  N1  UNL     1      -2.349  26.210  27.727  1.00  0.00    -0.373 N 
ATOM      2  H11 UNL     1      -1.697  25.510  27.374  1.00  0.00     0.158 HD
ATOM      3  H12 UNL     1      -2.331  26.414  28.726  1.00  0.00     0.158 HD
HETATM    4  C1  UNL     1      -3.132  26.768  26.881  1.00  0.00     0.188 C 
HETATM    5  N2  UNL     1      -4.040  27.742  27.371  1.00  0.00    -0.064 NA
HETATM    6  N3  UNL     1      -3.158  26.486  25.496  1.00  0.00    -0.305 N 
ATOM      7  H3  UNL     1      -3.956  25.977  25.116  1.00  0.00     0.171 HD
HETATM    8  C2  UNL     1      -2.209  26.847  24.686  1.00  0.00     0.197 C 
HETATM    9  N4  UNL     1      -2.374  26.492  23.322  1.00  0.00    -0.063 NA
HETATM   10  N5  UNL     1      -1.072  27.554  25.135  1.00  0.00    -0.296 N 
ATOM     11  H5  UNL     1      -0.991  27.791  26.124  1.00  0.00     0.171 HD
HETATM   12  C3  UNL     1      -0.056  27.938  24.258  1.00  0.00     0.265 C 
HETATM   13  O1  UNL     1      -0.238  27.599  23.022  1.00  0.00    -0.267 OA
ENDROOT
BRANCH  12  14
HETATM   14  C4  UNL     1       1.144  28.653  24.572  1.00  0.00     0.188 C 
HETATM   15  N6  UNL     1       1.989  28.426  25.476  1.00  0.00    -0.275 N 
ATOM     16  H6  UNL     1       2.790  29.053  25.544  1.00  0.00     0.193 HD
BRANCH  15  17
HETATM   17  O2  UNL     1       1.911  27.403  26.370  1.00  0.00    -0.290 OA
ATOM     18  H2  UNL     1       2.479  26.642  26.371  1.00  0.00     0.244 HD
ENDBRANCH  15  17
ENDBRANCH  12  14
TORSDOF 2
ENDMDL
MODEL 2
REMARK VINA RESULT: -6.223046585      1.981      4.273
REMARK  2 active torsions:
REMARK  status: ('A' for Active; 'I' for Inactive)
REMARK       I    between atoms: C1_4  and  N3_6 
REMARK       I    between atoms: C2_8  and  N5_10 
REMARK       I    between atoms: N5_10  and  C3_12 
REMARK    1  A    between atoms: C3_12  and  C4_14 
REMARK    2  A    between atoms: N6_15  and  O2_17 
ROOT
HETATM    1  N1  UNL     1       1.055  29.146  25.254  1.00  0.00    -0.373 N 
ATOM      2  H11 UNL     1       0.220  29.730  25.213  1.00  0.00     0.158 HD
ATOM      3  H12 UNL     1       1.812  29.444  25.869  1.00  0.00     0.158 HD
HETATM    4  C1  UNL     1       1.076  28.090  24.528  1.00  0.00     0.188 C 
HETATM    5  N2  UNL     1       2.237  27.278  24.585  1.00  0.00    -0.064 NA
HETATM    6  N3  UNL     1       0.027  27.677  23.676  1.00  0.00    -0.305 N 
ATOM      7  H3  UNL     1       0.162  27.745  22.667  1.00  0.00     0.171 HD
HETATM    8  C2  UNL     1      -1.101  27.212  24.122  1.00  0.00     0.197 C 
HETATM    9  N4  UNL     1      -2.060  26.836  23.145  1.00  0.00    -0.063 NA
HETATM   10  N5  UNL     1      -1.363  27.085  25.503  1.00  0.00    -0.296 N 
ATOM     11  H5  UNL     1      -0.647  27.366  26.174  1.00  0.00     0.171 HD
HETATM   12  C3  UNL     1      -2.579  26.586  25.975  1.00  0.00     0.265 C 
HETATM   13  O1  UNL     1      -3.430  26.253  25.058  1.00  0.00    -0.267 OA
ENDROOT
BRANCH  12  14
HETATM   14  C4  UNL     1      -2.978  26.404  27.337  1.00  0.00     0.188 C 
HETATM   15  N6  UNL     1      -2.278  26.078  28.331  1.00  0.00    -0.275 N 
ATOM     16  H6  UNL     1      -2.747  25.999  29.234  1.00  0.00     0.193 HD
BRANCH  15  17
HETATM   17  O2  UNL     1      -0.943  25.825  28.289  1.00  0.00    -0.290 OA
ATOM     18  H2  UNL     1      -0.272  26.397  28.643  1.00  0.00     0.244 HD
ENDBRANCH  15  17
ENDBRANCH  12  14
TORSDOF 2
ENDMDL
MODEL 3
REMARK VINA RESULT: -5.760323126      2.703      4.452
REMARK  2 active torsions:
REMARK  status: ('A' for Active; 'I' for Inactive)
REMARK       I    between atoms: C1_4  and  N3_6 
REMARK       I    between atoms: C2_8  and  N5_10 
REMARK       I    between atoms: N5_10  and  C3_12 
REMARK    1  A    between atoms: C3_12  and  C4_14 
REMARK    2  A    between atoms: N6_15  and  O2_17 
ROOT
HETATM    1  N1  UNL     1       0.504  28.624  24.701  1.00  0.00    -0.373 N 
ATOM      2  H11 UNL     1      -0.067  29.265  25.251  1.00  0.00     0.158 HD
ATOM      3  H12 UNL     1       1.511  28.785  24.680  1.00  0.00     0.158 HD
HETATM    4  C1  UNL     1      -0.097  27.674  24.088  1.00  0.00     0.188 C 
HETATM    5  N2  UNL     1       0.697  26.781  23.323  1.00  0.00    -0.064 NA
HETATM    6  N3  UNL     1      -1.493  27.450  24.118  1.00  0.00    -0.305 N 
ATOM      7  H3  UNL     1      -2.036  27.640  23.275  1.00  0.00     0.171 HD
HETATM    8  C2  UNL     1      -2.113  27.011  25.172  1.00  0.00     0.197 C 
HETATM    9  N4  UNL     1      -3.516  26.835  25.051  1.00  0.00    -0.063 NA
HETATM   10  N5  UNL     1      -1.432  26.724  26.375  1.00  0.00    -0.296 N 
ATOM     11  H5  UNL     1      -0.422  26.864  26.420  1.00  0.00     0.171 HD
HETATM   12  C3  UNL     1      -2.106  26.254  27.503  1.00  0.00     0.265 C 
HETATM   13  O1  UNL     1      -3.384  26.105  27.358  1.00  0.00    -0.267 OA
ENDROOT
BRANCH  12  14
HETATM   14  C4  UNL     1      -1.548  25.925  28.779  1.00  0.00     0.188 C 
HETATM   15  N6  UNL     1      -1.528  26.608  29.836  1.00  0.00    -0.275 N 
ATOM     16  H6  UNL     1      -1.080  26.199  30.655  1.00  0.00     0.193 HD
BRANCH  15  17
HETATM   17  O2  UNL     1      -2.062  27.852  29.964  1.00  0.00    -0.290 OA
ATOM     18  H2  UNL     1      -2.470  28.341  29.260  1.00  0.00     0.244 HD
ENDBRANCH  15  17
ENDBRANCH  12  14
TORSDOF 2
ENDMDL
MODEL 4
REMARK VINA RESULT: -5.724767943      2.943      5.284
REMARK  2 active torsions:
REMARK  status: ('A' for Active; 'I' for Inactive)
REMARK       I    between atoms: C1_4  and  N3_6 
REMARK       I    between atoms: C2_8  and  N5_10 
REMARK       I    between atoms: N5_10  and  C3_12 
REMARK    1  A    between atoms: C3_12  and  C4_14 
REMARK    2  A    between atoms: N6_15  and  O2_17 
ROOT
HETATM    1  N1  UNL     1      -2.180  27.306  23.404  1.00  0.00    -0.373 N 
ATOM      2  H11 UNL     1      -2.863  26.553  23.492  1.00  0.00     0.158 HD
ATOM      3  H12 UNL     1      -2.284  27.951  22.621  1.00  0.00     0.158 HD
HETATM    4  C1  UNL     1      -1.255  27.371  24.288  1.00  0.00     0.188 C 
HETATM    5  N2  UNL     1      -0.306  28.419  24.166  1.00  0.00    -0.064 NA
HETATM    6  N3  UNL     1      -1.111  26.477  25.373  1.00  0.00    -0.305 N 
ATOM      7  H3  UNL     1      -0.336  25.815  25.360  1.00  0.00     0.171 HD
HETATM    8  C2  UNL     1      -1.923  26.464  26.387  1.00  0.00     0.197 C 
HETATM    9  N4  UNL     1      -1.651  25.509  27.401  1.00  0.00    -0.063 NA
HETATM   10  N5  UNL     1      -3.018  27.350  26.479  1.00  0.00    -0.296 N 
ATOM     11  H5  UNL     1      -3.179  28.022  25.728  1.00  0.00     0.171 HD
HETATM   12  C3  UNL     1      -3.887  27.328  27.571  1.00  0.00     0.265 C 
HETATM   13  O1  UNL     1      -3.610  26.446  28.478  1.00  0.00    -0.267 OA
ENDROOT
BRANCH  12  14
HETATM   14  C4  UNL     1      -5.029  28.161  27.795  1.00  0.00     0.188 C 
HETATM   15  N6  UNL     1      -5.995  28.406  27.025  1.00  0.00    -0.275 N 
ATOM     16  H6  UNL     1      -6.725  29.031  27.366  1.00  0.00     0.193 HD
BRANCH  15  17
HETATM   17  O2  UNL     1      -6.136  27.895  25.773  1.00  0.00    -0.290 OA
ATOM     18  H2  UNL     1      -5.615  28.153  25.021  1.00  0.00     0.244 HD
ENDBRANCH  15  17
ENDBRANCH  12  14
TORSDOF 2
ENDMDL
MODEL 5
REMARK VINA RESULT: -5.531521777      2.494      3.803
REMARK  2 active torsions:
REMARK  status: ('A' for Active; 'I' for Inactive)
REMARK       I    between atoms: C1_4  and  N3_6 
REMARK       I    between atoms: C2_8  and  N5_10 
REMARK       I    between atoms: N5_10  and  C3_12 
REMARK    1  A    between atoms: C3_12  and  C4_14 
REMARK    2  A    between atoms: N6_15  and  O2_17 
ROOT
HETATM    1  N1  UNL     1      -1.654  25.984  30.283  1.00  0.00    -0.373 N 
ATOM      2  H11 UNL     1      -1.967  25.126  29.829  1.00  0.00     0.158 HD
ATOM      3  H12 UNL     1      -0.730  25.982  30.716  1.00  0.00     0.158 HD
HETATM    4  C1  UNL     1      -2.451  26.986  30.267  1.00  0.00     0.188 C 
HETATM    5  N2  UNL     1      -2.016  28.180  30.898  1.00  0.00    -0.064 NA
HETATM    6  N3  UNL     1      -3.731  26.990  29.668  1.00  0.00    -0.305 N 
ATOM      7  H3  UNL     1      -4.553  27.006  30.272  1.00  0.00     0.171 HD
HETATM    8  C2  UNL     1      -3.906  26.973  28.380  1.00  0.00     0.197 C 
HETATM    9  N4  UNL     1      -5.251  26.980  27.925  1.00  0.00    -0.063 NA
HETATM   10  N5  UNL     1      -2.820  26.951  27.479  1.00  0.00    -0.296 N 
ATOM     11  H5  UNL     1      -1.868  26.948  27.846  1.00  0.00     0.171 HD
HETATM   12  C3  UNL     1      -3.016  26.932  26.097  1.00  0.00     0.265 C 
HETATM   13  O1  UNL     1      -4.253  26.939  25.717  1.00  0.00    -0.267 OA
ENDROOT
BRANCH  12  14
HETATM   14  C4  UNL     1      -2.015  26.909  25.074  1.00  0.00     0.188 C 
HETATM   15  N6  UNL     1      -0.763  26.872  25.191  1.00  0.00    -0.275 N 
ATOM     16  H6  UNL     1      -0.208  26.859  24.335  1.00  0.00     0.193 HD
BRANCH  15  17
HETATM   17  O2  UNL     1      -0.095  26.847  26.375  1.00  0.00    -0.290 OA
ATOM     18  H2  UNL     1       0.235  27.614  26.827  1.00  0.00     0.244 HD
ENDBRANCH  15  17
ENDBRANCH  12  14
TORSDOF 2
ENDMDL
