MODEL 1
REMARK VINA RESULT: -5.193321854      0.000      0.000
REMARK  5 active torsions:
REMARK  status: ('A' for Active; 'I' for Inactive)
REMARK    1  A    between atoms: N1_1  and  N2_4 
REMARK    2  A    between atoms: N2_4  and  C1_6 
REMARK    3  A    between atoms: C1_6  and  O1_7 
REMARK    4  A    between atoms: C1_6  and  N3_9 
REMARK    5  A    between atoms: N3_9  and  N4_10 
REMARK       I    between atoms: N3_9  and  C3_15 
ROOT
HETATM    1  N3  UNL     1      -2.740  26.484  26.618  1.00  0.00    -0.166 N 
HETATM    2  C3  UNL     1      -3.796  27.165  27.196  1.00  0.00     0.357 C 
HETATM    3  N7  UNL     1      -4.901  27.563  26.376  1.00  0.00    -0.038 NA
HETATM    4  O2  UNL     1      -3.884  27.475  28.394  1.00  0.00    -0.248 OA
ENDROOT
BRANCH   1   5
HETATM    5  C1  UNL     1      -1.611  26.048  27.324  1.00  0.00     0.261 C 
BRANCH   5   6
HETATM    6  N2  UNL     1      -1.523  25.161  28.389  1.00  0.00    -0.270 N 
ATOM      7  H2  UNL     1      -1.303  24.183  28.204  1.00  0.00     0.190 HD
BRANCH   6   8
HETATM    8  N1  UNL     1      -1.730  25.577  29.714  1.00  0.00    -0.342 N 
ATOM      9  H12 UNL     1      -2.635  25.982  29.955  1.00  0.00     0.176 HD
ATOM     10  H11 UNL     1      -1.004  25.482  30.425  1.00  0.00     0.176 HD
ENDBRANCH   6   8
ENDBRANCH   5   6
BRANCH   5  11
HETATM   11  O1  UNL     1      -0.462  26.535  26.942  1.00  0.00    -0.330 OA
ATOM     12  H1  UNL     1      -0.111  26.130  26.158  1.00  0.00     0.221 HD
ENDBRANCH   5  11
ENDBRANCH   1   5
BRANCH   1  13
HETATM   13  N4  UNL     1      -2.787  26.203  25.227  1.00  0.00    -0.262 N 
HETATM   14  C2  UNL     1      -2.139  26.932  24.381  1.00  0.00     0.216 C 
HETATM   15  N5  UNL     1      -1.349  28.038  24.751  1.00  0.00    -0.065 NA
HETATM   16  N6  UNL     1      -2.238  26.585  23.007  1.00  0.00    -0.065 NA
ATOM     17  H4  UNL     1      -3.340  25.414  24.891  1.00  0.00     0.190 HD
ENDBRANCH   1  13
TORSDOF 5
ENDMDL
MODEL 2
REMARK VINA RESULT: -5.190899865      1.853      3.841
REMARK  5 active torsions:
REMARK  status: ('A' for Active; 'I' for Inactive)
REMARK    1  A    between atoms: N1_1  and  N2_4 
REMARK    2  A    between atoms: N2_4  and  C1_6 
REMARK    3  A    between atoms: C1_6  and  O1_7 
REMARK    4  A    between atoms: C1_6  and  N3_9 
REMARK    5  A    between atoms: N3_9  and  N4_10 
REMARK       I    between atoms: N3_9  and  C3_15 
ROOT
HETATM    1  N3  UNL     1      -2.732  26.855  27.285  1.00  0.00    -0.166 N 
HETATM    2  C3  UNL     1      -4.005  27.090  26.801  1.00  0.00     0.357 C 
HETATM    3  N7  UNL     1      -4.998  27.630  27.682  1.00  0.00    -0.038 NA
HETATM    4  O2  UNL     1      -4.387  26.872  25.640  1.00  0.00    -0.248 OA
ENDROOT
BRANCH   1   5
HETATM    5  C1  UNL     1      -1.687  26.331  26.513  1.00  0.00     0.261 C 
BRANCH   5   6
HETATM    6  N2  UNL     1      -0.385  26.789  26.362  1.00  0.00    -0.270 N 
ATOM      7  H2  UNL     1       0.326  26.497  27.032  1.00  0.00     0.190 HD
BRANCH   6   8
HETATM    8  N1  UNL     1      -0.021  27.644  25.309  1.00  0.00    -0.342 N 
ATOM      9  H12 UNL     1       0.887  28.106  25.356  1.00  0.00     0.176 HD
ATOM     10  H11 UNL     1      -0.639  27.808  24.514  1.00  0.00     0.176 HD
ENDBRANCH   6   8
ENDBRANCH   5   6
BRANCH   5  11
HETATM   11  O1  UNL     1      -1.954  25.253  25.827  1.00  0.00    -0.330 OA
ATOM     12  H1  UNL     1      -1.255  24.984  25.242  1.00  0.00     0.221 HD
ENDBRANCH   5  11
ENDBRANCH   1   5
BRANCH   1  13
HETATM   13  N4  UNL     1      -2.450  27.157  28.643  1.00  0.00    -0.262 N 
HETATM   14  C2  UNL     1      -1.865  26.296  29.407  1.00  0.00     0.216 C 
HETATM   15  N5  UNL     1      -1.464  25.016  28.972  1.00  0.00    -0.065 NA
HETATM   16  N6  UNL     1      -1.619  26.675  30.754  1.00  0.00    -0.065 NA
ATOM     17  H4  UNL     1      -2.713  28.067  29.022  1.00  0.00     0.190 HD
ENDBRANCH   1  13
TORSDOF 5
ENDMDL
MODEL 3
REMARK VINA RESULT: -5.155244386      2.047      3.882
REMARK  5 active torsions:
REMARK  status: ('A' for Active; 'I' for Inactive)
REMARK    1  A    between atoms: N1_1  and  N2_4 
REMARK    2  A    between atoms: N2_4  and  C1_6 
REMARK    3  A    between atoms: C1_6  and  O1_7 
REMARK    4  A    between atoms: C1_6  and  N3_9 
REMARK    5  A    between atoms: N3_9  and  N4_10 
REMARK       I    between atoms: N3_9  and  C3_15 
ROOT
HETATM    1  N3  UNL     1      -2.845  26.841  27.039  1.00  0.00    -0.166 N 
HETATM    2  C3  UNL     1      -3.662  26.659  25.938  1.00  0.00     0.357 C 
HETATM    3  N7  UNL     1      -4.981  27.216  25.948  1.00  0.00    -0.038 NA
HETATM    4  O2  UNL     1      -3.354  26.039  24.907  1.00  0.00    -0.248 OA
ENDROOT
BRANCH   1   5
HETATM    5  C1  UNL     1      -1.540  26.340  27.135  1.00  0.00     0.261 C 
BRANCH   5   6
HETATM    6  N2  UNL     1      -0.392  26.731  26.459  1.00  0.00    -0.270 N 
ATOM      7  H2  UNL     1       0.520  26.523  26.867  1.00  0.00     0.190 HD
BRANCH   6   8
HETATM    8  N1  UNL     1      -0.453  27.407  25.230  1.00  0.00    -0.342 N 
ATOM      9  H12 UNL     1      -1.362  27.742  24.911  1.00  0.00     0.176 HD
ATOM     10  H11 UNL     1       0.380  27.563  24.663  1.00  0.00     0.176 HD
ENDBRANCH   6   8
ENDBRANCH   5   6
BRANCH   5  11
HETATM   11  O1  UNL     1      -1.353  25.361  27.977  1.00  0.00    -0.330 OA
ATOM     12  H1  UNL     1      -0.585  24.832  27.792  1.00  0.00     0.221 HD
ENDBRANCH   5  11
ENDBRANCH   1   5
BRANCH   1  13
HETATM   13  N4  UNL     1      -3.344  27.576  28.146  1.00  0.00    -0.262 N 
HETATM   14  C2  UNL     1      -3.843  26.972  29.172  1.00  0.00     0.216 C 
HETATM   15  N5  UNL     1      -3.934  25.570  29.282  1.00  0.00    -0.065 NA
HETATM   16  N6  UNL     1      -4.321  27.779  30.239  1.00  0.00    -0.065 NA
ATOM     17  H4  UNL     1      -3.307  28.595  28.132  1.00  0.00     0.190 HD
ENDBRANCH   1  13
TORSDOF 5
ENDMDL
MODEL 4
REMARK VINA RESULT: -5.123905260      2.496      4.068
REMARK  5 active torsions:
REMARK  status: ('A' for Active; 'I' for Inactive)
REMARK    1  A    between atoms: N1_1  and  N2_4 
REMARK    2  A    between atoms: N2_4  and  C1_6 
REMARK    3  A    between atoms: C1_6  and  O1_7 
REMARK    4  A    between atoms: C1_6  and  N3_9 
REMARK    5  A    between atoms: N3_9  and  N4_10 
REMARK       I    between atoms: N3_9  and  C3_15 
ROOT
HETATM    1  N3  UNL     1      -0.802  27.455  24.924  1.00  0.00    -0.166 N 
HETATM    2  C3  UNL     1      -1.173  27.404  23.593  1.00  0.00     0.357 C 
HETATM    3  N7  UNL     1      -0.517  28.262  22.652  1.00  0.00    -0.038 NA
HETATM    4  O2  UNL     1      -2.048  26.663  23.116  1.00  0.00    -0.248 OA
ENDROOT
BRANCH   1   5
HETATM    5  C1  UNL     1      -1.377  26.662  25.926  1.00  0.00     0.261 C 
BRANCH   5   6
HETATM    6  N2  UNL     1      -2.625  26.055  25.965  1.00  0.00    -0.270 N 
ATOM      7  H2  UNL     1      -2.682  25.048  26.117  1.00  0.00     0.190 HD
BRANCH   6   8
HETATM    8  N1  UNL     1      -3.809  26.790  25.800  1.00  0.00    -0.342 N 
ATOM      9  H12 UNL     1      -3.837  27.744  26.162  1.00  0.00     0.176 HD
ATOM     10  H11 UNL     1      -4.625  26.394  25.334  1.00  0.00     0.176 HD
ENDBRANCH   6   8
ENDBRANCH   5   6
BRANCH   5  11
HETATM   11  O1  UNL     1      -0.650  26.452  26.990  1.00  0.00    -0.330 OA
ATOM     12  H1  UNL     1      -0.708  27.143  27.640  1.00  0.00     0.221 HD
ENDBRANCH   5  11
ENDBRANCH   1   5
BRANCH   1  13
HETATM   13  N4  UNL     1       0.219  28.360  25.315  1.00  0.00    -0.262 N 
HETATM   14  C2  UNL     1       1.457  28.125  25.032  1.00  0.00     0.216 C 
HETATM   15  N5  UNL     1       1.892  26.984  24.328  1.00  0.00    -0.065 NA
HETATM   16  N6  UNL     1       2.419  29.080  25.458  1.00  0.00    -0.065 NA
ATOM     17  H4  UNL     1      -0.027  29.207  25.826  1.00  0.00     0.190 HD
ENDBRANCH   1  13
TORSDOF 5
ENDMDL
MODEL 5
REMARK VINA RESULT: -5.117528322      1.865      3.612
REMARK  5 active torsions:
REMARK  status: ('A' for Active; 'I' for Inactive)
REMARK    1  A    between atoms: N1_1  and  N2_4 
REMARK    2  A    between atoms: N2_4  and  C1_6 
REMARK    3  A    between atoms: C1_6  and  O1_7 
REMARK    4  A    between atoms: C1_6  and  N3_9 
REMARK    5  A    between atoms: N3_9  and  N4_10 
REMARK       I    between atoms: N3_9  and  C3_15 
ROOT
HETATM    1  N3  UNL     1      -3.540  27.211  26.820  1.00  0.00    -0.166 N 
HETATM    2  C3  UNL     1      -4.898  27.451  26.731  1.00  0.00     0.357 C 
HETATM    3  N7  UNL     1      -5.642  27.711  27.928  1.00  0.00    -0.038 NA
HETATM    4  O2  UNL     1      -5.560  27.465  25.681  1.00  0.00    -0.248 OA
ENDROOT
BRANCH   1   5
HETATM    5  C1  UNL     1      -2.718  26.946  25.717  1.00  0.00     0.261 C 
BRANCH   5   6
HETATM    6  N2  UNL     1      -1.579  27.611  25.284  1.00  0.00    -0.270 N 
ATOM      7  H2  UNL     1      -1.680  28.426  24.679  1.00  0.00     0.190 HD
BRANCH   6   8
HETATM    8  N1  UNL     1      -0.292  27.191  25.656  1.00  0.00    -0.342 N 
ATOM      9  H12 UNL     1       0.473  27.861  25.579  1.00  0.00     0.176 HD
ATOM     10  H11 UNL     1      -0.115  26.245  25.995  1.00  0.00     0.176 HD
ENDBRANCH   6   8
ENDBRANCH   5   6
BRANCH   5  11
HETATM   11  O1  UNL     1      -3.055  25.929  24.971  1.00  0.00    -0.330 OA
ATOM     12  H1  UNL     1      -3.851  25.491  25.250  1.00  0.00     0.221 HD
ENDBRANCH   5  11
ENDBRANCH   1   5
BRANCH   1  13
HETATM   13  N4  UNL     1      -2.925  27.228  28.100  1.00  0.00    -0.262 N 
HETATM   14  C2  UNL     1      -2.088  26.308  28.446  1.00  0.00     0.216 C 
HETATM   15  N5  UNL     1      -1.718  25.237  27.609  1.00  0.00    -0.065 NA
HETATM   16  N6  UNL     1      -1.516  26.397  29.744  1.00  0.00    -0.065 NA
ATOM     17  H4  UNL     1      -3.148  27.977  28.755  1.00  0.00     0.190 HD
ENDBRANCH   1  13
TORSDOF 5
ENDMDL
