MODEL 1
REMARK VINA RESULT: -6.161273666      0.000      0.000
REMARK  3 active torsions:
REMARK  status: ('A' for Active; 'I' for Inactive)
REMARK    1  A    between atoms: C1_4  and  N2_5 
REMARK    2  A    between atoms: C1_4  and  C3_14 
REMARK       I    between atoms: N2_5  and  C2_7 
REMARK    3  A    between atoms: N4_9  and  N5_11 
REMARK       I    between atoms: C3_14  and  N6_16 
ROOT
HETATM    1  N1  UNL     1      -4.790  26.876  26.310  1.00  0.00    -0.381 N 
ATOM      2  H11 UNL     1      -4.998  26.364  25.453  1.00  0.00     0.157 HD
ATOM      3  H12 UNL     1      -5.554  27.248  26.876  1.00  0.00     0.157 HD
HETATM    4  C1  UNL     1      -3.547  27.028  26.638  1.00  0.00     0.171 C 
ENDROOT
BRANCH   4   5
HETATM    5  N2  UNL     1      -3.262  27.730  27.814  1.00  0.00    -0.311 N 
HETATM    6  C2  UNL     1      -2.945  26.990  28.988  1.00  0.00     0.208 C 
HETATM    7  N3  UNL     1      -3.609  25.776  29.318  1.00  0.00    -0.062 NA
HETATM    8  N4  UNL     1      -2.021  27.469  29.751  1.00  0.00    -0.280 N 
ATOM      9  H4  UNL     1      -1.579  28.343  29.465  1.00  0.00     0.189 HD
ATOM     10  H2  UNL     1      -3.282  28.749  27.831  1.00  0.00     0.170 HD
BRANCH   8  11
HETATM   11  N5  UNL     1      -1.587  26.890  30.917  1.00  0.00    -0.343 N 
ATOM     12  H52 UNL     1      -2.221  26.222  31.355  1.00  0.00     0.176 HD
ATOM     13  H51 UNL     1      -0.692  27.082  31.366  1.00  0.00     0.176 HD
ENDBRANCH   8  11
ENDBRANCH   4   5
BRANCH   4  14
HETATM   14  C3  UNL     1      -2.461  26.501  25.834  1.00  0.00     0.291 C 
HETATM   15  O1  UNL     1      -2.369  25.281  25.552  1.00  0.00    -0.264 OA
HETATM   16  N6  UNL     1      -1.461  27.381  25.345  1.00  0.00    -0.297 N 
HETATM   17  C4  UNL     1      -1.275  27.492  24.073  1.00  0.00     0.203 C 
ATOM     18  H6  UNL     1      -0.892  27.923  25.996  1.00  0.00     0.171 HD
HETATM   19  N7  UNL     1      -0.264  28.383  23.588  1.00  0.00    -0.066 NA
HETATM   20  N8  UNL     1      -2.059  26.745  23.162  1.00  0.00    -0.066 NA
ENDBRANCH   4  14
TORSDOF 3
ENDMDL
MODEL 2
REMARK VINA RESULT: -6.005859091      1.164      1.301
REMARK  3 active torsions:
REMARK  status: ('A' for Active; 'I' for Inactive)
REMARK    1  A    between atoms: C1_4  and  N2_5 
REMARK    2  A    between atoms: C1_4  and  C3_14 
REMARK       I    between atoms: N2_5  and  C2_7 
REMARK    3  A    between atoms: N4_9  and  N5_11 
REMARK       I    between atoms: C3_14  and  N6_16 
ROOT
HETATM    1  N1  UNL     1      -3.685  27.464  27.026  1.00  0.00    -0.381 N 
ATOM      2  H11 UNL     1      -4.085  27.567  26.093  1.00  0.00     0.157 HD
ATOM      3  H12 UNL     1      -4.177  27.851  27.832  1.00  0.00     0.157 HD
HETATM    4  C1  UNL     1      -2.558  26.839  27.135  1.00  0.00     0.171 C 
ENDROOT
BRANCH   4   5
HETATM    5  N2  UNL     1      -2.010  26.698  28.415  1.00  0.00    -0.311 N 
HETATM    6  C2  UNL     1      -2.708  25.908  29.371  1.00  0.00     0.208 C 
HETATM    7  N3  UNL     1      -4.128  25.923  29.469  1.00  0.00    -0.062 NA
HETATM    8  N4  UNL     1      -1.996  25.171  30.154  1.00  0.00    -0.280 N 
ATOM      9  H4  UNL     1      -0.983  25.200  30.039  1.00  0.00     0.189 HD
ATOM     10  H2  UNL     1      -1.129  27.151  28.657  1.00  0.00     0.170 HD
BRANCH   8  11
HETATM   11  N5  UNL     1      -2.500  24.349  31.131  1.00  0.00    -0.343 N 
ATOM     12  H52 UNL     1      -1.962  23.508  31.339  1.00  0.00     0.176 HD
ATOM     13  H51 UNL     1      -3.360  24.521  31.652  1.00  0.00     0.176 HD
ENDBRANCH   8  11
ENDBRANCH   4   5
BRANCH   4  14
HETATM   14  C3  UNL     1      -1.859  26.290  25.989  1.00  0.00     0.291 C 
HETATM   15  O1  UNL     1      -2.057  25.119  25.582  1.00  0.00    -0.264 OA
HETATM   16  N6  UNL     1      -0.915  27.091  25.295  1.00  0.00    -0.297 N 
HETATM   17  C4  UNL     1      -1.096  27.350  24.044  1.00  0.00     0.203 C 
ATOM     18  H6  UNL     1      -0.099  27.460  25.783  1.00  0.00     0.171 HD
HETATM   19  N7  UNL     1      -0.138  28.161  23.352  1.00  0.00    -0.066 NA
HETATM   20  N8  UNL     1      -2.225  26.843  23.358  1.00  0.00    -0.066 NA
ENDBRANCH   4  14
TORSDOF 3
ENDMDL
MODEL 3
REMARK VINA RESULT: -5.894702211      1.412      2.534
REMARK  3 active torsions:
REMARK  status: ('A' for Active; 'I' for Inactive)
REMARK    1  A    between atoms: C1_4  and  N2_5 
REMARK    2  A    between atoms: C1_4  and  C3_14 
REMARK       I    between atoms: N2_5  and  C2_7 
REMARK    3  A    between atoms: N4_9  and  N5_11 
REMARK       I    between atoms: C3_14  and  N6_16 
ROOT
HETATM    1  N1  UNL     1      -2.535  27.146  28.133  1.00  0.00    -0.381 N 
ATOM      2  H11 UNL     1      -1.555  26.988  28.372  1.00  0.00     0.157 HD
ATOM      3  H12 UNL     1      -3.172  27.521  28.837  1.00  0.00     0.157 HD
HETATM    4  C1  UNL     1      -2.919  26.860  26.931  1.00  0.00     0.171 C 
ENDROOT
BRANCH   4   5
HETATM    5  N2  UNL     1      -4.262  27.077  26.604  1.00  0.00    -0.311 N 
HETATM    6  C2  UNL     1      -5.228  27.060  27.650  1.00  0.00     0.208 C 
HETATM    7  N3  UNL     1      -5.153  26.139  28.732  1.00  0.00    -0.062 NA
HETATM    8  N4  UNL     1      -6.185  27.923  27.577  1.00  0.00    -0.280 N 
ATOM      9  H4  UNL     1      -6.188  28.558  26.779  1.00  0.00     0.189 HD
ATOM     10  H2  UNL     1      -4.543  27.244  25.638  1.00  0.00     0.170 HD
BRANCH   8  11
HETATM   11  N5  UNL     1      -7.198  28.049  28.493  1.00  0.00    -0.343 N 
ATOM     12  H52 UNL     1      -6.991  27.747  29.445  1.00  0.00     0.176 HD
ATOM     13  H51 UNL     1      -8.127  28.417  28.289  1.00  0.00     0.176 HD
ENDBRANCH   8  11
ENDBRANCH   4   5
BRANCH   4  14
HETATM   14  C3  UNL     1      -2.013  26.327  25.931  1.00  0.00     0.291 C 
HETATM   15  O1  UNL     1      -2.058  25.130  25.557  1.00  0.00    -0.264 OA
HETATM   16  N6  UNL     1      -1.037  27.177  25.348  1.00  0.00    -0.297 N 
HETATM   17  C4  UNL     1      -1.042  27.374  24.073  1.00  0.00     0.203 C 
ATOM     18  H6  UNL     1      -0.335  27.629  25.934  1.00  0.00     0.171 HD
HETATM   19  N7  UNL     1      -0.053  28.234  23.494  1.00  0.00    -0.066 NA
HETATM   20  N8  UNL     1      -2.012  26.752  23.251  1.00  0.00    -0.066 NA
ENDBRANCH   4  14
TORSDOF 3
ENDMDL
MODEL 4
REMARK VINA RESULT: -5.756887933      1.771      5.469
REMARK  3 active torsions:
REMARK  status: ('A' for Active; 'I' for Inactive)
REMARK    1  A    between atoms: C1_4  and  N2_5 
REMARK    2  A    between atoms: C1_4  and  C3_14 
REMARK       I    between atoms: N2_5  and  C2_7 
REMARK    3  A    between atoms: N4_9  and  N5_11 
REMARK       I    between atoms: C3_14  and  N6_16 
ROOT
HETATM    1  N1  UNL     1      -3.343  27.197  27.520  1.00  0.00    -0.381 N 
ATOM      2  H11 UNL     1      -4.040  27.227  28.264  1.00  0.00     0.157 HD
ATOM      3  H12 UNL     1      -3.525  27.674  26.637  1.00  0.00     0.157 HD
HETATM    4  C1  UNL     1      -2.248  26.544  27.743  1.00  0.00     0.171 C 
ENDROOT
BRANCH   4   5
HETATM    5  N2  UNL     1      -1.291  26.504  26.722  1.00  0.00    -0.311 N 
HETATM    6  C2  UNL     1      -1.728  26.643  25.375  1.00  0.00     0.208 C 
HETATM    7  N3  UNL     1      -2.935  26.053  24.908  1.00  0.00    -0.062 NA
HETATM    8  N4  UNL     1      -0.978  27.333  24.584  1.00  0.00    -0.280 N 
ATOM      9  H4  UNL     1      -0.123  27.733  24.974  1.00  0.00     0.189 HD
ATOM     10  H2  UNL     1      -0.303  26.377  26.939  1.00  0.00     0.170 HD
BRANCH   8  11
HETATM   11  N5  UNL     1      -1.242  27.570  23.259  1.00  0.00    -0.343 N 
ATOM     12  H52 UNL     1      -1.968  26.995  22.831  1.00  0.00     0.176 HD
ATOM     13  H51 UNL     1      -0.770  28.268  22.685  1.00  0.00     0.176 HD
ENDBRANCH   8  11
ENDBRANCH   4   5
BRANCH   4  14
HETATM   14  C3  UNL     1      -1.989  25.865  28.998  1.00  0.00     0.291 C 
HETATM   15  O1  UNL     1      -1.153  24.933  29.094  1.00  0.00    -0.264 OA
HETATM   16  N6  UNL     1      -2.698  26.255  30.164  1.00  0.00    -0.297 N 
HETATM   17  C4  UNL     1      -2.047  26.686  31.192  1.00  0.00     0.203 C 
ATOM     18  H6  UNL     1      -3.716  26.196  30.190  1.00  0.00     0.171 HD
HETATM   19  N7  UNL     1      -2.771  27.079  32.364  1.00  0.00    -0.066 NA
HETATM   20  N8  UNL     1      -0.635  26.774  31.167  1.00  0.00    -0.066 NA
ENDBRANCH   4  14
TORSDOF 3
ENDMDL
MODEL 5
REMARK VINA RESULT: -5.710767630      1.496      5.000
REMARK  3 active torsions:
REMARK  status: ('A' for Active; 'I' for Inactive)
REMARK    1  A    between atoms: C1_4  and  N2_5 
REMARK    2  A    between atoms: C1_4  and  C3_14 
REMARK       I    between atoms: N2_5  and  C2_7 
REMARK    3  A    between atoms: N4_9  and  N5_11 
REMARK       I    between atoms: C3_14  and  N6_16 
ROOT
HETATM    1  N1  UNL     1      -4.174  26.867  25.993  1.00  0.00    -0.381 N 
ATOM      2  H11 UNL     1      -5.118  26.755  26.365  1.00  0.00     0.157 HD
ATOM      3  H12 UNL     1      -4.033  26.933  24.985  1.00  0.00     0.157 HD
HETATM    4  C1  UNL     1      -3.194  26.920  26.836  1.00  0.00     0.171 C 
ENDROOT
BRANCH   4   5
HETATM    5  N2  UNL     1      -1.900  27.073  26.326  1.00  0.00    -0.311 N 
HETATM    6  C2  UNL     1      -1.735  27.204  24.919  1.00  0.00     0.208 C 
HETATM    7  N3  UNL     1      -2.516  26.456  23.994  1.00  0.00    -0.062 NA
HETATM    8  N4  UNL     1      -0.838  28.036  24.509  1.00  0.00    -0.280 N 
ATOM      9  H4  UNL     1      -0.308  28.545  25.216  1.00  0.00     0.189 HD
ATOM     10  H2  UNL     1      -1.093  27.090  26.949  1.00  0.00     0.170 HD
BRANCH   8  11
HETATM   11  N5  UNL     1      -0.545  28.289  23.192  1.00  0.00    -0.343 N 
ATOM     12  H52 UNL     1      -0.350  27.477  22.606  1.00  0.00     0.176 HD
ATOM     13  H51 UNL     1      -0.510  29.216  22.770  1.00  0.00     0.176 HD
ENDBRANCH   8  11
ENDBRANCH   4   5
BRANCH   4  14
HETATM   14  C3  UNL     1      -3.395  26.825  28.269  1.00  0.00     0.291 C 
HETATM   15  O1  UNL     1      -4.449  26.358  28.767  1.00  0.00    -0.264 OA
HETATM   16  N6  UNL     1      -2.377  27.273  29.150  1.00  0.00    -0.297 N 
HETATM   17  C4  UNL     1      -1.844  26.445  29.984  1.00  0.00     0.203 C 
ATOM     18  H6  UNL     1      -2.068  28.245  29.124  1.00  0.00     0.171 HD
HETATM   19  N7  UNL     1      -0.815  26.906  30.868  1.00  0.00    -0.066 NA
HETATM   20  N8  UNL     1      -2.265  25.094  30.027  1.00  0.00    -0.066 NA
ENDBRANCH   4  14
TORSDOF 3
ENDMDL
