MODEL 1
REMARK VINA RESULT: -7.142286182      0.000      0.000
REMARK  6 active torsions:
REMARK  status: ('A' for Active; 'I' for Inactive)
REMARK       I    between atoms: N1_2  and  C2_4 
REMARK    1  A    between atoms: C2_4  and  C3_6 
REMARK    2  A    between atoms: N2_10  and  C7_11 
REMARK    3  A    between atoms: C7_11  and  O2_12 
REMARK    4  A    between atoms: C7_11  and  C8_14 
REMARK    5  A    between atoms: C8_14  and  N3_15 
REMARK       I    between atoms: N3_15  and  C9_17 
REMARK    6  A    between atoms: C12_24  and  N6_25 
ROOT
HETATM    1  C8  UNL     1      -2.055  25.413  30.084  1.00  0.00     0.099 C 
HETATM    2  C10 UNL     1      -3.425  24.654  30.248  1.00  0.00     0.042 C 
HETATM    3  C11 UNL     1      -3.085  23.430  31.032  1.00  0.00     0.028 C 
HETATM    4  C12 UNL     1      -1.619  23.536  31.340  1.00  0.00     0.086 C 
HETATM    5  C14 UNL     1      -1.104  24.265  30.070  1.00  0.00     0.065 C 
ENDROOT
BRANCH   1   6
HETATM    6  C7  UNL     1      -2.239  26.193  28.861  1.00  0.00     0.143 C 
BRANCH   6   7
HETATM    7  N2  UNL     1      -3.284  26.927  28.349  1.00  0.00    -0.350 N 
HETATM    8  C3  UNL     1      -3.838  27.018  27.032  1.00  0.00     0.178 C 
HETATM    9  C4  UNL     1      -5.205  26.419  27.277  1.00  0.00     0.037 C 
HETATM   10  C5  UNL     1      -5.568  27.167  28.572  1.00  0.00     0.022 C 
HETATM   11  C6  UNL     1      -4.220  27.753  29.091  1.00  0.00     0.126 C 
BRANCH   8  12
HETATM   12  C2  UNL     1      -3.138  26.635  25.858  1.00  0.00     0.240 C 
HETATM   13  N1  UNL     1      -2.026  27.474  25.444  1.00  0.00    -0.364 N 
HETATM   14  C1  UNL     1      -1.243  27.186  24.268  1.00  0.00     0.149 C 
ATOM     15  H1  UNL     1      -1.791  28.293  26.003  1.00  0.00     0.161 HD
HETATM   16  O1  UNL     1      -3.318  25.656  25.080  1.00  0.00    -0.271 OA
ENDBRANCH   8  12
ENDBRANCH   6   7
BRANCH   6  17
HETATM   17  O2  UNL     1      -1.172  26.176  28.113  1.00  0.00    -0.347 OA
ATOM     18  H2  UNL     1      -0.354  26.138  28.594  1.00  0.00     0.219 HD
ENDBRANCH   6  17
ENDBRANCH   1   6
BRANCH   1  19
HETATM   19  N3  UNL     1      -1.857  26.188  31.282  1.00  0.00    -0.348 N 
HETATM   20  C9  UNL     1      -0.853  27.104  31.596  1.00  0.00     0.182 C 
HETATM   21  N4  UNL     1      -0.961  28.340  31.278  1.00  0.00    -0.374 N 
HETATM   22  N5  UNL     1       0.308  26.706  32.301  1.00  0.00    -0.064 NA
ATOM     23  H42 UNL     1      -1.797  28.627  30.770  1.00  0.00     0.158 HD
ATOM     24  H41 UNL     1      -0.227  29.010  31.507  1.00  0.00     0.158 HD
ATOM     25  H3  UNL     1      -2.557  26.046  32.011  1.00  0.00     0.163 HD
ENDBRANCH   1  19
BRANCH   4  26
HETATM   26  N6  UNL     1      -0.982  22.238  31.438  1.00  0.00    -0.362 N 
HETATM   27  C13 UNL     1       0.129  22.165  32.078  1.00  0.00     0.197 C 
HETATM   28  N7  UNL     1       0.774  23.252  32.693  1.00  0.00    -0.067 NA
HETATM   29  N8  UNL     1       0.766  20.884  32.182  1.00  0.00    -0.067 NA
ATOM     30  H6  UNL     1      -1.401  21.411  31.013  1.00  0.00     0.162 HD
ENDBRANCH   4  26
TORSDOF 6
ENDMDL
MODEL 2
REMARK VINA RESULT: -7.073482729      2.283      4.175
REMARK  6 active torsions:
REMARK  status: ('A' for Active; 'I' for Inactive)
REMARK       I    between atoms: N1_2  and  C2_4 
REMARK    1  A    between atoms: C2_4  and  C3_6 
REMARK    2  A    between atoms: N2_10  and  C7_11 
REMARK    3  A    between atoms: C7_11  and  O2_12 
REMARK    4  A    between atoms: C7_11  and  C8_14 
REMARK    5  A    between atoms: C8_14  and  N3_15 
REMARK       I    between atoms: N3_15  and  C9_17 
REMARK    6  A    between atoms: C12_24  and  N6_25 
ROOT
HETATM    1  C8  UNL     1      -2.654  26.081  29.053  1.00  0.00     0.099 C 
HETATM    2  C10 UNL     1      -1.871  27.127  29.931  1.00  0.00     0.042 C 
HETATM    3  C11 UNL     1      -1.110  26.299  30.914  1.00  0.00     0.028 C 
HETATM    4  C12 UNL     1      -1.407  24.871  30.560  1.00  0.00     0.086 C 
HETATM    5  C14 UNL     1      -2.867  24.991  30.048  1.00  0.00     0.065 C 
ENDROOT
BRANCH   1   6
HETATM    6  C7  UNL     1      -3.811  26.834  28.572  1.00  0.00     0.143 C 
BRANCH   6   7
HETATM    7  N2  UNL     1      -5.117  26.499  28.298  1.00  0.00    -0.350 N 
HETATM    8  C3  UNL     1      -6.331  26.694  29.032  1.00  0.00     0.178 C 
HETATM    9  C4  UNL     1      -7.047  27.657  28.110  1.00  0.00     0.037 C 
HETATM   10  C5  UNL     1      -6.787  26.946  26.770  1.00  0.00     0.022 C 
HETATM   11  C6  UNL     1      -5.638  25.936  27.065  1.00  0.00     0.126 C 
BRANCH   8  12
HETATM   12  C2  UNL     1      -6.373  26.946  30.429  1.00  0.00     0.240 C 
HETATM   13  N1  UNL     1      -5.599  28.071  30.924  1.00  0.00    -0.364 N 
HETATM   14  C1  UNL     1      -5.563  28.423  32.321  1.00  0.00     0.149 C 
ATOM     15  H1  UNL     1      -5.064  28.632  30.261  1.00  0.00     0.161 HD
HETATM   16  O1  UNL     1      -6.987  26.341  31.352  1.00  0.00    -0.271 OA
ENDBRANCH   8  12
ENDBRANCH   6   7
BRANCH   6  17
HETATM   17  O2  UNL     1      -3.520  28.087  28.369  1.00  0.00    -0.347 OA
ATOM     18  H2  UNL     1      -4.037  28.700  28.880  1.00  0.00     0.219 HD
ENDBRANCH   6  17
ENDBRANCH   1   6
BRANCH   1  19
HETATM   19  N3  UNL     1      -1.747  25.629  28.029  1.00  0.00    -0.348 N 
HETATM   20  C9  UNL     1      -1.727  25.918  26.664  1.00  0.00     0.182 C 
HETATM   21  N4  UNL     1      -1.111  26.947  26.215  1.00  0.00    -0.374 N 
HETATM   22  N5  UNL     1      -2.364  25.072  25.726  1.00  0.00    -0.064 NA
ATOM     23  H42 UNL     1      -0.651  27.556  26.890  1.00  0.00     0.158 HD
ATOM     24  H41 UNL     1      -1.095  27.158  25.217  1.00  0.00     0.158 HD
ATOM     25  H3  UNL     1      -1.008  25.003  28.350  1.00  0.00     0.163 HD
ENDBRANCH   1  19
BRANCH   4  26
HETATM   26  N6  UNL     1      -1.376  23.998  31.717  1.00  0.00    -0.362 N 
HETATM   27  C13 UNL     1      -0.522  23.040  31.719  1.00  0.00     0.197 C 
HETATM   28  N7  UNL     1       0.388  22.772  30.681  1.00  0.00    -0.067 NA
HETATM   29  N8  UNL     1      -0.483  22.173  32.860  1.00  0.00    -0.067 NA
ATOM     30  H6  UNL     1      -2.010  24.142  32.503  1.00  0.00     0.162 HD
ENDBRANCH   4  26
TORSDOF 6
ENDMDL
MODEL 3
REMARK VINA RESULT: -6.936555826      2.160      6.393
REMARK  6 active torsions:
REMARK  status: ('A' for Active; 'I' for Inactive)
REMARK       I    between atoms: N1_2  and  C2_4 
REMARK    1  A    between atoms: C2_4  and  C3_6 
REMARK    2  A    between atoms: N2_10  and  C7_11 
REMARK    3  A    between atoms: C7_11  and  O2_12 
REMARK    4  A    between atoms: C7_11  and  C8_14 
REMARK    5  A    between atoms: C8_14  and  N3_15 
REMARK       I    between atoms: N3_15  and  C9_17 
REMARK    6  A    between atoms: C12_24  and  N6_25 
ROOT
HETATM    1  C8  UNL     1      -2.452  26.093  28.973  1.00  0.00     0.099 C 
HETATM    2  C10 UNL     1      -1.638  25.998  27.628  1.00  0.00     0.042 C 
HETATM    3  C11 UNL     1      -2.582  26.490  26.582  1.00  0.00     0.028 C 
HETATM    4  C12 UNL     1      -3.829  26.894  27.314  1.00  0.00     0.086 C 
HETATM    5  C14 UNL     1      -3.837  25.861  28.472  1.00  0.00     0.065 C 
ENDROOT
BRANCH   1   6
HETATM    6  C7  UNL     1      -1.829  25.079  29.823  1.00  0.00     0.143 C 
BRANCH   6   7
HETATM    7  N2  UNL     1      -2.192  24.478  31.006  1.00  0.00    -0.350 N 
HETATM    8  C3  UNL     1      -1.568  24.444  32.295  1.00  0.00     0.178 C 
HETATM    9  C4  UNL     1      -2.588  25.215  33.104  1.00  0.00     0.037 C 
HETATM   10  C5  UNL     1      -3.868  24.533  32.591  1.00  0.00     0.022 C 
HETATM   11  C6  UNL     1      -3.436  23.786  31.293  1.00  0.00     0.126 C 
BRANCH   8  12
HETATM   12  C2  UNL     1      -0.192  24.722  32.509  1.00  0.00     0.240 C 
HETATM   13  N1  UNL     1       0.539  23.824  33.386  1.00  0.00    -0.364 N 
HETATM   14  C1  UNL     1       1.938  24.007  33.679  1.00  0.00     0.149 C 
ATOM     15  H1  UNL     1       0.045  23.038  33.809  1.00  0.00     0.161 HD
HETATM   16  O1  UNL     1       0.537  25.649  32.053  1.00  0.00    -0.271 OA
ENDBRANCH   8  12
ENDBRANCH   6   7
BRANCH   6  17
HETATM   17  O2  UNL     1      -0.693  24.672  29.335  1.00  0.00    -0.347 OA
ATOM     18  H2  UNL     1      -0.688  23.767  29.048  1.00  0.00     0.219 HD
ENDBRANCH   6  17
ENDBRANCH   1   6
BRANCH   1  19
HETATM   19  N3  UNL     1      -2.329  27.449  29.444  1.00  0.00    -0.348 N 
HETATM   20  C9  UNL     1      -2.099  27.927  30.734  1.00  0.00     0.182 C 
HETATM   21  N4  UNL     1      -0.910  28.072  31.184  1.00  0.00    -0.374 N 
HETATM   22  N5  UNL     1      -3.172  28.294  31.582  1.00  0.00    -0.064 NA
ATOM     23  H42 UNL     1      -0.137  27.808  30.574  1.00  0.00     0.158 HD
ATOM     24  H41 UNL     1      -0.741  28.422  32.127  1.00  0.00     0.158 HD
ATOM     25  H3  UNL     1      -2.425  28.167  28.726  1.00  0.00     0.163 HD
ENDBRANCH   1  19
BRANCH   4  26
HETATM   26  N6  UNL     1      -5.022  26.719  26.509  1.00  0.00    -0.362 N 
HETATM   27  C13 UNL     1      -5.906  27.650  26.541  1.00  0.00     0.197 C 
HETATM   28  N7  UNL     1      -5.803  28.829  27.299  1.00  0.00    -0.067 NA
HETATM   29  N8  UNL     1      -7.088  27.486  25.746  1.00  0.00    -0.067 NA
ATOM     30  H6  UNL     1      -5.154  25.885  25.936  1.00  0.00     0.162 HD
ENDBRANCH   4  26
TORSDOF 6
ENDMDL
MODEL 4
REMARK VINA RESULT: -6.731712607      4.618      8.366
REMARK  6 active torsions:
REMARK  status: ('A' for Active; 'I' for Inactive)
REMARK       I    between atoms: N1_2  and  C2_4 
REMARK    1  A    between atoms: C2_4  and  C3_6 
REMARK    2  A    between atoms: N2_10  and  C7_11 
REMARK    3  A    between atoms: C7_11  and  O2_12 
REMARK    4  A    between atoms: C7_11  and  C8_14 
REMARK    5  A    between atoms: C8_14  and  N3_15 
REMARK       I    between atoms: N3_15  and  C9_17 
REMARK    6  A    between atoms: C12_24  and  N6_25 
ROOT
HETATM    1  C8  UNL     1       0.850  23.851  33.566  1.00  0.00     0.099 C 
HETATM    2  C10 UNL     1       0.820  22.660  32.537  1.00  0.00     0.042 C 
HETATM    3  C11 UNL     1      -0.017  23.161  31.407  1.00  0.00     0.028 C 
HETATM    4  C12 UNL     1      -0.379  24.574  31.762  1.00  0.00     0.086 C 
HETATM    5  C14 UNL     1      -0.480  24.473  33.307  1.00  0.00     0.065 C 
ENDROOT
BRANCH   1   6
HETATM    6  C7  UNL     1       1.083  23.191  34.850  1.00  0.00     0.143 C 
BRANCH   6   7
HETATM    7  N2  UNL     1       0.367  23.112  36.022  1.00  0.00    -0.350 N 
HETATM    8  C3  UNL     1       0.448  23.850  37.246  1.00  0.00     0.178 C 
HETATM    9  C4  UNL     1      -0.885  24.563  37.216  1.00  0.00     0.037 C 
HETATM   10  C5  UNL     1      -1.783  23.380  36.817  1.00  0.00     0.022 C 
HETATM   11  C6  UNL     1      -0.803  22.292  36.282  1.00  0.00     0.126 C 
BRANCH   8  12
HETATM   12  C2  UNL     1       1.595  24.588  37.644  1.00  0.00     0.240 C 
HETATM   13  N1  UNL     1       1.395  25.660  38.604  1.00  0.00    -0.364 N 
HETATM   14  C1  UNL     1       2.483  26.477  39.079  1.00  0.00     0.149 C 
ATOM     15  H1  UNL     1       0.454  25.840  38.953  1.00  0.00     0.161 HD
HETATM   16  O1  UNL     1       2.804  24.471  37.296  1.00  0.00    -0.271 OA
ENDBRANCH   8  12
ENDBRANCH   6   7
BRANCH   6  17
HETATM   17  O2  UNL     1       2.212  22.543  34.861  1.00  0.00    -0.347 OA
ATOM     18  H2  UNL     1       2.424  22.134  35.692  1.00  0.00     0.219 HD
ENDBRANCH   6  17
ENDBRANCH   1   6
BRANCH   1  19
HETATM   19  N3  UNL     1       1.893  24.749  33.140  1.00  0.00    -0.348 N 
HETATM   20  C9  UNL     1       2.324  25.949  33.707  1.00  0.00     0.182 C 
HETATM   21  N4  UNL     1       3.216  25.965  34.624  1.00  0.00    -0.374 N 
HETATM   22  N5  UNL     1       1.808  27.193  33.269  1.00  0.00    -0.064 NA
ATOM     23  H42 UNL     1       3.587  25.070  34.940  1.00  0.00     0.158 HD
ATOM     24  H41 UNL     1       3.531  26.842  35.039  1.00  0.00     0.158 HD
ATOM     25  H3  UNL     1       2.392  24.464  32.297  1.00  0.00     0.163 HD
ENDBRANCH   1  19
BRANCH   4  26
HETATM   26  N6  UNL     1      -1.667  24.965  31.223  1.00  0.00    -0.362 N 
HETATM   27  C13 UNL     1      -1.800  26.174  30.813  1.00  0.00     0.197 C 
HETATM   28  N7  UNL     1      -0.789  27.151  30.848  1.00  0.00    -0.067 NA
HETATM   29  N8  UNL     1      -3.070  26.570  30.277  1.00  0.00    -0.067 NA
ATOM     30  H6  UNL     1      -2.440  24.301  31.170  1.00  0.00     0.162 HD
ENDBRANCH   4  26
TORSDOF 6
ENDMDL
MODEL 5
REMARK VINA RESULT: -6.723129643      1.863      2.673
REMARK  6 active torsions:
REMARK  status: ('A' for Active; 'I' for Inactive)
REMARK       I    between atoms: N1_2  and  C2_4 
REMARK    1  A    between atoms: C2_4  and  C3_6 
REMARK    2  A    between atoms: N2_10  and  C7_11 
REMARK    3  A    between atoms: C7_11  and  O2_12 
REMARK    4  A    between atoms: C7_11  and  C8_14 
REMARK    5  A    between atoms: C8_14  and  N3_15 
REMARK       I    between atoms: N3_15  and  C9_17 
REMARK    6  A    between atoms: C12_24  and  N6_25 
ROOT
HETATM    1  C8  UNL     1      -0.967  25.425  31.888  1.00  0.00     0.099 C 
HETATM    2  C10 UNL     1      -1.746  25.514  33.254  1.00  0.00     0.042 C 
HETATM    3  C11 UNL     1      -1.987  24.093  33.642  1.00  0.00     0.028 C 
HETATM    4  C12 UNL     1      -1.324  23.261  32.581  1.00  0.00     0.086 C 
HETATM    5  C14 UNL     1      -1.528  24.160  31.333  1.00  0.00     0.065 C 
ENDROOT
BRANCH   1   6
HETATM    6  C7  UNL     1      -1.288  26.690  31.228  1.00  0.00     0.143 C 
BRANCH   6   7
HETATM    7  N2  UNL     1      -2.446  27.229  30.718  1.00  0.00    -0.350 N 
HETATM    8  C3  UNL     1      -3.099  27.077  29.453  1.00  0.00     0.178 C 
HETATM    9  C4  UNL     1      -4.365  26.372  29.890  1.00  0.00     0.037 C 
HETATM   10  C5  UNL     1      -4.721  27.248  31.103  1.00  0.00     0.022 C 
HETATM   11  C6  UNL     1      -3.420  28.043  31.424  1.00  0.00     0.126 C 
BRANCH   8  12
HETATM   12  C2  UNL     1      -2.443  26.613  28.281  1.00  0.00     0.240 C 
HETATM   13  N1  UNL     1      -2.947  27.090  27.005  1.00  0.00    -0.364 N 
HETATM   14  C1  UNL     1      -2.364  26.688  25.750  1.00  0.00     0.149 C 
ATOM     15  H1  UNL     1      -3.739  27.733  26.997  1.00  0.00     0.161 HD
HETATM   16  O1  UNL     1      -1.462  25.828  28.149  1.00  0.00    -0.271 OA
ENDBRANCH   8  12
ENDBRANCH   6   7
BRANCH   6  17
HETATM   17  O2  UNL     1      -0.238  27.452  31.110  1.00  0.00    -0.347 OA
ATOM     18  H2  UNL     1       0.530  27.015  30.764  1.00  0.00     0.219 HD
ENDBRANCH   6  17
ENDBRANCH   1   6
BRANCH   1  19
HETATM   19  N3  UNL     1       0.425  25.236  32.209  1.00  0.00    -0.348 N 
HETATM   20  C9  UNL     1       1.168  25.730  33.281  1.00  0.00     0.182 C 
HETATM   21  N4  UNL     1       1.224  25.099  34.394  1.00  0.00    -0.374 N 
HETATM   22  N5  UNL     1       1.908  26.931  33.168  1.00  0.00    -0.064 NA
ATOM     23  H42 UNL     1       0.691  24.234  34.475  1.00  0.00     0.158 HD
ATOM     24  H41 UNL     1       1.768  25.460  35.178  1.00  0.00     0.158 HD
ATOM     25  H3  UNL     1       0.945  24.652  31.553  1.00  0.00     0.163 HD
ENDBRANCH   1  19
BRANCH   4  26
HETATM   26  N6  UNL     1      -1.997  21.994  32.374  1.00  0.00    -0.362 N 
HETATM   27  C13 UNL     1      -1.268  20.960  32.155  1.00  0.00     0.197 C 
HETATM   28  N7  UNL     1       0.137  20.964  32.103  1.00  0.00    -0.067 NA
HETATM   29  N8  UNL     1      -1.925  19.702  31.951  1.00  0.00    -0.067 NA
ATOM     30  H6  UNL     1      -3.015  21.927  32.401  1.00  0.00     0.162 HD
ENDBRANCH   4  26
TORSDOF 6
ENDMDL
