MODEL 1
REMARK VINA RESULT: -8.394003472      0.000      0.000
REMARK  6 active torsions:
REMARK  status: ('A' for Active; 'I' for Inactive)
REMARK    1  A    between atoms: C2_2  and  N1_4 
REMARK       I    between atoms: N1_4  and  C4_6 
REMARK       I    between atoms: C4_6  and  N7_28 
REMARK    2  A    between atoms: N2_7  and  C5_9 
REMARK    3  A    between atoms: C5_9  and  C6_10 
REMARK    4  A    between atoms: C6_10  and  O1_11 
REMARK    5  A    between atoms: C6_10  and  N3_13 
REMARK    6  A    between atoms: C11_18  and  C12_19 
REMARK       I    between atoms: C12_19  and  N4_21 
REMARK       I    between atoms: N4_21  and  C13_23 
ROOT
HETATM    1  N1  UNL     1       0.174  23.246  31.611  1.00  0.00    -0.222 N 
ATOM      2  H1  UNL     1       1.099  23.088  31.212  1.00  0.00     0.178 HD
HETATM    3  C4  UNL     1      -0.443  24.513  31.528  1.00  0.00     0.683 C 
HETATM    4  N2  UNL     1      -1.061  24.841  30.456  1.00  0.00    -0.218 N 
ATOM      5  H2  UNL     1      -1.070  24.149  29.706  1.00  0.00     0.178 HD
HETATM    6  N7  UNL     1      -0.369  25.397  32.625  1.00  0.00    -0.126 N 
ATOM      7  H7  UNL     1      -1.195  25.548  33.205  1.00  0.00     0.197 HD
HETATM    8  C14 UNL     1       0.817  26.070  32.931  1.00  0.00     0.196 C 
HETATM    9  N8  UNL     1       1.811  26.620  33.171  1.00  0.00    -0.171 NA
ENDROOT
BRANCH   1  10
HETATM   10  C2  UNL     1      -0.539  22.176  32.275  1.00  0.00     0.091 C 
HETATM   11  C1  UNL     1      -1.695  21.711  31.457  1.00  0.00     0.032 C 
HETATM   12  C3  UNL     1       0.447  21.059  32.570  1.00  0.00     0.032 C 
ENDBRANCH   1  10
BRANCH   4  13
HETATM   13  C5  UNL     1      -1.730  26.056  30.200  1.00  0.00     0.222 C 
BRANCH  13  14
HETATM   14  C6  UNL     1      -2.125  26.229  28.811  1.00  0.00     0.133 C 
BRANCH  14  15
HETATM   15  O1  UNL     1      -1.086  26.200  27.997  1.00  0.00    -0.348 OA
ATOM     16  H1  UNL     1      -1.219  25.596  27.275  1.00  0.00     0.219 HD
ENDBRANCH  14  15
BRANCH  14  17
HETATM   17  N3  UNL     1      -3.347  26.415  28.189  1.00  0.00    -0.351 N 
HETATM   18  C7  UNL     1      -4.506  25.601  28.312  1.00  0.00     0.125 C 
HETATM   19  C8  UNL     1      -5.456  26.405  29.221  1.00  0.00     0.020 C 
HETATM   20  C9  UNL     1      -5.703  27.719  28.580  1.00  0.00     0.004 C 
HETATM   21  C10 UNL     1      -4.971  28.020  27.327  1.00  0.00     0.035 C 
HETATM   22  C11 UNL     1      -3.524  27.595  27.317  1.00  0.00     0.178 C 
BRANCH  22  23
HETATM   23  C12 UNL     1      -3.159  27.257  25.913  1.00  0.00     0.247 C 
HETATM   24  O2  UNL     1      -4.037  26.872  25.087  1.00  0.00    -0.271 OA
HETATM   25  N4  UNL     1      -1.827  27.346  25.445  1.00  0.00    -0.300 N 
HETATM   26  C13 UNL     1      -1.469  27.029  24.120  1.00  0.00     0.188 C 
ATOM     27  H4  UNL     1      -1.099  27.653  26.090  1.00  0.00     0.171 HD
HETATM   28  N5  UNL     1      -0.238  27.126  23.734  1.00  0.00    -0.373 N 
HETATM   29  N6  UNL     1      -2.488  26.600  23.213  1.00  0.00    -0.064 NA
ATOM     30  H52 UNL     1       0.488  27.432  24.381  1.00  0.00     0.158 HD
ATOM     31  H51 UNL     1       0.021  26.896  22.775  1.00  0.00     0.158 HD
ENDBRANCH  22  23
ENDBRANCH  14  17
ENDBRANCH  13  14
ENDBRANCH   4  13
TORSDOF 6
ENDMDL
MODEL 2
REMARK VINA RESULT: -8.382690634      1.081      1.316
REMARK  6 active torsions:
REMARK  status: ('A' for Active; 'I' for Inactive)
REMARK    1  A    between atoms: C2_2  and  N1_4 
REMARK       I    between atoms: N1_4  and  C4_6 
REMARK       I    between atoms: C4_6  and  N7_28 
REMARK    2  A    between atoms: N2_7  and  C5_9 
REMARK    3  A    between atoms: C5_9  and  C6_10 
REMARK    4  A    between atoms: C6_10  and  O1_11 
REMARK    5  A    between atoms: C6_10  and  N3_13 
REMARK    6  A    between atoms: C11_18  and  C12_19 
REMARK       I    between atoms: C12_19  and  N4_21 
REMARK       I    between atoms: N4_21  and  C13_23 
ROOT
HETATM    1  N1  UNL     1       0.544  24.846  32.225  1.00  0.00    -0.222 N 
ATOM      2  H1  UNL     1       1.487  24.876  31.838  1.00  0.00     0.178 HD
HETATM    3  C4  UNL     1      -0.407  25.835  31.892  1.00  0.00     0.683 C 
HETATM    4  N2  UNL     1      -1.061  25.733  30.797  1.00  0.00    -0.218 N 
ATOM      5  H2  UNL     1      -0.850  24.922  30.214  1.00  0.00     0.178 HD
HETATM    6  N7  UNL     1      -0.620  26.920  32.770  1.00  0.00    -0.126 N 
ATOM      7  H7  UNL     1      -1.472  26.950  33.332  1.00  0.00     0.197 HD
HETATM    8  C14 UNL     1       0.314  27.953  32.882  1.00  0.00     0.196 C 
HETATM    9  N8  UNL     1       1.102  28.801  32.963  1.00  0.00    -0.171 NA
ENDROOT
BRANCH   1  10
HETATM   10  C2  UNL     1       0.148  23.787  33.129  1.00  0.00     0.091 C 
HETATM   11  C1  UNL     1       0.485  22.448  32.568  1.00  0.00     0.032 C 
HETATM   12  C3  UNL     1       0.813  24.036  34.471  1.00  0.00     0.032 C 
ENDBRANCH   1  10
BRANCH   4  13
HETATM   13  C5  UNL     1      -2.042  26.622  30.308  1.00  0.00     0.222 C 
BRANCH  13  14
HETATM   14  C6  UNL     1      -2.369  26.423  28.905  1.00  0.00     0.133 C 
BRANCH  14  15
HETATM   15  O1  UNL     1      -1.301  26.118  28.190  1.00  0.00    -0.348 OA
ATOM     16  H1  UNL     1      -1.470  25.399  27.593  1.00  0.00     0.219 HD
ENDBRANCH  14  15
BRANCH  14  17
HETATM   17  N3  UNL     1      -3.549  26.493  28.188  1.00  0.00    -0.351 N 
HETATM   18  C7  UNL     1      -4.652  25.599  28.261  1.00  0.00     0.125 C 
HETATM   19  C8  UNL     1      -5.725  26.363  29.060  1.00  0.00     0.020 C 
HETATM   20  C9  UNL     1      -6.016  27.630  28.345  1.00  0.00     0.004 C 
HETATM   21  C10 UNL     1      -5.214  27.935  27.137  1.00  0.00     0.035 C 
HETATM   22  C11 UNL     1      -3.744  27.621  27.252  1.00  0.00     0.178 C 
BRANCH  22  23
HETATM   23  C12 UNL     1      -3.248  27.257  25.896  1.00  0.00     0.247 C 
HETATM   24  O2  UNL     1      -4.031  26.780  25.023  1.00  0.00    -0.271 OA
HETATM   25  N4  UNL     1      -1.893  27.423  25.525  1.00  0.00    -0.300 N 
HETATM   26  C13 UNL     1      -1.413  27.082  24.245  1.00  0.00     0.188 C 
ATOM     27  H4  UNL     1      -1.240  27.804  26.210  1.00  0.00     0.171 HD
HETATM   28  N5  UNL     1      -0.165  27.251  23.949  1.00  0.00    -0.373 N 
HETATM   29  N6  UNL     1      -2.326  26.547  23.285  1.00  0.00    -0.064 NA
ATOM     30  H52 UNL     1       0.487  27.632  24.635  1.00  0.00     0.158 HD
ATOM     31  H51 UNL     1       0.183  27.004  23.023  1.00  0.00     0.158 HD
ENDBRANCH  22  23
ENDBRANCH  14  17
ENDBRANCH  13  14
ENDBRANCH   4  13
TORSDOF 6
ENDMDL
MODEL 3
REMARK VINA RESULT: -7.885903983      2.047      7.660
REMARK  6 active torsions:
REMARK  status: ('A' for Active; 'I' for Inactive)
REMARK    1  A    between atoms: C2_2  and  N1_4 
REMARK       I    between atoms: N1_4  and  C4_6 
REMARK       I    between atoms: C4_6  and  N7_28 
REMARK    2  A    between atoms: N2_7  and  C5_9 
REMARK    3  A    between atoms: C5_9  and  C6_10 
REMARK    4  A    between atoms: C6_10  and  O1_11 
REMARK    5  A    between atoms: C6_10  and  N3_13 
REMARK    6  A    between atoms: C11_18  and  C12_19 
REMARK       I    between atoms: C12_19  and  N4_21 
REMARK       I    between atoms: N4_21  and  C13_23 
ROOT
HETATM    1  N1  UNL     1      -4.826  28.197  27.548  1.00  0.00    -0.222 N 
ATOM      2  H1  UNL     1      -4.618  29.090  27.104  1.00  0.00     0.178 HD
HETATM    3  C4  UNL     1      -3.836  27.195  27.659  1.00  0.00     0.683 C 
HETATM    4  N2  UNL     1      -2.988  27.255  28.616  1.00  0.00    -0.218 N 
ATOM      5  H2  UNL     1      -3.080  28.043  29.258  1.00  0.00     0.178 HD
HETATM    6  N7  UNL     1      -3.796  26.147  26.714  1.00  0.00    -0.126 N 
ATOM      7  H7  UNL     1      -4.110  25.215  26.986  1.00  0.00     0.197 HD
HETATM    8  C14 UNL     1      -3.334  26.365  25.413  1.00  0.00     0.196 C 
HETATM    9  N8  UNL     1      -2.948  26.565  24.337  1.00  0.00    -0.171 NA
ENDROOT
BRANCH   1  10
HETATM   10  C2  UNL     1      -6.143  27.923  28.082  1.00  0.00     0.091 C 
HETATM   11  C1  UNL     1      -6.972  27.162  27.104  1.00  0.00     0.032 C 
HETATM   12  C3  UNL     1      -5.978  27.183  29.397  1.00  0.00     0.032 C 
ENDBRANCH   1  10
BRANCH   4  13
HETATM   13  C5  UNL     1      -1.939  26.348  28.878  1.00  0.00     0.222 C 
BRANCH  13  14
HETATM   14  C6  UNL     1      -1.479  26.364  30.258  1.00  0.00     0.133 C 
BRANCH  14  15
HETATM   15  O1  UNL     1      -0.804  27.464  30.537  1.00  0.00    -0.348 OA
ATOM     16  H1  UNL     1      -0.066  27.289  31.111  1.00  0.00     0.219 HD
ENDBRANCH  14  15
BRANCH  14  17
HETATM   17  N3  UNL     1      -1.604  25.475  31.309  1.00  0.00    -0.351 N 
HETATM   18  C7  UNL     1      -2.664  25.406  32.254  1.00  0.00     0.125 C 
HETATM   19  C8  UNL     1      -3.493  24.180  31.827  1.00  0.00     0.020 C 
HETATM   20  C9  UNL     1      -2.599  22.996  31.831  1.00  0.00     0.004 C 
HETATM   21  C10 UNL     1      -1.166  23.220  32.134  1.00  0.00     0.035 C 
HETATM   22  C11 UNL     1      -0.562  24.442  31.490  1.00  0.00     0.178 C 
BRANCH  22  23
HETATM   23  C12 UNL     1       0.512  24.948  32.391  1.00  0.00     0.247 C 
HETATM   24  O2  UNL     1       0.765  26.185  32.470  1.00  0.00    -0.271 OA
HETATM   25  N4  UNL     1       1.290  24.077  33.188  1.00  0.00    -0.300 N 
HETATM   26  C13 UNL     1       2.308  24.543  34.043  1.00  0.00     0.188 C 
ATOM     27  H4  UNL     1       1.108  23.074  33.143  1.00  0.00     0.171 HD
HETATM   28  N5  UNL     1       2.996  23.710  34.755  1.00  0.00    -0.373 N 
HETATM   29  N6  UNL     1       2.566  25.947  34.108  1.00  0.00    -0.064 NA
ATOM     30  H52 UNL     1       2.811  22.708  34.708  1.00  0.00     0.158 HD
ATOM     31  H51 UNL     1       3.732  24.047  35.375  1.00  0.00     0.158 HD
ENDBRANCH  22  23
ENDBRANCH  14  17
ENDBRANCH  13  14
ENDBRANCH   4  13
TORSDOF 6
ENDMDL
MODEL 4
REMARK VINA RESULT: -7.852520951      1.925      7.722
REMARK  6 active torsions:
REMARK  status: ('A' for Active; 'I' for Inactive)
REMARK    1  A    between atoms: C2_2  and  N1_4 
REMARK       I    between atoms: N1_4  and  C4_6 
REMARK       I    between atoms: C4_6  and  N7_28 
REMARK    2  A    between atoms: N2_7  and  C5_9 
REMARK    3  A    between atoms: C5_9  and  C6_10 
REMARK    4  A    between atoms: C6_10  and  O1_11 
REMARK    5  A    between atoms: C6_10  and  N3_13 
REMARK    6  A    between atoms: C11_18  and  C12_19 
REMARK       I    between atoms: C12_19  and  N4_21 
REMARK       I    between atoms: N4_21  and  C13_23 
ROOT
HETATM    1  N1  UNL     1      -4.547  27.687  26.652  1.00  0.00    -0.222 N 
ATOM      2  H1  UNL     1      -4.335  28.635  26.341  1.00  0.00     0.178 HD
HETATM    3  C4  UNL     1      -3.511  26.767  26.927  1.00  0.00     0.683 C 
HETATM    4  N2  UNL     1      -2.926  26.804  28.064  1.00  0.00    -0.218 N 
ATOM      5  H2  UNL     1      -3.251  27.513  28.721  1.00  0.00     0.178 HD
HETATM    6  N7  UNL     1      -3.138  25.825  25.944  1.00  0.00    -0.126 N 
ATOM      7  H7  UNL     1      -3.407  24.847  26.059  1.00  0.00     0.197 HD
HETATM    8  C14 UNL     1      -2.406  26.208  24.817  1.00  0.00     0.196 C 
HETATM    9  N8  UNL     1      -1.799  26.546  23.887  1.00  0.00    -0.171 NA
ENDROOT
BRANCH   1  10
HETATM   10  C2  UNL     1      -5.917  27.252  26.824  1.00  0.00     0.091 C 
HETATM   11  C1  UNL     1      -6.492  27.775  28.095  1.00  0.00     0.032 C 
HETATM   12  C3  UNL     1      -6.710  27.693  25.607  1.00  0.00     0.032 C 
ENDBRANCH   1  10
BRANCH   4  13
HETATM   13  C5  UNL     1      -1.879  25.967  28.507  1.00  0.00     0.222 C 
BRANCH  13  14
HETATM   14  C6  UNL     1      -1.578  26.102  29.924  1.00  0.00     0.133 C 
BRANCH  14  15
HETATM   15  O1  UNL     1      -1.100  27.298  30.212  1.00  0.00    -0.348 OA
ATOM     16  H1  UNL     1      -0.595  27.292  31.017  1.00  0.00     0.219 HD
ENDBRANCH  14  15
BRANCH  14  17
HETATM   17  N3  UNL     1      -1.688  25.243  31.002  1.00  0.00    -0.351 N 
HETATM   18  C7  UNL     1      -2.771  25.149  31.918  1.00  0.00     0.125 C 
HETATM   19  C8  UNL     1      -3.520  23.865  31.511  1.00  0.00     0.020 C 
HETATM   20  C9  UNL     1      -2.564  22.733  31.583  1.00  0.00     0.004 C 
HETATM   21  C10 UNL     1      -1.155  23.045  31.919  1.00  0.00     0.035 C 
HETATM   22  C11 UNL     1      -0.598  24.276  31.250  1.00  0.00     0.178 C 
BRANCH  22  23
HETATM   23  C12 UNL     1       0.419  24.870  32.163  1.00  0.00     0.247 C 
HETATM   24  O2  UNL     1       0.525  26.124  32.290  1.00  0.00    -0.271 OA
HETATM   25  N4  UNL     1       1.304  24.067  32.920  1.00  0.00    -0.300 N 
HETATM   26  C13 UNL     1       2.269  24.617  33.786  1.00  0.00     0.188 C 
ATOM     27  H4  UNL     1       1.240  23.052  32.836  1.00  0.00     0.171 HD
HETATM   28  N5  UNL     1       3.058  23.845  34.460  1.00  0.00    -0.373 N 
HETATM   29  N6  UNL     1       2.360  26.038  33.906  1.00  0.00    -0.064 NA
ATOM     30  H52 UNL     1       2.993  22.830  34.374  1.00  0.00     0.158 HD
ATOM     31  H51 UNL     1       3.757  24.242  35.087  1.00  0.00     0.158 HD
ENDBRANCH  22  23
ENDBRANCH  14  17
ENDBRANCH  13  14
ENDBRANCH   4  13
TORSDOF 6
ENDMDL
MODEL 5
REMARK VINA RESULT: -7.777788722      0.946      2.537
REMARK  6 active torsions:
REMARK  status: ('A' for Active; 'I' for Inactive)
REMARK    1  A    between atoms: C2_2  and  N1_4 
REMARK       I    between atoms: N1_4  and  C4_6 
REMARK       I    between atoms: C4_6  and  N7_28 
REMARK    2  A    between atoms: N2_7  and  C5_9 
REMARK    3  A    between atoms: C5_9  and  C6_10 
REMARK    4  A    between atoms: C6_10  and  O1_11 
REMARK    5  A    between atoms: C6_10  and  N3_13 
REMARK    6  A    between atoms: C11_18  and  C12_19 
REMARK       I    between atoms: C12_19  and  N4_21 
REMARK       I    between atoms: N4_21  and  C13_23 
ROOT
HETATM    1  N1  UNL     1      -0.006  25.099  32.929  1.00  0.00    -0.222 N 
ATOM      2  H1  UNL     1      -0.369  24.738  33.810  1.00  0.00     0.178 HD
HETATM    3  C4  UNL     1      -0.485  24.611  31.694  1.00  0.00     0.683 C 
HETATM    4  N2  UNL     1      -1.576  25.080  31.215  1.00  0.00    -0.218 N 
ATOM      5  H2  UNL     1      -2.045  25.797  31.769  1.00  0.00     0.178 HD
HETATM    6  N7  UNL     1       0.243  23.615  31.008  1.00  0.00    -0.126 N 
ATOM      7  H7  UNL     1       0.775  23.867  30.174  1.00  0.00     0.197 HD
HETATM    8  C14 UNL     1       0.249  22.290  31.452  1.00  0.00     0.196 C 
HETATM    9  N8  UNL     1       0.242  21.195  31.837  1.00  0.00    -0.171 NA
ENDROOT
BRANCH   1  10
HETATM   10  C2  UNL     1       1.014  26.127  32.914  1.00  0.00     0.091 C 
HETATM   11  C1  UNL     1       0.426  27.471  33.175  1.00  0.00     0.032 C 
HETATM   12  C3  UNL     1       2.078  25.754  33.930  1.00  0.00     0.032 C 
ENDBRANCH   1  10
BRANCH   4  13
HETATM   13  C5  UNL     1      -2.197  24.712  30.003  1.00  0.00     0.222 C 
BRANCH  13  14
HETATM   14  C6  UNL     1      -2.534  25.840  29.148  1.00  0.00     0.133 C 
BRANCH  14  15
HETATM   15  O1  UNL     1      -1.503  26.644  28.967  1.00  0.00    -0.348 OA
ATOM     16  H1  UNL     1      -0.876  26.282  28.351  1.00  0.00     0.219 HD
ENDBRANCH  14  15
BRANCH  14  17
HETATM   17  N3  UNL     1      -3.695  26.229  28.506  1.00  0.00    -0.351 N 
HETATM   18  C7  UNL     1      -4.956  25.572  28.539  1.00  0.00     0.125 C 
HETATM   19  C8  UNL     1      -5.825  26.437  29.473  1.00  0.00     0.020 C 
HETATM   20  C9  UNL     1      -5.871  27.811  28.916  1.00  0.00     0.004 C 
HETATM   21  C10 UNL     1      -5.059  28.089  27.708  1.00  0.00     0.035 C 
HETATM   22  C11 UNL     1      -3.682  27.475  27.711  1.00  0.00     0.178 C 
BRANCH  22  23
HETATM   23  C12 UNL     1      -3.311  27.181  26.299  1.00  0.00     0.247 C 
HETATM   24  O2  UNL     1      -4.182  26.799  25.464  1.00  0.00    -0.271 OA
HETATM   25  N4  UNL     1      -1.983  27.311  25.832  1.00  0.00    -0.300 N 
HETATM   26  C13 UNL     1      -1.620  27.036  24.498  1.00  0.00     0.188 C 
ATOM     27  H4  UNL     1      -1.260  27.616  26.484  1.00  0.00     0.171 HD
HETATM   28  N5  UNL     1      -0.393  27.169  24.114  1.00  0.00    -0.373 N 
HETATM   29  N6  UNL     1      -2.631  26.608  23.583  1.00  0.00    -0.064 NA
ATOM     30  H52 UNL     1       0.329  27.474  24.768  1.00  0.00     0.158 HD
ATOM     31  H51 UNL     1      -0.130  26.970  23.149  1.00  0.00     0.158 HD
ENDBRANCH  22  23
ENDBRANCH  14  17
ENDBRANCH  13  14
ENDBRANCH   4  13
TORSDOF 6
ENDMDL
