MODEL 1
REMARK VINA RESULT: -7.718959984      0.000      0.000
REMARK  5 active torsions:
REMARK  status: ('A' for Active; 'I' for Inactive)
REMARK       I    between atoms: C1_4  and  N2_5 
REMARK       I    between atoms: C1_4  and  N3_10 
REMARK    1  A    between atoms: N2_5  and  C2_7 
REMARK    2  A    between atoms: C2_7  and  C3_8 
REMARK       I    between atoms: N3_10  and  C4_12 
REMARK    3  A    between atoms: C4_12  and  C5_14 
REMARK       I    between atoms: N4_19  and  C10_20 
REMARK       I    between atoms: C10_20  and  N5_22 
REMARK    4  A    between atoms: N5_22  and  N6_24 
REMARK    5  A    between atoms: N6_24  and  C11_26 
ROOT
HETATM    1  C5  UNL     1      -4.238  26.610  28.150  1.00  0.00     0.181 C 
HETATM    2  C6  UNL     1      -5.020  27.894  28.571  1.00  0.00     0.035 C 
HETATM    3  C7  UNL     1      -5.913  28.421  27.526  1.00  0.00     0.004 C 
HETATM    4  C8  UNL     1      -6.127  27.307  26.503  1.00  0.00     0.020 C 
HETATM    5  C9  UNL     1      -4.823  27.034  25.834  1.00  0.00     0.129 C 
HETATM    6  N4  UNL     1      -3.751  26.697  26.837  1.00  0.00    -0.319 N 
HETATM    7  C10 UNL     1      -2.465  26.501  26.297  1.00  0.00     0.337 C 
HETATM    8  O3  UNL     1      -1.429  26.188  26.894  1.00  0.00    -0.245 OA
HETATM    9  N5  UNL     1      -2.282  26.678  24.867  1.00  0.00    -0.250 N 
ATOM     10  H5  UNL     1      -3.090  26.939  24.301  1.00  0.00     0.192 HD
ENDROOT
BRANCH   1  11
HETATM   11  C4  UNL     1      -3.399  26.255  29.277  1.00  0.00     0.259 C 
HETATM   12  N3  UNL     1      -2.450  27.228  29.744  1.00  0.00    -0.159 N 
HETATM   13  C1  UNL     1      -1.563  27.066  30.817  1.00  0.00     0.674 C 
ATOM     14  H3  UNL     1      -2.418  28.119  29.248  1.00  0.00     0.187 HD
HETATM   15  N1  UNL     1      -0.776  28.030  31.117  1.00  0.00    -0.235 N 
HETATM   16  N2  UNL     1      -1.521  25.864  31.549  1.00  0.00    -0.220 N 
ATOM     17  H12 UNL     1      -0.131  27.911  31.898  1.00  0.00     0.174 HD
ATOM     18  H11 UNL     1      -0.806  28.901  30.587  1.00  0.00     0.174 HD
ATOM     19  H2  UNL     1      -2.397  25.484  31.909  1.00  0.00     0.178 HD
HETATM   20  O2  UNL     1      -3.442  25.180  29.865  1.00  0.00    -0.270 OA
BRANCH  16  21
HETATM   21  C2  UNL     1      -0.295  25.140  31.816  1.00  0.00     0.207 C 
BRANCH  21  22
HETATM   22  C3  UNL     1       0.479  25.654  32.962  1.00  0.00     0.251 C 
HETATM   23  O1  UNL     1       1.368  26.461  32.874  1.00  0.00    -0.305 OA
ENDBRANCH  21  22
ENDBRANCH  16  21
ENDBRANCH   1  11
BRANCH   9  24
HETATM   24  N6  UNL     1      -1.062  26.508  24.238  1.00  0.00    -0.275 N 
ATOM     25  H6  UNL     1      -0.685  25.566  24.130  1.00  0.00     0.189 HD
BRANCH  24  26
HETATM   26  C11 UNL     1      -0.323  27.614  23.740  1.00  0.00     0.199 C 
HETATM   27  N7  UNL     1      -0.536  28.039  22.401  1.00  0.00    -0.068 NA
HETATM   28  S1  UNL     1       0.760  28.401  24.668  1.00  0.00    -0.043 SA
ENDBRANCH  24  26
ENDBRANCH   9  24
TORSDOF 5
ENDMDL
MODEL 2
REMARK VINA RESULT: -7.436825502      1.606      1.868
REMARK  5 active torsions:
REMARK  status: ('A' for Active; 'I' for Inactive)
REMARK       I    between atoms: C1_4  and  N2_5 
REMARK       I    between atoms: C1_4  and  N3_10 
REMARK    1  A    between atoms: N2_5  and  C2_7 
REMARK    2  A    between atoms: C2_7  and  C3_8 
REMARK       I    between atoms: N3_10  and  C4_12 
REMARK    3  A    between atoms: C4_12  and  C5_14 
REMARK       I    between atoms: N4_19  and  C10_20 
REMARK       I    between atoms: C10_20  and  N5_22 
REMARK    4  A    between atoms: N5_22  and  N6_24 
REMARK    5  A    between atoms: N6_24  and  C11_26 
ROOT
HETATM    1  C5  UNL     1      -3.846  25.995  29.935  1.00  0.00     0.181 C 
HETATM    2  C6  UNL     1      -4.642  27.089  30.714  1.00  0.00     0.035 C 
HETATM    3  C7  UNL     1      -5.738  27.696  29.941  1.00  0.00     0.004 C 
HETATM    4  C8  UNL     1      -6.036  26.769  28.763  1.00  0.00     0.020 C 
HETATM    5  C9  UNL     1      -4.847  26.765  27.863  1.00  0.00     0.129 C 
HETATM    6  N4  UNL     1      -3.597  26.371  28.607  1.00  0.00    -0.319 N 
HETATM    7  C10 UNL     1      -2.410  26.417  27.849  1.00  0.00     0.337 C 
HETATM    8  O3  UNL     1      -1.267  26.116  28.208  1.00  0.00    -0.245 OA
HETATM    9  N5  UNL     1      -2.488  26.868  26.471  1.00  0.00    -0.250 N 
ATOM     10  H5  UNL     1      -3.397  27.138  26.097  1.00  0.00     0.192 HD
ENDROOT
BRANCH   1  11
HETATM   11  C4  UNL     1      -2.802  25.535  30.830  1.00  0.00     0.259 C 
HETATM   12  N3  UNL     1      -1.864  26.505  31.326  1.00  0.00    -0.159 N 
HETATM   13  C1  UNL     1      -0.798  26.248  32.199  1.00  0.00     0.674 C 
ATOM     14  H3  UNL     1      -1.986  27.469  31.014  1.00  0.00     0.187 HD
HETATM   15  N1  UNL     1      -0.047  27.222  32.557  1.00  0.00    -0.235 N 
HETATM   16  N2  UNL     1      -0.540  24.946  32.668  1.00  0.00    -0.220 N 
ATOM     17  H12 UNL     1       0.729  27.035  33.192  1.00  0.00     0.174 HD
ATOM     18  H11 UNL     1      -0.234  28.165  32.217  1.00  0.00     0.174 HD
ATOM     19  H2  UNL     1      -1.310  24.417  33.077  1.00  0.00     0.178 HD
HETATM   20  O2  UNL     1      -2.663  24.374  31.197  1.00  0.00    -0.270 OA
BRANCH  16  21
HETATM   21  C2  UNL     1       0.764  24.322  32.598  1.00  0.00     0.207 C 
BRANCH  21  22
HETATM   22  C3  UNL     1       1.744  24.845  33.569  1.00  0.00     0.251 C 
HETATM   23  O1  UNL     1       2.594  25.655  33.307  1.00  0.00    -0.305 OA
ENDBRANCH  21  22
ENDBRANCH  16  21
ENDBRANCH   1  11
BRANCH   9  24
HETATM   24  N6  UNL     1      -1.383  26.948  25.643  1.00  0.00    -0.275 N 
ATOM     25  H6  UNL     1      -0.451  26.850  26.045  1.00  0.00     0.189 HD
BRANCH  24  26
HETATM   26  C11 UNL     1      -1.516  27.164  24.245  1.00  0.00     0.199 C 
HETATM   27  N7  UNL     1      -2.609  26.572  23.557  1.00  0.00    -0.068 NA
HETATM   28  S1  UNL     1      -0.446  28.072  23.417  1.00  0.00    -0.043 SA
ENDBRANCH  24  26
ENDBRANCH   9  24
TORSDOF 5
ENDMDL
MODEL 3
REMARK VINA RESULT: -7.403508168      2.029      2.499
REMARK  5 active torsions:
REMARK  status: ('A' for Active; 'I' for Inactive)
REMARK       I    between atoms: C1_4  and  N2_5 
REMARK       I    between atoms: C1_4  and  N3_10 
REMARK    1  A    between atoms: N2_5  and  C2_7 
REMARK    2  A    between atoms: C2_7  and  C3_8 
REMARK       I    between atoms: N3_10  and  C4_12 
REMARK    3  A    between atoms: C4_12  and  C5_14 
REMARK       I    between atoms: N4_19  and  C10_20 
REMARK       I    between atoms: C10_20  and  N5_22 
REMARK    4  A    between atoms: N5_22  and  N6_24 
REMARK    5  A    between atoms: N6_24  and  C11_26 
ROOT
HETATM    1  C5  UNL     1      -3.845  25.850  30.041  1.00  0.00     0.181 C 
HETATM    2  C6  UNL     1      -4.511  26.916  30.968  1.00  0.00     0.035 C 
HETATM    3  C7  UNL     1      -5.534  27.737  30.298  1.00  0.00     0.004 C 
HETATM    4  C8  UNL     1      -5.937  27.009  29.016  1.00  0.00     0.020 C 
HETATM    5  C9  UNL     1      -4.758  26.990  28.103  1.00  0.00     0.129 C 
HETATM    6  N4  UNL     1      -3.559  26.366  28.768  1.00  0.00    -0.319 N 
HETATM    7  C10 UNL     1      -2.377  26.378  28.002  1.00  0.00     0.337 C 
HETATM    8  O3  UNL     1      -1.274  25.906  28.300  1.00  0.00    -0.245 OA
HETATM    9  N5  UNL     1      -2.407  27.009  26.695  1.00  0.00    -0.250 N 
ATOM     10  H5  UNL     1      -3.281  27.426  26.374  1.00  0.00     0.192 HD
ENDROOT
BRANCH   1  11
HETATM   11  C4  UNL     1      -2.858  25.165  30.851  1.00  0.00     0.259 C 
HETATM   12  N3  UNL     1      -1.779  25.941  31.398  1.00  0.00    -0.159 N 
HETATM   13  C1  UNL     1      -0.740  25.455  32.204  1.00  0.00     0.674 C 
ATOM     14  H3  UNL     1      -1.768  26.937  31.180  1.00  0.00     0.187 HD
HETATM   15  N1  UNL     1       0.151  26.274  32.621  1.00  0.00    -0.235 N 
HETATM   16  N2  UNL     1      -0.661  24.091  32.543  1.00  0.00    -0.220 N 
ATOM     17  H12 UNL     1       0.907  25.920  33.207  1.00  0.00     0.174 HD
ATOM     18  H11 UNL     1       0.095  27.262  32.376  1.00  0.00     0.174 HD
ATOM     19  H2  UNL     1      -1.490  23.639  32.930  1.00  0.00     0.178 HD
HETATM   20  O2  UNL     1      -2.878  23.966  31.106  1.00  0.00    -0.270 OA
BRANCH  16  21
HETATM   21  C2  UNL     1       0.538  23.298  32.368  1.00  0.00     0.207 C 
BRANCH  21  22
HETATM   22  C3  UNL     1       0.366  22.113  31.507  1.00  0.00     0.251 C 
HETATM   23  O1  UNL     1       0.706  20.999  31.810  1.00  0.00    -0.305 OA
ENDBRANCH  21  22
ENDBRANCH  16  21
ENDBRANCH   1  11
BRANCH   9  24
HETATM   24  N6  UNL     1      -1.302  27.073  25.866  1.00  0.00    -0.275 N 
ATOM     25  H6  UNL     1      -0.370  26.974  26.269  1.00  0.00     0.189 HD
BRANCH  24  26
HETATM   26  C11 UNL     1      -1.435  27.272  24.465  1.00  0.00     0.199 C 
HETATM   27  N7  UNL     1      -2.513  26.650  23.779  1.00  0.00    -0.068 NA
HETATM   28  S1  UNL     1      -0.380  28.193  23.632  1.00  0.00    -0.043 SA
ENDBRANCH  24  26
ENDBRANCH   9  24
TORSDOF 5
ENDMDL
MODEL 4
REMARK VINA RESULT: -7.377686193      1.594      2.042
REMARK  5 active torsions:
REMARK  status: ('A' for Active; 'I' for Inactive)
REMARK       I    between atoms: C1_4  and  N2_5 
REMARK       I    between atoms: C1_4  and  N3_10 
REMARK    1  A    between atoms: N2_5  and  C2_7 
REMARK    2  A    between atoms: C2_7  and  C3_8 
REMARK       I    between atoms: N3_10  and  C4_12 
REMARK    3  A    between atoms: C4_12  and  C5_14 
REMARK       I    between atoms: N4_19  and  C10_20 
REMARK       I    between atoms: C10_20  and  N5_22 
REMARK    4  A    between atoms: N5_22  and  N6_24 
REMARK    5  A    between atoms: N6_24  and  C11_26 
ROOT
HETATM    1  C5  UNL     1      -3.599  26.198  29.700  1.00  0.00     0.181 C 
HETATM    2  C6  UNL     1      -4.488  27.378  30.205  1.00  0.00     0.035 C 
HETATM    3  C7  UNL     1      -5.715  27.583  29.418  1.00  0.00     0.004 C 
HETATM    4  C8  UNL     1      -5.960  26.307  28.612  1.00  0.00     0.020 C 
HETATM    5  C9  UNL     1      -4.853  26.164  27.623  1.00  0.00     0.129 C 
HETATM    6  N4  UNL     1      -3.508  26.170  28.300  1.00  0.00    -0.319 N 
HETATM    7  C10 UNL     1      -2.400  26.117  27.431  1.00  0.00     0.337 C 
HETATM    8  O3  UNL     1      -1.201  26.079  27.730  1.00  0.00    -0.245 OA
HETATM    9  N5  UNL     1      -2.645  26.106  26.000  1.00  0.00    -0.250 N 
ATOM     10  H5  UNL     1      -3.609  26.138  25.670  1.00  0.00     0.192 HD
ENDROOT
BRANCH   1  11
HETATM   11  C4  UNL     1      -2.436  26.165  30.564  1.00  0.00     0.259 C 
HETATM   12  N3  UNL     1      -1.649  24.963  30.589  1.00  0.00    -0.159 N 
HETATM   13  C1  UNL     1      -0.495  24.749  31.356  1.00  0.00     0.674 C 
ATOM     14  H3  UNL     1      -1.958  24.194  29.994  1.00  0.00     0.187 HD
HETATM   15  N1  UNL     1       0.103  23.620  31.267  1.00  0.00    -0.235 N 
HETATM   16  N2  UNL     1      -0.002  25.745  32.220  1.00  0.00    -0.220 N 
ATOM     17  H12 UNL     1       0.943  23.465  31.824  1.00  0.00     0.174 HD
ATOM     18  H11 UNL     1      -0.254  22.899  30.641  1.00  0.00     0.174 HD
ATOM     19  H2  UNL     1       0.134  26.685  31.849  1.00  0.00     0.178 HD
HETATM   20  O2  UNL     1      -2.073  27.094  31.278  1.00  0.00    -0.270 OA
BRANCH  16  21
HETATM   21  C2  UNL     1       0.321  25.499  33.610  1.00  0.00     0.207 C 
BRANCH  21  22
HETATM   22  C3  UNL     1       1.765  25.378  33.888  1.00  0.00     0.251 C 
HETATM   23  O1  UNL     1       2.624  25.970  33.288  1.00  0.00    -0.305 OA
ENDBRANCH  21  22
ENDBRANCH  16  21
ENDBRANCH   1  11
BRANCH   9  24
HETATM   24  N6  UNL     1      -1.628  26.054  25.064  1.00  0.00    -0.275 N 
ATOM     25  H6  UNL     1      -0.910  25.334  25.148  1.00  0.00     0.189 HD
BRANCH  24  26
HETATM   26  C11 UNL     1      -1.560  26.980  23.989  1.00  0.00     0.199 C 
HETATM   27  N7  UNL     1      -2.435  26.817  22.881  1.00  0.00    -0.068 NA
HETATM   28  S1  UNL     1      -0.504  28.222  24.000  1.00  0.00    -0.043 SA
ENDBRANCH  24  26
ENDBRANCH   9  24
TORSDOF 5
ENDMDL
MODEL 5
REMARK VINA RESULT: -7.373041557      1.035      1.278
REMARK  5 active torsions:
REMARK  status: ('A' for Active; 'I' for Inactive)
REMARK       I    between atoms: C1_4  and  N2_5 
REMARK       I    between atoms: C1_4  and  N3_10 
REMARK    1  A    between atoms: N2_5  and  C2_7 
REMARK    2  A    between atoms: C2_7  and  C3_8 
REMARK       I    between atoms: N3_10  and  C4_12 
REMARK    3  A    between atoms: C4_12  and  C5_14 
REMARK       I    between atoms: N4_19  and  C10_20 
REMARK       I    between atoms: C10_20  and  N5_22 
REMARK    4  A    between atoms: N5_22  and  N6_24 
REMARK    5  A    between atoms: N6_24  and  C11_26 
ROOT
HETATM    1  C5  UNL     1      -3.743  26.805  28.149  1.00  0.00     0.181 C 
HETATM    2  C6  UNL     1      -4.617  28.053  28.491  1.00  0.00     0.035 C 
HETATM    3  C7  UNL     1      -5.641  28.363  27.480  1.00  0.00     0.004 C 
HETATM    4  C8  UNL     1      -5.821  27.116  26.615  1.00  0.00     0.020 C 
HETATM    5  C9  UNL     1      -4.554  26.885  25.864  1.00  0.00     0.129 C 
HETATM    6  N4  UNL     1      -3.376  26.775  26.796  1.00  0.00    -0.319 N 
HETATM    7  C10 UNL     1      -2.124  26.634  26.164  1.00  0.00     0.337 C 
HETATM    8  O3  UNL     1      -1.017  26.494  26.695  1.00  0.00    -0.245 OA
HETATM    9  N5  UNL     1      -2.077  26.650  24.713  1.00  0.00    -0.250 N 
ATOM     10  H5  UNL     1      -2.950  26.764  24.198  1.00  0.00     0.192 HD
ENDROOT
BRANCH   1  11
HETATM   11  C4  UNL     1      -2.784  26.671  29.227  1.00  0.00     0.259 C 
HETATM   12  N3  UNL     1      -2.062  25.432  29.336  1.00  0.00    -0.159 N 
HETATM   13  C1  UNL     1      -1.097  25.124  30.306  1.00  0.00     0.674 C 
ATOM     14  H3  UNL     1      -2.270  24.712  28.645  1.00  0.00     0.187 HD
HETATM   15  N1  UNL     1      -0.535  23.975  30.270  1.00  0.00    -0.235 N 
HETATM   16  N2  UNL     1      -0.757  26.048  31.312  1.00  0.00    -0.220 N 
ATOM     17  H12 UNL     1       0.167  23.750  30.976  1.00  0.00     0.174 HD
ATOM     18  H11 UNL     1      -0.781  23.305  29.541  1.00  0.00     0.174 HD
ATOM     19  H2  UNL     1      -0.515  26.999  31.035  1.00  0.00     0.178 HD
HETATM   20  O2  UNL     1      -2.543  27.541  30.056  1.00  0.00    -0.270 OA
BRANCH  16  21
HETATM   21  C2  UNL     1      -0.735  25.713  32.721  1.00  0.00     0.207 C 
BRANCH  21  22
HETATM   22  C3  UNL     1       0.618  25.576  33.294  1.00  0.00     0.251 C 
HETATM   23  O1  UNL     1       1.572  26.221  32.943  1.00  0.00    -0.305 OA
ENDBRANCH  21  22
ENDBRANCH  16  21
ENDBRANCH   1  11
BRANCH   9  24
HETATM   24  N6  UNL     1      -0.901  26.518  23.998  1.00  0.00    -0.275 N 
ATOM     25  H6  UNL     1      -0.554  25.584  23.778  1.00  0.00     0.189 HD
BRANCH  24  26
HETATM   26  C11 UNL     1      -0.164  27.652  23.564  1.00  0.00     0.199 C 
HETATM   27  N7  UNL     1      -0.384  28.157  22.254  1.00  0.00    -0.068 NA
HETATM   28  S1  UNL     1       0.924  28.383  24.532  1.00  0.00    -0.043 SA
ENDBRANCH  24  26
ENDBRANCH   9  24
TORSDOF 5
ENDMDL
