MODEL 1
REMARK VINA RESULT: -7.234821252      0.000      0.000
REMARK  4 active torsions:
REMARK  status: ('A' for Active; 'I' for Inactive)
REMARK    1  A    between atoms: N5_24  and  C12_25 
REMARK    2  A    between atoms: C12_25  and  C13_26 
REMARK    3  A    between atoms: C13_26  and  C14_27 
REMARK    4  A    between atoms: C14_27  and  N6_28 
ROOT
HETATM    1  N1  UNL     1      -1.443  23.756  30.430  1.00  0.00    -0.387 N 
ATOM      2  H11 UNL     1      -1.738  23.138  31.185  1.00  0.00     0.157 HD
ATOM      3  H12 UNL     1      -0.875  23.451  29.639  1.00  0.00     0.157 HD
HETATM    4  C1  UNL     1      -1.795  24.973  30.465  1.00  0.00     0.102 C 
HETATM    5  C2  UNL     1      -1.365  25.875  29.364  1.00  0.00     0.307 C 
HETATM    6  N2  UNL     1      -1.659  25.273  28.078  1.00  0.00    -0.067 N 
ATOM      7  H21 UNL     1      -2.473  24.660  28.131  1.00  0.00     0.277 HD
ATOM      8  H22 UNL     1      -0.955  24.582  27.822  1.00  0.00     0.277 HD
HETATM    9  C3  UNL     1      -1.820  26.274  27.040  1.00  0.00     0.260 C 
HETATM   10  C4  UNL     1      -2.819  25.797  26.051  1.00  0.00     0.260 C 
HETATM   11  N3  UNL     1      -3.752  26.802  25.618  1.00  0.00    -0.065 N 
ATOM     12  H31 UNL     1      -4.378  26.433  24.902  1.00  0.00     0.277 HD
ATOM     13  H32 UNL     1      -3.282  27.524  25.073  1.00  0.00     0.277 HD
HETATM   14  C5  UNL     1      -4.503  27.386  26.705  1.00  0.00     0.334 C 
HETATM   15  C6  UNL     1      -5.974  27.275  26.511  1.00  0.00     0.243 C 
HETATM   16  O1  UNL     1      -6.555  28.311  26.059  1.00  0.00    -0.272 OA
HETATM   17  N4  UNL     1      -6.752  26.149  26.779  1.00  0.00    -0.360 N 
ATOM     18  H4  UNL     1      -7.462  25.913  26.085  1.00  0.00     0.162 HD
HETATM   19  C7  UNL     1      -6.666  25.282  27.927  1.00  0.00     0.122 C 
HETATM   20  C8  UNL     1      -6.397  25.993  29.218  1.00  0.00     0.020 C 
HETATM   21  C9  UNL     1      -5.362  25.139  29.968  1.00  0.00     0.003 C 
HETATM   22  C10 UNL     1      -5.013  25.708  31.298  1.00  0.00     0.020 C 
HETATM   23  C11 UNL     1      -3.670  26.376  31.358  1.00  0.00     0.129 C 
HETATM   24  N5  UNL     1      -2.584  25.395  31.560  1.00  0.00    -0.349 N 
ENDROOT
BRANCH  24  25
HETATM   25  C12 UNL     1      -2.409  24.948  32.878  1.00  0.00     0.067 C 
BRANCH  25  26
HETATM   26  C13 UNL     1      -1.938  25.847  33.937  1.00  0.00     0.064 C 
BRANCH  26  27
HETATM   27  C14 UNL     1      -0.720  26.596  33.343  1.00  0.00     0.127 C 
BRANCH  27  28
HETATM   28  N6  UNL     1       0.410  25.697  33.460  1.00  0.00    -0.367 N 
HETATM   29  C15 UNL     1       1.631  26.109  33.382  1.00  0.00     0.196 C 
HETATM   30  N7  UNL     1       1.853  27.483  33.177  1.00  0.00    -0.067 NA
HETATM   31  N8  UNL     1       2.701  25.197  33.501  1.00  0.00    -0.067 NA
ATOM     32  H6  UNL     1       0.234  24.703  33.608  1.00  0.00     0.161 HD
ENDBRANCH  27  28
ENDBRANCH  26  27
ENDBRANCH  25  26
ENDBRANCH  24  25
TORSDOF 4
ENDMDL
MODEL 2
REMARK VINA RESULT: -6.923093036      4.094      8.272
REMARK  4 active torsions:
REMARK  status: ('A' for Active; 'I' for Inactive)
REMARK    1  A    between atoms: N5_24  and  C12_25 
REMARK    2  A    between atoms: C12_25  and  C13_26 
REMARK    3  A    between atoms: C13_26  and  C14_27 
REMARK    4  A    between atoms: C14_27  and  N6_28 
ROOT
HETATM    1  N1  UNL     1      -1.923  26.482  32.574  1.00  0.00    -0.387 N 
ATOM      2  H11 UNL     1      -2.881  26.500  32.226  1.00  0.00     0.157 HD
ATOM      3  H12 UNL     1      -1.613  26.992  33.402  1.00  0.00     0.157 HD
HETATM    4  C1  UNL     1      -1.059  25.794  31.951  1.00  0.00     0.102 C 
HETATM    5  C2  UNL     1       0.338  25.769  32.459  1.00  0.00     0.307 C 
HETATM    6  N2  UNL     1       0.351  25.479  33.880  1.00  0.00    -0.067 N 
ATOM      7  H21 UNL     1      -0.446  24.901  34.149  1.00  0.00     0.277 HD
ATOM      8  H22 UNL     1       0.138  26.310  34.431  1.00  0.00     0.277 HD
HETATM    9  C3  UNL     1       1.604  24.876  34.294  1.00  0.00     0.260 C 
HETATM   10  C4  UNL     1       1.345  23.928  35.408  1.00  0.00     0.260 C 
HETATM   11  N3  UNL     1       2.062  22.685  35.307  1.00  0.00    -0.065 N 
ATOM     12  H31 UNL     1       1.888  22.098  36.123  1.00  0.00     0.277 HD
ATOM     13  H32 UNL     1       3.065  22.834  35.418  1.00  0.00     0.277 HD
HETATM   14  C5  UNL     1       1.782  21.965  34.087  1.00  0.00     0.334 C 
HETATM   15  C6  UNL     1       1.294  20.582  34.336  1.00  0.00     0.243 C 
HETATM   16  O1  UNL     1       2.162  19.659  34.230  1.00  0.00    -0.272 OA
HETATM   17  N4  UNL     1      -0.011  20.221  34.670  1.00  0.00    -0.360 N 
ATOM     18  H4  UNL     1      -0.114  19.519  35.402  1.00  0.00     0.162 HD
HETATM   19  C7  UNL     1      -1.230  20.731  34.095  1.00  0.00     0.122 C 
HETATM   20  C8  UNL     1      -1.165  20.966  32.616  1.00  0.00     0.020 C 
HETATM   21  C9  UNL     1      -1.873  22.307  32.365  1.00  0.00     0.003 C 
HETATM   22  C10 UNL     1      -1.915  22.665  30.921  1.00  0.00     0.020 C 
HETATM   23  C11 UNL     1      -0.951  23.742  30.518  1.00  0.00     0.129 C 
HETATM   24  N5  UNL     1      -1.489  25.088  30.804  1.00  0.00    -0.349 N 
ENDROOT
BRANCH  24  25
HETATM   25  C12 UNL     1      -2.415  25.582  29.874  1.00  0.00     0.067 C 
BRANCH  25  26
HETATM   26  C13 UNL     1      -2.031  26.570  28.860  1.00  0.00     0.064 C 
BRANCH  26  27
HETATM   27  C14 UNL     1      -1.982  25.799  27.518  1.00  0.00     0.127 C 
BRANCH  27  28
HETATM   28  N6  UNL     1      -1.437  26.716  26.539  1.00  0.00    -0.367 N 
HETATM   29  C15 UNL     1      -1.930  26.833  25.351  1.00  0.00     0.196 C 
HETATM   30  N7  UNL     1      -3.036  26.031  25.014  1.00  0.00    -0.067 NA
HETATM   31  N8  UNL     1      -1.366  27.739  24.429  1.00  0.00    -0.067 NA
ATOM     32  H6  UNL     1      -0.634  27.291  26.796  1.00  0.00     0.161 HD
ENDBRANCH  27  28
ENDBRANCH  26  27
ENDBRANCH  25  26
ENDBRANCH  24  25
TORSDOF 4
ENDMDL
MODEL 3
REMARK VINA RESULT: -6.891105391      3.512      6.766
REMARK  4 active torsions:
REMARK  status: ('A' for Active; 'I' for Inactive)
REMARK    1  A    between atoms: N5_24  and  C12_25 
REMARK    2  A    between atoms: C12_25  and  C13_26 
REMARK    3  A    between atoms: C13_26  and  C14_27 
REMARK    4  A    between atoms: C14_27  and  N6_28 
ROOT
HETATM    1  N1  UNL     1      -3.109  27.499  29.925  1.00  0.00    -0.387 N 
ATOM      2  H11 UNL     1      -3.412  28.383  29.518  1.00  0.00     0.157 HD
ATOM      3  H12 UNL     1      -2.449  27.431  30.700  1.00  0.00     0.157 HD
HETATM    4  C1  UNL     1      -3.569  26.418  29.450  1.00  0.00     0.102 C 
HETATM    5  C2  UNL     1      -3.126  25.129  30.044  1.00  0.00     0.307 C 
HETATM    6  N2  UNL     1      -3.253  25.172  31.489  1.00  0.00    -0.067 N 
ATOM      7  H21 UNL     1      -4.010  25.791  31.777  1.00  0.00     0.277 HD
ATOM      8  H22 UNL     1      -2.470  25.668  31.915  1.00  0.00     0.277 HD
HETATM    9  C3  UNL     1      -3.410  23.845  32.054  1.00  0.00     0.260 C 
HETATM   10  C4  UNL     1      -4.273  23.927  33.260  1.00  0.00     0.260 C 
HETATM   11  N3  UNL     1      -5.251  22.877  33.362  1.00  0.00    -0.065 N 
ATOM     12  H31 UNL     1      -5.776  22.954  34.233  1.00  0.00     0.277 HD
ATOM     13  H32 UNL     1      -4.800  21.976  33.517  1.00  0.00     0.277 HD
HETATM   14  C5  UNL     1      -6.142  22.818  32.227  1.00  0.00     0.334 C 
HETATM   15  C6  UNL     1      -7.575  22.909  32.618  1.00  0.00     0.243 C 
HETATM   16  O1  UNL     1      -8.204  21.806  32.684  1.00  0.00    -0.272 OA
HETATM   17  N4  UNL     1      -8.271  24.081  32.911  1.00  0.00    -0.360 N 
ATOM     18  H4  UNL     1      -8.894  24.049  33.718  1.00  0.00     0.162 HD
HETATM   19  C7  UNL     1      -8.208  25.334  32.201  1.00  0.00     0.122 C 
HETATM   20  C8  UNL     1      -8.117  25.194  30.711  1.00  0.00     0.020 C 
HETATM   21  C9  UNL     1      -7.079  26.230  30.248  1.00  0.00     0.003 C 
HETATM   22  C10 UNL     1      -6.899  26.232  28.771  1.00  0.00     0.020 C 
HETATM   23  C11 UNL     1      -5.632  25.584  28.297  1.00  0.00     0.129 C 
HETATM   24  N5  UNL     1      -4.484  26.512  28.376  1.00  0.00    -0.349 N 
ENDROOT
BRANCH  24  25
HETATM   25  C12 UNL     1      -4.386  27.445  27.334  1.00  0.00     0.067 C 
BRANCH  25  26
HETATM   26  C13 UNL     1      -4.359  27.026  25.929  1.00  0.00     0.064 C 
BRANCH  26  27
HETATM   27  C14 UNL     1      -3.036  26.242  25.749  1.00  0.00     0.127 C 
BRANCH  27  28
HETATM   28  N6  UNL     1      -2.018  27.224  25.437  1.00  0.00    -0.367 N 
HETATM   29  C15 UNL     1      -1.607  27.435  24.231  1.00  0.00     0.196 C 
HETATM   30  N7  UNL     1      -2.180  26.673  23.196  1.00  0.00    -0.067 NA
HETATM   31  N8  UNL     1      -0.612  28.401  23.973  1.00  0.00    -0.067 NA
ATOM     32  H6  UNL     1      -1.611  27.769  26.197  1.00  0.00     0.161 HD
ENDBRANCH  27  28
ENDBRANCH  26  27
ENDBRANCH  25  26
ENDBRANCH  24  25
TORSDOF 4
ENDMDL
MODEL 4
REMARK VINA RESULT: -6.797328949      3.177      6.642
REMARK  4 active torsions:
REMARK  status: ('A' for Active; 'I' for Inactive)
REMARK    1  A    between atoms: N5_24  and  C12_25 
REMARK    2  A    between atoms: C12_25  and  C13_26 
REMARK    3  A    between atoms: C13_26  and  C14_27 
REMARK    4  A    between atoms: C14_27  and  N6_28 
ROOT
HETATM    1  N1  UNL     1      -1.089  25.654  30.759  1.00  0.00    -0.387 N 
ATOM      2  H11 UNL     1      -0.608  26.395  30.249  1.00  0.00     0.157 HD
ATOM      3  H12 UNL     1      -0.733  25.236  31.618  1.00  0.00     0.157 HD
HETATM    4  C1  UNL     1      -2.192  25.220  30.308  1.00  0.00     0.102 C 
HETATM    5  C2  UNL     1      -2.894  24.140  31.051  1.00  0.00     0.307 C 
HETATM    6  N2  UNL     1      -2.990  24.480  32.458  1.00  0.00    -0.067 N 
ATOM      7  H21 UNL     1      -3.029  25.489  32.595  1.00  0.00     0.277 HD
ATOM      8  H22 UNL     1      -2.117  24.285  32.948  1.00  0.00     0.277 HD
HETATM    9  C3  UNL     1      -4.113  23.817  33.095  1.00  0.00     0.260 C 
HETATM   10  C4  UNL     1      -4.655  24.694  34.164  1.00  0.00     0.260 C 
HETATM   11  N3  UNL     1      -6.091  24.751  34.213  1.00  0.00    -0.065 N 
ATOM     12  H31 UNL     1      -6.406  25.323  34.997  1.00  0.00     0.277 HD
ATOM     13  H32 UNL     1      -6.482  23.852  34.494  1.00  0.00     0.277 HD
HETATM   14  C5  UNL     1      -6.684  25.205  32.976  1.00  0.00     0.334 C 
HETATM   15  C6  UNL     1      -7.566  26.388  33.163  1.00  0.00     0.243 C 
HETATM   16  O1  UNL     1      -8.813  26.147  33.227  1.00  0.00    -0.272 OA
HETATM   17  N4  UNL     1      -7.147  27.713  33.272  1.00  0.00    -0.360 N 
ATOM     18  H4  UNL     1      -7.605  28.277  33.988  1.00  0.00     0.162 HD
HETATM   19  C7  UNL     1      -6.137  28.376  32.485  1.00  0.00     0.122 C 
HETATM   20  C8  UNL     1      -6.135  27.993  31.036  1.00  0.00     0.020 C 
HETATM   21  C9  UNL     1      -4.659  27.828  30.640  1.00  0.00     0.003 C 
HETATM   22  C10 UNL     1      -4.493  27.473  29.204  1.00  0.00     0.020 C 
HETATM   23  C11 UNL     1      -4.136  26.037  28.954  1.00  0.00     0.129 C 
HETATM   24  N5  UNL     1      -2.687  25.800  29.117  1.00  0.00    -0.349 N 
ENDROOT
BRANCH  24  25
HETATM   25  C12 UNL     1      -1.884  26.179  28.031  1.00  0.00     0.067 C 
BRANCH  25  26
HETATM   26  C13 UNL     1      -2.178  25.727  26.666  1.00  0.00     0.064 C 
BRANCH  26  27
HETATM   27  C14 UNL     1      -2.429  27.013  25.842  1.00  0.00     0.127 C 
BRANCH  27  28
HETATM   28  N6  UNL     1      -1.229  27.241  25.063  1.00  0.00    -0.367 N 
HETATM   29  C15 UNL     1      -1.199  27.094  23.780  1.00  0.00     0.196 C 
HETATM   30  N7  UNL     1      -2.384  26.697  23.133  1.00  0.00    -0.067 NA
HETATM   31  N8  UNL     1      -0.007  27.326  23.062  1.00  0.00    -0.067 NA
ATOM     32  H6  UNL     1      -0.377  27.527  25.545  1.00  0.00     0.161 HD
ENDBRANCH  27  28
ENDBRANCH  26  27
ENDBRANCH  25  26
ENDBRANCH  24  25
TORSDOF 4
ENDMDL
MODEL 5
REMARK VINA RESULT: -6.737778467      4.003      8.322
REMARK  4 active torsions:
REMARK  status: ('A' for Active; 'I' for Inactive)
REMARK    1  A    between atoms: N5_24  and  C12_25 
REMARK    2  A    between atoms: C12_25  and  C13_26 
REMARK    3  A    between atoms: C13_26  and  C14_27 
REMARK    4  A    between atoms: C14_27  and  N6_28 
ROOT
HETATM    1  N1  UNL     1      -0.854  23.994  29.478  1.00  0.00    -0.387 N 
ATOM      2  H11 UNL     1      -0.624  24.863  28.996  1.00  0.00     0.157 HD
ATOM      3  H12 UNL     1      -0.673  23.068  29.091  1.00  0.00     0.157 HD
HETATM    4  C1  UNL     1      -1.396  24.057  30.622  1.00  0.00     0.102 C 
HETATM    5  C2  UNL     1      -1.732  22.791  31.326  1.00  0.00     0.307 C 
HETATM    6  N2  UNL     1      -0.588  21.899  31.327  1.00  0.00    -0.067 N 
ATOM      7  H21 UNL     1       0.289  22.419  31.314  1.00  0.00     0.277 HD
ATOM      8  H22 UNL     1      -0.497  21.411  30.436  1.00  0.00     0.277 HD
HETATM    9  C3  UNL     1      -0.634  20.968  32.439  1.00  0.00     0.260 C 
HETATM   10  C4  UNL     1       0.751  20.666  32.881  1.00  0.00     0.260 C 
HETATM   11  N3  UNL     1       0.926  20.638  34.308  1.00  0.00    -0.065 N 
ATOM     12  H31 UNL     1       1.880  20.373  34.552  1.00  0.00     0.277 HD
ATOM     13  H32 UNL     1       0.424  19.851  34.720  1.00  0.00     0.277 HD
HETATM   14  C5  UNL     1       0.555  21.877  34.951  1.00  0.00     0.334 C 
HETATM   15  C6  UNL     1       1.657  22.451  35.769  1.00  0.00     0.243 C 
HETATM   16  O1  UNL     1       1.594  22.228  37.020  1.00  0.00    -0.272 OA
HETATM   17  N4  UNL     1       2.732  23.198  35.288  1.00  0.00    -0.360 N 
ATOM     18  H4  UNL     1       3.647  22.979  35.680  1.00  0.00     0.162 HD
HETATM   19  C7  UNL     1       2.692  24.244  34.298  1.00  0.00     0.122 C 
HETATM   20  C8  UNL     1       1.495  25.140  34.395  1.00  0.00     0.020 C 
HETATM   21  C9  UNL     1       1.019  25.374  32.952  1.00  0.00     0.003 C 
HETATM   22  C10 UNL     1      -0.160  26.281  32.884  1.00  0.00     0.020 C 
HETATM   23  C11 UNL     1      -1.462  25.590  32.604  1.00  0.00     0.129 C 
HETATM   24  N5  UNL     1      -1.646  25.341  31.159  1.00  0.00    -0.349 N 
ENDROOT
BRANCH  24  25
HETATM   25  C12 UNL     1      -2.079  26.442  30.405  1.00  0.00     0.067 C 
BRANCH  25  26
HETATM   26  C13 UNL     1      -3.433  26.503  29.844  1.00  0.00     0.064 C 
BRANCH  26  27
HETATM   27  C14 UNL     1      -3.327  27.395  28.584  1.00  0.00     0.127 C 
BRANCH  27  28
HETATM   28  N6  UNL     1      -2.640  26.608  27.581  1.00  0.00    -0.367 N 
HETATM   29  C15 UNL     1      -3.168  26.336  26.434  1.00  0.00     0.196 C 
HETATM   30  N7  UNL     1      -4.458  26.831  26.167  1.00  0.00    -0.067 NA
HETATM   31  N8  UNL     1      -2.462  25.564  25.487  1.00  0.00    -0.067 NA
ATOM     32  H6  UNL     1      -1.706  26.255  27.788  1.00  0.00     0.161 HD
ENDBRANCH  27  28
ENDBRANCH  26  27
ENDBRANCH  25  26
ENDBRANCH  24  25
TORSDOF 4
ENDMDL
