MODEL 1
REMARK VINA RESULT: -5.873819687      0.000      0.000
REMARK  3 active torsions:
REMARK  status: ('A' for Active; 'I' for Inactive)
REMARK    1  A    between atoms: C2_2  and  C3_3 
REMARK    2  A    between atoms: C3_3  and  C4_4 
REMARK    3  A    between atoms: C4_4  and  C5_5 
ROOT
HETATM    1  C5  UNL     1      -0.140  24.498  32.735  1.00  0.00     0.176 C 
HETATM    2  N1  UNL     1       0.907  25.447  32.914  1.00  0.00    -0.348 N 
ATOM      3  H1  UNL     1       0.950  26.192  32.219  1.00  0.00     0.163 HD
HETATM    4  C6  UNL     1       1.890  25.497  33.922  1.00  0.00     0.219 C 
HETATM    5  O1  UNL     1       2.101  26.590  34.569  1.00  0.00    -0.274 OA
HETATM    6  C7  UNL     1       2.768  24.384  34.360  1.00  0.00     0.122 C 
HETATM    7  C8  UNL     1       2.476  23.910  35.754  1.00  0.00     0.129 C 
HETATM    8  N2  UNL     1       1.494  22.901  35.886  1.00  0.00    -0.386 N 
ATOM      9  H2  UNL     1       0.497  23.091  35.990  1.00  0.00     0.160 HD
HETATM   10  C9  UNL     1       2.054  21.574  35.858  1.00  0.00     0.178 C 
HETATM   11  N3  UNL     1       1.089  20.508  35.883  1.00  0.00    -0.330 N 
ATOM     12  H3  UNL     1       1.396  19.666  36.370  1.00  0.00     0.169 HD
HETATM   13  C10 UNL     1      -0.210  20.437  35.344  1.00  0.00     0.172 C 
HETATM   14  S1  UNL     1      -1.379  19.903  36.392  1.00  0.00    -0.041 SA
HETATM   15  N4  UNL     1      -0.690  20.746  34.049  1.00  0.00    -0.365 N 
ATOM     16  H4  UNL     1      -1.572  21.259  34.026  1.00  0.00     0.161 HD
HETATM   17  C11 UNL     1      -0.128  20.451  32.772  1.00  0.00     0.141 C 
HETATM   18  C12 UNL     1       0.601  21.573  32.119  1.00  0.00     0.142 C 
HETATM   19  N5  UNL     1      -0.161  22.418  31.273  1.00  0.00    -0.358 N 
ATOM     20  H5  UNL     1      -0.734  21.995  30.543  1.00  0.00     0.162 HD
HETATM   21  C13 UNL     1      -0.153  23.831  31.405  1.00  0.00     0.240 C 
HETATM   22  O2  UNL     1      -0.158  24.598  30.394  1.00  0.00    -0.271 OA
ENDROOT
BRANCH   1  23
HETATM   23  C4  UNL     1      -1.514  25.199  32.797  1.00  0.00     0.038 C 
BRANCH  23  24
HETATM   24  C3  UNL     1      -1.365  26.606  33.323  1.00  0.00     0.029 C 
BRANCH  24  25
HETATM   25  C2  UNL     1      -2.071  27.523  32.397  1.00  0.00    -0.037 C 
HETATM   26  C1  UNL     1      -1.487  27.898  31.272  1.00  0.00     0.007 C 
ENDBRANCH  24  25
ENDBRANCH  23  24
ENDBRANCH   1  23
TORSDOF 3
ENDMDL
MODEL 2
REMARK VINA RESULT: -5.864700566      3.079      4.190
REMARK  3 active torsions:
REMARK  status: ('A' for Active; 'I' for Inactive)
REMARK    1  A    between atoms: C2_2  and  C3_3 
REMARK    2  A    between atoms: C3_3  and  C4_4 
REMARK    3  A    between atoms: C4_4  and  C5_5 
ROOT
HETATM    1  C5  UNL     1      -2.287  26.072  29.995  1.00  0.00     0.176 C 
HETATM    2  N1  UNL     1      -1.767  27.367  30.275  1.00  0.00    -0.348 N 
ATOM      3  H1  UNL     1      -1.665  27.985  29.470  1.00  0.00     0.163 HD
HETATM    4  C6  UNL     1      -1.375  27.912  31.515  1.00  0.00     0.219 C 
HETATM    5  O1  UNL     1      -1.809  29.067  31.881  1.00  0.00    -0.274 OA
HETATM    6  C7  UNL     1      -0.470  27.287  32.511  1.00  0.00     0.122 C 
HETATM    7  C8  UNL     1      -1.165  26.900  33.784  1.00  0.00     0.129 C 
HETATM    8  N2  UNL     1      -1.744  25.611  33.822  1.00  0.00    -0.386 N 
ATOM      9  H2  UNL     1      -2.695  25.408  33.513  1.00  0.00     0.160 HD
HETATM   10  C9  UNL     1      -0.845  24.614  34.344  1.00  0.00     0.178 C 
HETATM   11  N3  UNL     1      -1.347  23.266  34.306  1.00  0.00    -0.330 N 
ATOM     12  H3  UNL     1      -1.032  22.673  35.073  1.00  0.00     0.169 HD
HETATM   13  C10 UNL     1      -2.200  22.633  33.383  1.00  0.00     0.172 C 
HETATM   14  S1  UNL     1      -3.475  21.810  34.051  1.00  0.00    -0.041 SA
HETATM   15  N4  UNL     1      -2.154  22.580  31.969  1.00  0.00    -0.365 N 
ATOM     16  H4  UNL     1      -3.052  22.702  31.502  1.00  0.00     0.161 HD
HETATM   17  C11 UNL     1      -1.041  22.383  31.099  1.00  0.00     0.141 C 
HETATM   18  C12 UNL     1      -0.490  23.617  30.475  1.00  0.00     0.142 C 
HETATM   19  N5  UNL     1      -1.040  23.995  29.223  1.00  0.00    -0.358 N 
ATOM     20  H5  UNL     1      -1.086  23.301  28.477  1.00  0.00     0.162 HD
HETATM   21  C13 UNL     1      -1.526  25.304  28.972  1.00  0.00     0.240 C 
HETATM   22  O2  UNL     1      -1.338  25.887  27.860  1.00  0.00    -0.271 OA
ENDROOT
BRANCH   1  23
HETATM   23  C4  UNL     1      -3.699  26.183  29.381  1.00  0.00     0.038 C 
BRANCH  23  24
HETATM   24  C3  UNL     1      -4.100  27.631  29.241  1.00  0.00     0.029 C 
BRANCH  24  25
HETATM   25  C2  UNL     1      -4.489  27.870  27.831  1.00  0.00    -0.037 C 
HETATM   26  C1  UNL     1      -5.591  28.547  27.559  1.00  0.00     0.007 C 
ENDBRANCH  24  25
ENDBRANCH  23  24
ENDBRANCH   1  23
TORSDOF 3
ENDMDL
MODEL 3
REMARK VINA RESULT: -5.818619000      2.015      2.551
REMARK  3 active torsions:
REMARK  status: ('A' for Active; 'I' for Inactive)
REMARK    1  A    between atoms: C2_2  and  C3_3 
REMARK    2  A    between atoms: C3_3  and  C4_4 
REMARK    3  A    between atoms: C4_4  and  C5_5 
ROOT
HETATM    1  C5  UNL     1       0.212  22.751  33.072  1.00  0.00     0.176 C 
HETATM    2  N1  UNL     1       0.924  23.895  32.610  1.00  0.00    -0.348 N 
ATOM      3  H1  UNL     1       0.891  24.058  31.604  1.00  0.00     0.163 HD
HETATM    4  C6  UNL     1       1.667  24.832  33.356  1.00  0.00     0.219 C 
HETATM    5  O1  UNL     1       1.466  26.093  33.196  1.00  0.00    -0.274 OA
HETATM    6  C7  UNL     1       2.716  24.533  34.362  1.00  0.00     0.122 C 
HETATM    7  C8  UNL     1       2.320  24.902  35.761  1.00  0.00     0.129 C 
HETATM    8  N2  UNL     1       1.631  23.916  36.504  1.00  0.00    -0.386 N 
ATOM      9  H2  UNL     1       0.617  23.805  36.493  1.00  0.00     0.160 HD
HETATM   10  C9  UNL     1       2.516  23.085  37.279  1.00  0.00     0.178 C 
HETATM   11  N3  UNL     1       1.876  21.998  37.971  1.00  0.00    -0.330 N 
ATOM     12  H3  UNL     1       2.303  21.751  38.864  1.00  0.00     0.169 HD
HETATM   13  C10 UNL     1       0.757  21.221  37.618  1.00  0.00     0.172 C 
HETATM   14  S1  UNL     1      -0.396  21.066  38.801  1.00  0.00    -0.041 SA
HETATM   15  N4  UNL     1       0.447  20.543  36.415  1.00  0.00    -0.365 N 
ATOM     16  H4  UNL     1      -0.521  20.634  36.104  1.00  0.00     0.161 HD
HETATM   17  C11 UNL     1       1.281  19.752  35.571  1.00  0.00     0.141 C 
HETATM   18  C12 UNL     1       1.792  20.438  34.353  1.00  0.00     0.142 C 
HETATM   19  N5  UNL     1       0.996  20.334  33.184  1.00  0.00    -0.358 N 
ATOM     20  H5  UNL     1       0.690  19.411  32.877  1.00  0.00     0.162 HD
HETATM   21  C13 UNL     1       0.608  21.470  32.426  1.00  0.00     0.240 C 
HETATM   22  O2  UNL     1       0.579  21.450  31.157  1.00  0.00    -0.271 OA
ENDROOT
BRANCH   1  23
HETATM   23  C4  UNL     1      -1.287  22.878  32.725  1.00  0.00     0.038 C 
BRANCH  23  24
HETATM   24  C3  UNL     1      -1.560  24.194  32.040  1.00  0.00     0.029 C 
BRANCH  24  25
HETATM   25  C2  UNL     1      -2.043  23.910  30.667  1.00  0.00    -0.037 C 
HETATM   26  C1  UNL     1      -1.244  24.115  29.635  1.00  0.00     0.007 C 
ENDBRANCH  24  25
ENDBRANCH  23  24
ENDBRANCH   1  23
TORSDOF 3
ENDMDL
MODEL 4
REMARK VINA RESULT: -5.746471742      5.245      7.259
REMARK  3 active torsions:
REMARK  status: ('A' for Active; 'I' for Inactive)
REMARK    1  A    between atoms: C2_2  and  C3_3 
REMARK    2  A    between atoms: C3_3  and  C4_4 
REMARK    3  A    between atoms: C4_4  and  C5_5 
ROOT
HETATM    1  C5  UNL     1      -5.592  27.041  30.525  1.00  0.00     0.176 C 
HETATM    2  N1  UNL     1      -6.000  27.614  29.287  1.00  0.00    -0.348 N 
ATOM      3  H1  UNL     1      -6.965  27.942  29.249  1.00  0.00     0.163 HD
HETATM    4  C6  UNL     1      -5.251  27.789  28.106  1.00  0.00     0.219 C 
HETATM    5  O1  UNL     1      -5.226  28.934  27.518  1.00  0.00    -0.274 OA
HETATM    6  C7  UNL     1      -4.439  26.760  27.410  1.00  0.00     0.122 C 
HETATM    7  C8  UNL     1      -2.964  27.035  27.459  1.00  0.00     0.129 C 
HETATM    8  N2  UNL     1      -2.263  26.523  28.575  1.00  0.00    -0.386 N 
ATOM      9  H2  UNL     1      -2.152  27.029  29.454  1.00  0.00     0.160 HD
HETATM   10  C9  UNL     1      -1.722  25.210  28.337  1.00  0.00     0.178 C 
HETATM   11  N3  UNL     1      -1.089  24.599  29.475  1.00  0.00    -0.330 N 
ATOM     12  H3  UNL     1      -0.299  23.994  29.250  1.00  0.00     0.169 HD
HETATM   13  C10 UNL     1      -1.383  24.699  30.848  1.00  0.00     0.172 C 
HETATM   14  S1  UNL     1      -0.085  25.038  31.824  1.00  0.00    -0.041 SA
HETATM   15  N4  UNL     1      -2.608  24.558  31.543  1.00  0.00    -0.365 N 
ATOM     16  H4  UNL     1      -2.773  25.250  32.274  1.00  0.00     0.161 HD
HETATM   17  C11 UNL     1      -3.647  23.595  31.376  1.00  0.00     0.141 C 
HETATM   18  C12 UNL     1      -4.829  24.058  30.598  1.00  0.00     0.142 C 
HETATM   19  N5  UNL     1      -5.884  24.649  31.338  1.00  0.00    -0.358 N 
ATOM     20  H5  UNL     1      -6.258  24.151  32.145  1.00  0.00     0.162 HD
HETATM   21  C13 UNL     1      -6.438  25.911  30.995  1.00  0.00     0.240 C 
HETATM   22  O2  UNL     1      -7.684  26.138  31.074  1.00  0.00    -0.271 OA
ENDROOT
BRANCH   1  23
HETATM   23  C4  UNL     1      -5.717  28.078  31.661  1.00  0.00     0.038 C 
BRANCH  23  24
HETATM   24  C3  UNL     1      -4.435  28.149  32.454  1.00  0.00     0.029 C 
BRANCH  24  25
HETATM   25  C2  UNL     1      -3.303  27.921  31.525  1.00  0.00    -0.037 C 
HETATM   26  C1  UNL     1      -2.093  28.342  31.849  1.00  0.00     0.007 C 
ENDBRANCH  24  25
ENDBRANCH  23  24
ENDBRANCH   1  23
TORSDOF 3
ENDMDL
MODEL 5
REMARK VINA RESULT: -5.720043099      2.315      3.089
REMARK  3 active torsions:
REMARK  status: ('A' for Active; 'I' for Inactive)
REMARK    1  A    between atoms: C2_2  and  C3_3 
REMARK    2  A    between atoms: C3_3  and  C4_4 
REMARK    3  A    between atoms: C4_4  and  C5_5 
ROOT
HETATM    1  C5  UNL     1       0.205  22.808  32.997  1.00  0.00     0.176 C 
HETATM    2  N1  UNL     1       0.939  23.951  32.571  1.00  0.00    -0.348 N 
ATOM      3  H1  UNL     1       0.936  24.129  31.567  1.00  0.00     0.163 HD
HETATM    4  C6  UNL     1       1.669  24.871  33.350  1.00  0.00     0.219 C 
HETATM    5  O1  UNL     1       1.484  26.137  33.202  1.00  0.00    -0.274 OA
HETATM    6  C7  UNL     1       2.687  24.550  34.381  1.00  0.00     0.122 C 
HETATM    7  C8  UNL     1       2.254  24.904  35.774  1.00  0.00     0.129 C 
HETATM    8  N2  UNL     1       1.536  23.914  36.483  1.00  0.00    -0.386 N 
ATOM      9  H2  UNL     1       0.521  23.812  36.442  1.00  0.00     0.160 HD
HETATM   10  C9  UNL     1       2.391  23.065  37.271  1.00  0.00     0.178 C 
HETATM   11  N3  UNL     1       1.723  21.975  37.931  1.00  0.00    -0.330 N 
ATOM     12  H3  UNL     1       2.122  21.712  38.831  1.00  0.00     0.169 HD
HETATM   13  C10 UNL     1       0.607  21.212  37.535  1.00  0.00     0.172 C 
HETATM   14  S1  UNL     1      -0.580  21.052  38.682  1.00  0.00    -0.041 SA
HETATM   15  N4  UNL     1       0.326  20.553  36.315  1.00  0.00    -0.365 N 
ATOM     16  H4  UNL     1      -0.632  20.657  35.978  1.00  0.00     0.161 HD
HETATM   17  C11 UNL     1       1.177  19.767  35.484  1.00  0.00     0.141 C 
HETATM   18  C12 UNL     1       1.728  20.464  34.290  1.00  0.00     0.142 C 
HETATM   19  N5  UNL     1       0.964  20.383  33.098  1.00  0.00    -0.358 N 
ATOM     20  H5  UNL     1       0.660  19.467  32.770  1.00  0.00     0.162 HD
HETATM   21  C13 UNL     1       0.608  21.532  32.345  1.00  0.00     0.240 C 
HETATM   22  O2  UNL     1       0.615  21.530  31.076  1.00  0.00    -0.271 OA
ENDROOT
BRANCH   1  23
HETATM   23  C4  UNL     1      -1.282  22.953  32.609  1.00  0.00     0.038 C 
BRANCH  23  24
HETATM   24  C3  UNL     1      -2.121  21.939  33.348  1.00  0.00     0.029 C 
BRANCH  24  25
HETATM   25  C2  UNL     1      -3.211  21.495  32.448  1.00  0.00    -0.037 C 
HETATM   26  C1  UNL     1      -2.917  20.908  31.301  1.00  0.00     0.007 C 
ENDBRANCH  24  25
ENDBRANCH  23  24
ENDBRANCH   1  23
TORSDOF 3
ENDMDL
