MODEL 1
REMARK VINA RESULT: -7.220590051      0.000      0.000
REMARK  4 active torsions:
REMARK  status: ('A' for Active; 'I' for Inactive)
REMARK    1  A    between atoms: C1_2  and  C2_4 
REMARK    2  A    between atoms: C2_4  and  N2_5 
REMARK       I    between atoms: N2_5  and  C3_7 
REMARK    3  A    between atoms: N4_9  and  O2_11 
REMARK       I    between atoms: N5_15  and  C6_16 
REMARK       I    between atoms: C6_16  and  N6_18 
REMARK    4  A    between atoms: N6_18  and  C7_20 
ROOT
HETATM    1  C2  UNL     1       0.990  24.725  34.105  1.00  0.00     0.114 C 
HETATM    2  C4  UNL     1      -0.124  25.678  33.848  1.00  0.00     0.060 C 
HETATM    3  C5  UNL     1      -0.389  25.956  32.384  1.00  0.00     0.130 C 
HETATM    4  N5  UNL     1      -0.645  24.709  31.706  1.00  0.00    -0.334 N 
HETATM    5  C6  UNL     1      -1.375  24.685  30.498  1.00  0.00     0.318 C 
HETATM    6  O3  UNL     1      -1.579  23.569  29.939  1.00  0.00    -0.247 OA
HETATM    7  N6  UNL     1      -1.886  25.889  29.898  1.00  0.00    -0.338 N 
ATOM      8  H6  UNL     1      -1.718  26.785  30.355  1.00  0.00     0.164 HD
HETATM    9  C12 UNL     1      -0.152  23.473  32.263  1.00  0.00     0.130 C 
HETATM   10  C13 UNL     1       1.149  23.697  33.009  1.00  0.00     0.060 C 
ENDROOT
BRANCH   7  11
HETATM   11  C7  UNL     1      -2.634  25.855  28.658  1.00  0.00     0.089 C 
HETATM   12  C8  UNL     1      -3.562  27.050  28.644  1.00  0.00     0.052 C 
HETATM   13  C9  UNL     1      -4.179  27.307  27.309  1.00  0.00     0.234 C 
HETATM   14  N7  UNL     1      -3.654  26.472  26.257  1.00  0.00    -0.075 N 
HETATM   15  C10 UNL     1      -2.215  26.481  26.267  1.00  0.00     0.234 C 
ATOM     16  H72 UNL     1      -4.026  25.523  26.309  1.00  0.00     0.277 HD
ATOM     17  H71 UNL     1      -4.027  26.734  25.345  1.00  0.00     0.277 HD
HETATM   18  C11 UNL     1      -1.625  25.917  27.534  1.00  0.00     0.052 C 
ENDBRANCH   7  11
BRANCH   1  19
HETATM   19  C1  UNL     1       2.315  25.416  34.216  1.00  0.00     0.259 C 
HETATM   20  N1  UNL     1       2.458  26.382  35.233  1.00  0.00    -0.060 NA
HETATM   21  O1  UNL     1       3.263  25.171  33.458  1.00  0.00    -0.274 OA
ENDBRANCH   1  19
BRANCH   1  22
HETATM   22  N2  UNL     1       0.756  24.034  35.366  1.00  0.00    -0.345 N 
HETATM   23  C3  UNL     1       1.731  23.178  35.947  1.00  0.00     0.209 C 
HETATM   24  N3  UNL     1       1.348  21.898  36.443  1.00  0.00    -0.062 NA
HETATM   25  N4  UNL     1       2.952  23.509  36.047  1.00  0.00    -0.241 N 
ATOM     26  H4  UNL     1       3.214  24.427  35.689  1.00  0.00     0.197 HD
ATOM     27  H2  UNL     1      -0.133  24.168  35.847  1.00  0.00     0.163 HD
BRANCH  25  28
HETATM   28  O2  UNL     1       3.940  22.756  36.584  1.00  0.00    -0.287 OA
ATOM     29  H2  UNL     1       4.502  23.005  37.308  1.00  0.00     0.244 HD
ENDBRANCH  25  28
ENDBRANCH   1  22
TORSDOF 4
ENDMDL
MODEL 2
REMARK VINA RESULT: -7.003269621      2.667      3.752
REMARK  4 active torsions:
REMARK  status: ('A' for Active; 'I' for Inactive)
REMARK    1  A    between atoms: C1_2  and  C2_4 
REMARK    2  A    between atoms: C2_4  and  N2_5 
REMARK       I    between atoms: N2_5  and  C3_7 
REMARK    3  A    between atoms: N4_9  and  O2_11 
REMARK       I    between atoms: N5_15  and  C6_16 
REMARK       I    between atoms: C6_16  and  N6_18 
REMARK    4  A    between atoms: N6_18  and  C7_20 
ROOT
HETATM    1  C2  UNL     1      -0.197  23.296  32.209  1.00  0.00     0.114 C 
HETATM    2  C4  UNL     1      -0.168  24.315  31.124  1.00  0.00     0.060 C 
HETATM    3  C5  UNL     1      -1.471  24.470  30.370  1.00  0.00     0.130 C 
HETATM    4  N5  UNL     1      -2.522  24.782  31.307  1.00  0.00    -0.334 N 
HETATM    5  C6  UNL     1      -3.695  25.438  30.876  1.00  0.00     0.318 C 
HETATM    6  O3  UNL     1      -4.592  25.695  31.731  1.00  0.00    -0.247 OA
HETATM    7  N6  UNL     1      -3.890  25.816  29.501  1.00  0.00    -0.338 N 
ATOM      8  H6  UNL     1      -3.163  25.606  28.817  1.00  0.00     0.164 HD
HETATM    9  C12 UNL     1      -2.379  24.421  32.695  1.00  0.00     0.130 C 
HETATM   10  C13 UNL     1      -1.561  23.153  32.844  1.00  0.00     0.060 C 
ENDROOT
BRANCH   7  11
HETATM   11  C7  UNL     1      -5.098  26.489  29.068  1.00  0.00     0.089 C 
HETATM   12  C8  UNL     1      -4.688  27.753  28.343  1.00  0.00     0.052 C 
HETATM   13  C9  UNL     1      -5.808  28.394  27.591  1.00  0.00     0.234 C 
HETATM   14  N7  UNL     1      -7.015  27.608  27.566  1.00  0.00    -0.075 N 
HETATM   15  C10 UNL     1      -6.734  26.249  27.184  1.00  0.00     0.234 C 
ATOM     16  H72 UNL     1      -7.513  27.655  28.456  1.00  0.00     0.277 HD
ATOM     17  H71 UNL     1      -7.727  28.028  26.969  1.00  0.00     0.277 HD
HETATM   18  C11 UNL     1      -5.831  25.533  28.155  1.00  0.00     0.052 C 
ENDBRANCH   7  11
BRANCH   1  19
HETATM   19  C1  UNL     1       0.172  21.930  31.716  1.00  0.00     0.259 C 
HETATM   20  N1  UNL     1      -0.430  20.828  32.357  1.00  0.00    -0.060 NA
HETATM   21  O1  UNL     1       0.970  21.746  30.788  1.00  0.00    -0.274 OA
ENDBRANCH   1  19
BRANCH   1  22
HETATM   22  N2  UNL     1       0.766  23.658  33.241  1.00  0.00    -0.345 N 
HETATM   23  C3  UNL     1       1.292  24.973  33.352  1.00  0.00     0.209 C 
HETATM   24  N3  UNL     1       2.693  25.165  33.528  1.00  0.00    -0.062 NA
HETATM   25  N4  UNL     1       0.556  26.006  33.301  1.00  0.00    -0.241 N 
ATOM     26  H4  UNL     1      -0.444  25.855  33.175  1.00  0.00     0.197 HD
ATOM     27  H2  UNL     1       1.070  22.946  33.905  1.00  0.00     0.163 HD
BRANCH  25  28
HETATM   28  O2  UNL     1       0.976  27.288  33.397  1.00  0.00    -0.287 OA
ATOM     29  H2  UNL     1       0.728  28.003  32.822  1.00  0.00     0.244 HD
ENDBRANCH  25  28
ENDBRANCH   1  22
TORSDOF 4
ENDMDL
MODEL 3
REMARK VINA RESULT: -6.935185681      1.713      2.516
REMARK  4 active torsions:
REMARK  status: ('A' for Active; 'I' for Inactive)
REMARK    1  A    between atoms: C1_2  and  C2_4 
REMARK    2  A    between atoms: C2_4  and  N2_5 
REMARK       I    between atoms: N2_5  and  C3_7 
REMARK    3  A    between atoms: N4_9  and  O2_11 
REMARK       I    between atoms: N5_15  and  C6_16 
REMARK       I    between atoms: C6_16  and  N6_18 
REMARK    4  A    between atoms: N6_18  and  C7_20 
ROOT
HETATM    1  C2  UNL     1       0.562  25.272  34.154  1.00  0.00     0.114 C 
HETATM    2  C4  UNL     1       0.928  24.865  32.770  1.00  0.00     0.060 C 
HETATM    3  C5  UNL     1      -0.216  24.901  31.780  1.00  0.00     0.130 C 
HETATM    4  N5  UNL     1      -0.786  26.226  31.767  1.00  0.00    -0.334 N 
HETATM    5  C6  UNL     1      -1.510  26.684  30.645  1.00  0.00     0.318 C 
HETATM    6  O3  UNL     1      -1.990  27.854  30.674  1.00  0.00    -0.247 OA
HETATM    7  N6  UNL     1      -1.709  25.858  29.483  1.00  0.00    -0.338 N 
ATOM      8  H6  UNL     1      -1.319  24.917  29.466  1.00  0.00     0.164 HD
HETATM    9  C12 UNL     1      -0.619  27.092  32.907  1.00  0.00     0.130 C 
HETATM   10  C13 UNL     1      -0.554  26.290  34.192  1.00  0.00     0.060 C 
ENDROOT
BRANCH   7  11
HETATM   11  C7  UNL     1      -2.454  26.338  28.336  1.00  0.00     0.089 C 
HETATM   12  C8  UNL     1      -1.854  25.706  27.098  1.00  0.00     0.052 C 
HETATM   13  C9  UNL     1      -2.698  25.876  25.878  1.00  0.00     0.234 C 
HETATM   14  N7  UNL     1      -3.987  26.465  26.142  1.00  0.00    -0.075 N 
HETATM   15  C10 UNL     1      -4.641  25.797  27.236  1.00  0.00     0.234 C 
ATOM     16  H72 UNL     1      -3.917  27.470  26.300  1.00  0.00     0.277 HD
ATOM     17  H71 UNL     1      -4.572  26.481  25.306  1.00  0.00     0.277 HD
HETATM   18  C11 UNL     1      -3.892  25.917  28.539  1.00  0.00     0.052 C 
ENDBRANCH   7  11
BRANCH   1  19
HETATM   19  C1  UNL     1       0.090  24.114  34.981  1.00  0.00     0.259 C 
HETATM   20  N1  UNL     1      -0.544  24.411  36.205  1.00  0.00    -0.060 NA
HETATM   21  O1  UNL     1       0.239  22.937  34.631  1.00  0.00    -0.274 OA
ENDBRANCH   1  19
BRANCH   1  22
HETATM   22  N2  UNL     1       1.730  25.832  34.821  1.00  0.00    -0.345 N 
HETATM   23  C3  UNL     1       2.489  25.086  35.763  1.00  0.00     0.209 C 
HETATM   24  N3  UNL     1       2.866  25.680  37.002  1.00  0.00    -0.062 NA
HETATM   25  N4  UNL     1       2.854  23.890  35.547  1.00  0.00    -0.241 N 
ATOM     26  H4  UNL     1       2.579  23.476  34.657  1.00  0.00     0.197 HD
ATOM     27  H2  UNL     1       2.012  26.788  34.605  1.00  0.00     0.163 HD
BRANCH  25  28
HETATM   28  O2  UNL     1       3.575  23.113  36.388  1.00  0.00    -0.287 OA
ATOM     29  H2  UNL     1       4.504  23.194  36.566  1.00  0.00     0.244 HD
ENDBRANCH  25  28
ENDBRANCH   1  22
TORSDOF 4
ENDMDL
MODEL 4
REMARK VINA RESULT: -6.814901908      1.988      2.358
REMARK  4 active torsions:
REMARK  status: ('A' for Active; 'I' for Inactive)
REMARK    1  A    between atoms: C1_2  and  C2_4 
REMARK    2  A    between atoms: C2_4  and  N2_5 
REMARK       I    between atoms: N2_5  and  C3_7 
REMARK    3  A    between atoms: N4_9  and  O2_11 
REMARK       I    between atoms: N5_15  and  C6_16 
REMARK       I    between atoms: C6_16  and  N6_18 
REMARK    4  A    between atoms: N6_18  and  C7_20 
ROOT
HETATM    1  C2  UNL     1       0.104  26.051  33.539  1.00  0.00     0.114 C 
HETATM    2  C4  UNL     1      -1.127  26.887  33.518  1.00  0.00     0.060 C 
HETATM    3  C5  UNL     1      -1.678  27.162  32.136  1.00  0.00     0.130 C 
HETATM    4  N5  UNL     1      -1.927  25.908  31.470  1.00  0.00    -0.334 N 
HETATM    5  C6  UNL     1      -2.856  25.830  30.410  1.00  0.00     0.318 C 
HETATM    6  O3  UNL     1      -3.046  24.709  29.855  1.00  0.00    -0.247 OA
HETATM    7  N6  UNL     1      -3.584  26.985  29.955  1.00  0.00    -0.338 N 
ATOM      8  H6  UNL     1      -3.426  27.885  30.407  1.00  0.00     0.164 HD
HETATM    9  C12 UNL     1      -1.221  24.720  31.884  1.00  0.00     0.130 C 
HETATM   10  C13 UNL     1       0.164  25.065  32.395  1.00  0.00     0.060 C 
ENDROOT
BRANCH   7  11
HETATM   11  C7  UNL     1      -4.536  26.896  28.866  1.00  0.00     0.089 C 
HETATM   12  C8  UNL     1      -5.899  26.623  29.465  1.00  0.00     0.052 C 
HETATM   13  C9  UNL     1      -7.019  26.796  28.493  1.00  0.00     0.234 C 
HETATM   14  N7  UNL     1      -6.607  27.340  27.224  1.00  0.00    -0.075 N 
HETATM   15  C10 UNL     1      -5.786  28.508  27.410  1.00  0.00     0.234 C 
ATOM     16  H72 UNL     1      -6.141  26.640  26.647  1.00  0.00     0.277 HD
ATOM     17  H71 UNL     1      -7.404  27.532  26.618  1.00  0.00     0.277 HD
HETATM   18  C11 UNL     1      -4.499  28.221  28.139  1.00  0.00     0.052 C 
ENDBRANCH   7  11
BRANCH   1  19
HETATM   19  C1  UNL     1       1.352  26.874  33.438  1.00  0.00     0.259 C 
HETATM   20  N1  UNL     1       1.211  28.274  33.523  1.00  0.00    -0.060 NA
HETATM   21  O1  UNL     1       2.473  26.373  33.285  1.00  0.00    -0.274 OA
ENDBRANCH   1  19
BRANCH   1  22
HETATM   22  N2  UNL     1       0.171  25.316  34.796  1.00  0.00    -0.345 N 
HETATM   23  C3  UNL     1       0.665  23.985  34.863  1.00  0.00     0.209 C 
HETATM   24  N3  UNL     1      -0.053  22.997  35.597  1.00  0.00    -0.062 NA
HETATM   25  N4  UNL     1       1.738  23.628  34.288  1.00  0.00    -0.241 N 
ATOM     26  H4  UNL     1       2.243  24.344  33.767  1.00  0.00     0.197 HD
ATOM     27  H2  UNL     1      -0.145  25.770  35.652  1.00  0.00     0.163 HD
BRANCH  25  28
HETATM   28  O2  UNL     1       2.275  22.386  34.302  1.00  0.00    -0.287 OA
ATOM     29  H2  UNL     1       2.591  21.922  35.069  1.00  0.00     0.244 HD
ENDBRANCH  25  28
ENDBRANCH   1  22
TORSDOF 4
ENDMDL
MODEL 5
REMARK VINA RESULT: -6.736209547      2.149      2.629
REMARK  4 active torsions:
REMARK  status: ('A' for Active; 'I' for Inactive)
REMARK    1  A    between atoms: C1_2  and  C2_4 
REMARK    2  A    between atoms: C2_4  and  N2_5 
REMARK       I    between atoms: N2_5  and  C3_7 
REMARK    3  A    between atoms: N4_9  and  O2_11 
REMARK       I    between atoms: N5_15  and  C6_16 
REMARK       I    between atoms: C6_16  and  N6_18 
REMARK    4  A    between atoms: N6_18  and  C7_20 
ROOT
HETATM    1  C2  UNL     1       0.498  25.848  33.625  1.00  0.00     0.114 C 
HETATM    2  C4  UNL     1      -0.635  26.677  33.132  1.00  0.00     0.060 C 
HETATM    3  C5  UNL     1      -0.750  26.755  31.625  1.00  0.00     0.130 C 
HETATM    4  N5  UNL     1      -0.851  25.420  31.090  1.00  0.00    -0.334 N 
HETATM    5  C6  UNL     1      -1.436  25.197  29.825  1.00  0.00     0.318 C 
HETATM    6  O3  UNL     1      -1.508  24.009  29.395  1.00  0.00    -0.247 OA
HETATM    7  N6  UNL     1      -1.948  26.278  29.026  1.00  0.00    -0.338 N 
ATOM      8  H6  UNL     1      -1.888  27.233  29.379  1.00  0.00     0.164 HD
HETATM    9  C12 UNL     1      -0.349  24.301  31.849  1.00  0.00     0.130 C 
HETATM   10  C13 UNL     1       0.843  24.710  32.692  1.00  0.00     0.060 C 
ENDROOT
BRANCH   7  11
HETATM   11  C7  UNL     1      -2.547  26.039  27.729  1.00  0.00     0.089 C 
HETATM   12  C8  UNL     1      -3.759  26.938  27.605  1.00  0.00     0.052 C 
HETATM   13  C9  UNL     1      -4.302  27.014  26.217  1.00  0.00     0.234 C 
HETATM   14  N7  UNL     1      -3.482  26.349  25.236  1.00  0.00    -0.075 N 
HETATM   15  C10 UNL     1      -2.105  26.748  25.365  1.00  0.00     0.234 C 
ATOM     16  H72 UNL     1      -3.587  25.336  25.281  1.00  0.00     0.277 HD
ATOM     17  H71 UNL     1      -3.830  26.498  24.289  1.00  0.00     0.277 HD
HETATM   18  C11 UNL     1      -1.498  26.368  26.691  1.00  0.00     0.052 C 
ENDBRANCH   7  11
BRANCH   1  19
HETATM   19  C1  UNL     1       1.758  26.644  33.784  1.00  0.00     0.259 C 
HETATM   20  N1  UNL     1       2.918  25.945  34.178  1.00  0.00    -0.060 NA
HETATM   21  O1  UNL     1       1.808  27.865  33.586  1.00  0.00    -0.274 OA
ENDBRANCH   1  19
BRANCH   1  22
HETATM   22  N2  UNL     1       0.166  25.298  34.933  1.00  0.00    -0.345 N 
HETATM   23  C3  UNL     1      -1.155  25.339  35.453  1.00  0.00     0.209 C 
HETATM   24  N3  UNL     1      -1.378  25.759  36.796  1.00  0.00    -0.062 NA
HETATM   25  N4  UNL     1      -2.168  25.011  34.762  1.00  0.00    -0.241 N 
ATOM     26  H4  UNL     1      -1.996  24.712  33.802  1.00  0.00     0.197 HD
ATOM     27  H2  UNL     1       0.905  24.871  35.491  1.00  0.00     0.163 HD
BRANCH  25  28
HETATM   28  O2  UNL     1      -3.455  25.022  35.179  1.00  0.00    -0.287 OA
ATOM     29  H2  UNL     1      -4.224  24.987  34.622  1.00  0.00     0.244 HD
ENDBRANCH  25  28
ENDBRANCH   1  22
TORSDOF 4
ENDMDL
