MODEL 1
REMARK VINA RESULT: -6.582683557      0.000      0.000
REMARK  7 active torsions:
REMARK  status: ('A' for Active; 'I' for Inactive)
REMARK    1  A    between atoms: C3_3  and  C4_4 
REMARK    2  A    between atoms: C5_5  and  C6_6 
REMARK    3  A    between atoms: C8_10  and  N2_11 
REMARK    4  A    between atoms: N2_11  and  C9_13 
REMARK    5  A    between atoms: C9_13  and  C10_14 
REMARK    6  A    between atoms: C10_14  and  N3_15 
REMARK    7  A    between atoms: C15_25  and  N6_26 
ROOT
HETATM    1  C1  UNL     1      -6.090  28.355  27.254  1.00  0.00     0.113 C 
HETATM    2  C2  UNL     1      -5.008  28.023  28.186  1.00  0.00    -0.097 C 
HETATM    3  C3  UNL     1      -4.114  27.730  28.945  1.00  0.00    -0.015 C 
ENDROOT
BRANCH   3   4
HETATM    4  C4  UNL     1      -3.051  27.364  29.827  1.00  0.00    -0.007 C 
HETATM    5  C5  UNL     1      -2.142  27.050  30.556  1.00  0.00    -0.016 C 
BRANCH   5   6
HETATM    6  C6  UNL     1      -1.073  26.654  31.422  1.00  0.00     0.164 A 
HETATM    7  N1  UNL     1      -0.743  25.380  31.669  1.00  0.00    -0.329 N 
HETATM    8  C7  UNL     1       0.296  25.347  32.517  1.00  0.00     0.124 A 
ATOM      9  H1  UNL     1      -1.209  24.562  31.274  1.00  0.00     0.168 HD
HETATM   10  C8  UNL     1       1.055  24.352  33.120  1.00  0.00     0.147 A 
HETATM   11  C16 UNL     1       0.629  26.649  32.812  1.00  0.00     0.153 A 
HETATM   12  N5  UNL     1       2.062  24.636  33.949  1.00  0.00    -0.175 N 
HETATM   13  C15 UNL     1       2.362  25.914  34.214  1.00  0.00     0.679 A 
ATOM     14  H5  UNL     1       2.601  23.882  34.378  1.00  0.00     0.186 HD
HETATM   15  N7  UNL     1       1.644  26.897  33.646  1.00  0.00    -0.174 N 
ATOM     16  H7  UNL     1       1.882  27.866  33.857  1.00  0.00     0.186 HD
HETATM   17  N8  UNL     1      -0.222  27.412  32.130  1.00  0.00    -0.319 N 
ATOM     18  H8  UNL     1      -0.226  28.432  32.144  1.00  0.00     0.169 HD
BRANCH  10  19
HETATM   19  N2  UNL     1       0.771  23.138  32.869  1.00  0.00    -0.372 N 
ATOM     20  H2  UNL     1       1.327  22.619  32.188  1.00  0.00     0.161 HD
BRANCH  19  21
HETATM   21  C9  UNL     1      -0.350  22.476  33.552  1.00  0.00     0.151 C 
BRANCH  21  22
HETATM   22  C10 UNL     1       0.176  21.128  33.976  1.00  0.00     0.292 C 
BRANCH  22  23
HETATM   23  N3  UNL     1      -0.076  20.833  35.351  1.00  0.00     0.093 N 
HETATM   24  C11 UNL     1       0.220  22.026  36.133  1.00  0.00     0.300 C 
HETATM   25  C12 UNL     1       1.587  22.001  36.720  1.00  0.00     0.262 C 
HETATM   26  N4  UNL     1       2.571  21.267  35.993  1.00  0.00    -0.072 N 
HETATM   27  C13 UNL     1       2.176  19.920  35.627  1.00  0.00     0.262 C 
ATOM     28  H42 UNL     1       2.860  21.788  35.165  1.00  0.00     0.277 HD
ATOM     29  H41 UNL     1       3.452  21.250  36.507  1.00  0.00     0.277 HD
HETATM   30  C14 UNL     1       0.690  19.709  35.805  1.00  0.00     0.300 C 
ENDBRANCH  22  23
ENDBRANCH  21  22
ENDBRANCH  19  21
ENDBRANCH  10  19
BRANCH  13  31
HETATM   31  N6  UNL     1       3.329  26.219  35.011  1.00  0.00    -0.234 N 
ATOM     32  H62 UNL     1       3.229  26.036  36.010  1.00  0.00     0.174 HD
ATOM     33  H61 UNL     1       4.189  26.638  34.659  1.00  0.00     0.174 HD
ENDBRANCH  13  31
ENDBRANCH   5   6
ENDBRANCH   3   4
TORSDOF 7
ENDMDL
MODEL 2
REMARK VINA RESULT: -6.556622502      1.568      2.519
REMARK  7 active torsions:
REMARK  status: ('A' for Active; 'I' for Inactive)
REMARK    1  A    between atoms: C3_3  and  C4_4 
REMARK    2  A    between atoms: C5_5  and  C6_6 
REMARK    3  A    between atoms: C8_10  and  N2_11 
REMARK    4  A    between atoms: N2_11  and  C9_13 
REMARK    5  A    between atoms: C9_13  and  C10_14 
REMARK    6  A    between atoms: C10_14  and  N3_15 
REMARK    7  A    between atoms: C15_25  and  N6_26 
ROOT
HETATM    1  C1  UNL     1      -6.080  28.396  26.954  1.00  0.00     0.113 C 
HETATM    2  C2  UNL     1      -5.045  28.009  27.918  1.00  0.00    -0.097 C 
HETATM    3  C3  UNL     1      -4.180  27.681  28.697  1.00  0.00    -0.015 C 
ENDROOT
BRANCH   3   4
HETATM    4  C4  UNL     1      -3.143  27.290  29.597  1.00  0.00    -0.007 C 
HETATM    5  C5  UNL     1      -2.255  26.975  30.351  1.00  0.00    -0.016 C 
BRANCH   5   6
HETATM    6  C6  UNL     1      -1.193  26.585  31.228  1.00  0.00     0.164 A 
HETATM    7  N1  UNL     1      -0.800  25.318  31.410  1.00  0.00    -0.329 N 
HETATM    8  C7  UNL     1       0.214  25.290  32.290  1.00  0.00     0.124 A 
ATOM      9  H1  UNL     1      -1.207  24.502  30.953  1.00  0.00     0.168 HD
HETATM   10  C8  UNL     1       1.008  24.303  32.858  1.00  0.00     0.147 A 
HETATM   11  C16 UNL     1       0.464  26.587  32.672  1.00  0.00     0.153 A 
HETATM   12  N5  UNL     1       1.973  24.589  33.736  1.00  0.00    -0.175 N 
HETATM   13  C15 UNL     1       2.192  25.863  34.086  1.00  0.00     0.679 A 
ATOM     14  H5  UNL     1       2.539  23.841  34.137  1.00  0.00     0.186 HD
HETATM   15  N7  UNL     1       1.438  26.838  33.552  1.00  0.00    -0.174 N 
ATOM     16  H7  UNL     1       1.615  27.804  33.829  1.00  0.00     0.186 HD
HETATM   17  N8  UNL     1      -0.407  27.343  32.008  1.00  0.00    -0.319 N 
ATOM     18  H8  UNL     1      -0.468  28.359  32.082  1.00  0.00     0.169 HD
BRANCH  10  19
HETATM   19  N2  UNL     1       0.801  23.092  32.526  1.00  0.00    -0.372 N 
ATOM     20  H2  UNL     1       0.405  22.879  31.611  1.00  0.00     0.161 HD
BRANCH  19  21
HETATM   21  C9  UNL     1       1.129  21.997  33.452  1.00  0.00     0.151 C 
BRANCH  21  22
HETATM   22  C10 UNL     1       0.365  20.800  32.946  1.00  0.00     0.292 C 
BRANCH  22  23
HETATM   23  N3  UNL     1      -0.588  20.303  33.887  1.00  0.00     0.093 N 
HETATM   24  C11 UNL     1      -0.728  18.868  33.676  1.00  0.00     0.300 C 
HETATM   25  C12 UNL     1      -1.893  18.527  32.814  1.00  0.00     0.262 C 
HETATM   26  N4  UNL     1      -2.273  19.509  31.851  1.00  0.00    -0.072 N 
HETATM   27  C13 UNL     1      -2.440  20.847  32.384  1.00  0.00     0.262 C 
ATOM     28  H42 UNL     1      -1.612  19.517  31.075  1.00  0.00     0.277 HD
ATOM     29  H41 UNL     1      -3.118  19.216  31.361  1.00  0.00     0.277 HD
HETATM   30  C14 UNL     1      -1.851  20.971  33.771  1.00  0.00     0.300 C 
ENDBRANCH  22  23
ENDBRANCH  21  22
ENDBRANCH  19  21
ENDBRANCH  10  19
BRANCH  13  31
HETATM   31  N6  UNL     1       3.116  26.171  34.931  1.00  0.00    -0.234 N 
ATOM     32  H62 UNL     1       3.734  25.440  35.283  1.00  0.00     0.174 HD
ATOM     33  H61 UNL     1       3.239  27.132  35.250  1.00  0.00     0.174 HD
ENDBRANCH  13  31
ENDBRANCH   5   6
ENDBRANCH   3   4
TORSDOF 7
ENDMDL
MODEL 3
REMARK VINA RESULT: -6.507799417      0.884      1.522
REMARK  7 active torsions:
REMARK  status: ('A' for Active; 'I' for Inactive)
REMARK    1  A    between atoms: C3_3  and  C4_4 
REMARK    2  A    between atoms: C5_5  and  C6_6 
REMARK    3  A    between atoms: C8_10  and  N2_11 
REMARK    4  A    between atoms: N2_11  and  C9_13 
REMARK    5  A    between atoms: C9_13  and  C10_14 
REMARK    6  A    between atoms: C10_14  and  N3_15 
REMARK    7  A    between atoms: C15_25  and  N6_26 
ROOT
HETATM    1  C1  UNL     1      -6.107  28.368  27.291  1.00  0.00     0.113 C 
HETATM    2  C2  UNL     1      -4.982  28.043  28.173  1.00  0.00    -0.097 C 
HETATM    3  C3  UNL     1      -4.067  27.761  28.911  1.00  0.00    -0.015 C 
ENDROOT
BRANCH   3   4
HETATM    4  C4  UNL     1      -2.999  27.407  29.790  1.00  0.00    -0.007 C 
HETATM    5  C5  UNL     1      -2.092  27.092  30.522  1.00  0.00    -0.016 C 
BRANCH   5   6
HETATM    6  C6  UNL     1      -1.032  26.705  31.403  1.00  0.00     0.164 A 
HETATM    7  N1  UNL     1      -0.687  25.433  31.644  1.00  0.00    -0.329 N 
HETATM    8  C7  UNL     1       0.338  25.409  32.510  1.00  0.00     0.124 A 
ATOM      9  H1  UNL     1      -1.133  24.613  31.234  1.00  0.00     0.168 HD
HETATM   10  C8  UNL     1       1.102  24.421  33.117  1.00  0.00     0.147 A 
HETATM   11  C16 UNL     1       0.646  26.713  32.822  1.00  0.00     0.153 A 
HETATM   12  N5  UNL     1       2.091  24.712  33.966  1.00  0.00    -0.175 N 
HETATM   13  C15 UNL     1       2.366  25.992  34.248  1.00  0.00     0.679 A 
ATOM     14  H5  UNL     1       2.633  23.964  34.397  1.00  0.00     0.186 HD
HETATM   15  N7  UNL     1       1.642  26.969  33.676  1.00  0.00    -0.174 N 
ATOM     16  H7  UNL     1       1.861  27.940  33.900  1.00  0.00     0.186 HD
HETATM   17  N8  UNL     1      -0.205  27.469  32.133  1.00  0.00    -0.319 N 
ATOM     18  H8  UNL     1      -0.225  28.489  32.156  1.00  0.00     0.169 HD
BRANCH  10  19
HETATM   19  N2  UNL     1       0.843  23.204  32.850  1.00  0.00    -0.372 N 
ATOM     20  H2  UNL     1       1.422  22.698  32.180  1.00  0.00     0.161 HD
BRANCH  19  21
HETATM   21  C9  UNL     1      -0.287  22.522  33.499  1.00  0.00     0.151 C 
BRANCH  21  22
HETATM   22  C10 UNL     1       0.324  21.691  34.598  1.00  0.00     0.292 C 
BRANCH  22  23
HETATM   23  N3  UNL     1       1.279  20.742  34.121  1.00  0.00     0.093 N 
HETATM   24  C11 UNL     1       0.575  19.753  33.316  1.00  0.00     0.300 C 
HETATM   25  C12 UNL     1       0.233  18.526  34.086  1.00  0.00     0.262 C 
HETATM   26  N4  UNL     1       0.026  18.700  35.488  1.00  0.00    -0.072 N 
HETATM   27  C13 UNL     1       1.080  19.423  36.171  1.00  0.00     0.262 C 
ATOM     28  H42 UNL     1      -0.876  19.143  35.659  1.00  0.00     0.277 HD
ATOM     29  H41 UNL     1      -0.133  17.798  35.936  1.00  0.00     0.277 HD
HETATM   30  C14 UNL     1       1.999  20.122  35.195  1.00  0.00     0.300 C 
ENDBRANCH  22  23
ENDBRANCH  21  22
ENDBRANCH  19  21
ENDBRANCH  10  19
BRANCH  13  31
HETATM   31  N6  UNL     1       3.314  26.306  35.064  1.00  0.00    -0.234 N 
ATOM     32  H62 UNL     1       3.425  25.774  35.927  1.00  0.00     0.174 HD
ATOM     33  H61 UNL     1       3.954  27.072  34.858  1.00  0.00     0.174 HD
ENDBRANCH  13  31
ENDBRANCH   5   6
ENDBRANCH   3   4
TORSDOF 7
ENDMDL
MODEL 4
REMARK VINA RESULT: -6.441516470      1.776      2.866
REMARK  7 active torsions:
REMARK  status: ('A' for Active; 'I' for Inactive)
REMARK    1  A    between atoms: C3_3  and  C4_4 
REMARK    2  A    between atoms: C5_5  and  C6_6 
REMARK    3  A    between atoms: C8_10  and  N2_11 
REMARK    4  A    between atoms: N2_11  and  C9_13 
REMARK    5  A    between atoms: C9_13  and  C10_14 
REMARK    6  A    between atoms: C10_14  and  N3_15 
REMARK    7  A    between atoms: C15_25  and  N6_26 
ROOT
HETATM    1  C1  UNL     1      -6.088  28.349  27.267  1.00  0.00     0.113 C 
HETATM    2  C2  UNL     1      -4.979  27.994  28.158  1.00  0.00    -0.097 C 
HETATM    3  C3  UNL     1      -4.078  27.689  28.905  1.00  0.00    -0.015 C 
ENDROOT
BRANCH   3   4
HETATM    4  C4  UNL     1      -3.028  27.310  29.795  1.00  0.00    -0.007 C 
HETATM    5  C5  UNL     1      -2.127  26.996  30.535  1.00  0.00    -0.016 C 
BRANCH   5   6
HETATM    6  C6  UNL     1      -1.058  26.602  31.401  1.00  0.00     0.164 A 
HETATM    7  N1  UNL     1      -0.709  25.328  31.626  1.00  0.00    -0.329 N 
HETATM    8  C7  UNL     1       0.325  25.297  32.481  1.00  0.00     0.124 A 
ATOM      9  H1  UNL     1      -1.158  24.511  31.213  1.00  0.00     0.168 HD
HETATM   10  C8  UNL     1       1.096  24.304  33.071  1.00  0.00     0.147 A 
HETATM   11  C16 UNL     1       0.635  26.599  32.802  1.00  0.00     0.153 A 
HETATM   12  N5  UNL     1       2.093  24.588  33.912  1.00  0.00    -0.175 N 
HETATM   13  C15 UNL     1       2.370  25.866  34.203  1.00  0.00     0.679 A 
ATOM     14  H5  UNL     1       2.641  23.836  34.330  1.00  0.00     0.186 HD
HETATM   15  N7  UNL     1       1.640  26.847  33.648  1.00  0.00    -0.174 N 
ATOM     16  H7  UNL     1       1.860  27.816  33.879  1.00  0.00     0.186 HD
HETATM   17  N8  UNL     1      -0.224  27.360  32.129  1.00  0.00    -0.319 N 
ATOM     18  H8  UNL     1      -0.245  28.380  32.162  1.00  0.00     0.169 HD
BRANCH  10  19
HETATM   19  N2  UNL     1       0.835  23.090  32.795  1.00  0.00    -0.372 N 
ATOM     20  H2  UNL     1       1.005  22.736  31.853  1.00  0.00     0.161 HD
BRANCH  19  21
HETATM   21  C9  UNL     1       0.289  22.191  33.823  1.00  0.00     0.151 C 
BRANCH  21  22
HETATM   22  C10 UNL     1      -1.127  21.901  33.394  1.00  0.00     0.292 C 
BRANCH  22  23
HETATM   23  N3  UNL     1      -1.204  21.085  32.224  1.00  0.00     0.093 N 
HETATM   24  C11 UNL     1      -2.187  21.672  31.324  1.00  0.00     0.300 C 
HETATM   25  C12 UNL     1      -3.529  21.041  31.451  1.00  0.00     0.262 C 
HETATM   26  N4  UNL     1      -3.851  20.500  32.732  1.00  0.00    -0.072 N 
HETATM   27  C13 UNL     1      -2.844  19.616  33.287  1.00  0.00     0.262 C 
ATOM     28  H42 UNL     1      -4.064  21.250  33.389  1.00  0.00     0.277 HD
ATOM     29  H41 UNL     1      -4.756  20.030  32.700  1.00  0.00     0.277 HD
HETATM   30  C14 UNL     1      -1.534  19.726  32.541  1.00  0.00     0.300 C 
ENDBRANCH  22  23
ENDBRANCH  21  22
ENDBRANCH  19  21
ENDBRANCH  10  19
BRANCH  13  31
HETATM   31  N6  UNL     1       3.326  26.172  35.012  1.00  0.00    -0.234 N 
ATOM     32  H62 UNL     1       3.117  26.316  36.000  1.00  0.00     0.174 HD
ATOM     33  H61 UNL     1       4.286  26.271  34.680  1.00  0.00     0.174 HD
ENDBRANCH  13  31
ENDBRANCH   5   6
ENDBRANCH   3   4
TORSDOF 7
ENDMDL
MODEL 5
REMARK VINA RESULT: -6.434763555      1.392      1.612
REMARK  7 active torsions:
REMARK  status: ('A' for Active; 'I' for Inactive)
REMARK    1  A    between atoms: C3_3  and  C4_4 
REMARK    2  A    between atoms: C5_5  and  C6_6 
REMARK    3  A    between atoms: C8_10  and  N2_11 
REMARK    4  A    between atoms: N2_11  and  C9_13 
REMARK    5  A    between atoms: C9_13  and  C10_14 
REMARK    6  A    between atoms: C10_14  and  N3_15 
REMARK    7  A    between atoms: C15_25  and  N6_26 
ROOT
HETATM    1  C1  UNL     1      -6.089  28.420  27.161  1.00  0.00     0.113 C 
HETATM    2  C2  UNL     1      -5.026  28.070  28.109  1.00  0.00    -0.097 C 
HETATM    3  C3  UNL     1      -4.144  27.764  28.878  1.00  0.00    -0.015 C 
ENDROOT
BRANCH   3   4
HETATM    4  C4  UNL     1      -3.093  27.387  29.768  1.00  0.00    -0.007 C 
HETATM    5  C5  UNL     1      -2.191  27.076  30.508  1.00  0.00    -0.016 C 
BRANCH   5   6
HETATM    6  C6  UNL     1      -1.121  26.685  31.373  1.00  0.00     0.164 A 
HETATM    7  N1  UNL     1      -0.762  25.413  31.593  1.00  0.00    -0.329 N 
HETATM    8  C7  UNL     1       0.271  25.386  32.449  1.00  0.00     0.124 A 
ATOM      9  H1  UNL     1      -1.205  24.595  31.175  1.00  0.00     0.168 HD
HETATM   10  C8  UNL     1       1.048  24.395  33.035  1.00  0.00     0.147 A 
HETATM   11  C16 UNL     1       0.570  26.688  32.777  1.00  0.00     0.153 A 
HETATM   12  N5  UNL     1       2.042  24.683  33.879  1.00  0.00    -0.175 N 
HETATM   13  C15 UNL     1       2.309  25.961  34.177  1.00  0.00     0.679 A 
ATOM     14  H5  UNL     1       2.595  23.932  34.294  1.00  0.00     0.186 HD
HETATM   15  N7  UNL     1       1.572  26.940  33.625  1.00  0.00    -0.174 N 
ATOM     16  H7  UNL     1       1.785  27.909  33.862  1.00  0.00     0.186 HD
HETATM   17  N8  UNL     1      -0.293  27.446  32.107  1.00  0.00    -0.319 N 
ATOM     18  H8  UNL     1      -0.322  28.465  32.145  1.00  0.00     0.169 HD
BRANCH  10  19
HETATM   19  N2  UNL     1       0.796  23.180  32.753  1.00  0.00    -0.372 N 
ATOM     20  H2  UNL     1       0.200  22.959  31.955  1.00  0.00     0.161 HD
BRANCH  19  21
HETATM   21  C9  UNL     1       1.359  22.093  33.567  1.00  0.00     0.151 C 
BRANCH  21  22
HETATM   22  C10 UNL     1       0.702  20.832  33.064  1.00  0.00     0.292 C 
BRANCH  22  23
HETATM   23  N3  UNL     1      -0.656  20.698  33.488  1.00  0.00     0.093 N 
HETATM   24  C11 UNL     1      -0.705  20.909  34.929  1.00  0.00     0.300 C 
HETATM   25  C12 UNL     1      -0.684  19.634  35.696  1.00  0.00     0.262 C 
HETATM   26  N4  UNL     1      -0.008  18.539  35.079  1.00  0.00    -0.072 N 
HETATM   27  C13 UNL     1      -0.406  18.275  33.709  1.00  0.00     0.262 C 
ATOM     28  H42 UNL     1       1.001  18.670  35.135  1.00  0.00     0.277 HD
ATOM     29  H41 UNL     1      -0.109  17.696  35.645  1.00  0.00     0.277 HD
HETATM   30  C14 UNL     1      -1.203  19.422  33.131  1.00  0.00     0.300 C 
ENDBRANCH  22  23
ENDBRANCH  21  22
ENDBRANCH  19  21
ENDBRANCH  10  19
BRANCH  13  31
HETATM   31  N6  UNL     1       3.262  26.270  34.989  1.00  0.00    -0.234 N 
ATOM     32  H62 UNL     1       3.356  25.757  35.866  1.00  0.00     0.174 HD
ATOM     33  H61 UNL     1       3.921  27.016  34.767  1.00  0.00     0.174 HD
ENDBRANCH  13  31
ENDBRANCH   5   6
ENDBRANCH   3   4
TORSDOF 7
ENDMDL
