MODEL 1
REMARK VINA RESULT: -9.205756747      0.000      0.000
REMARK  5 active torsions:
REMARK  status: ('A' for Active; 'I' for Inactive)
REMARK    1  A    between atoms: C3_3  and  C4_4 
REMARK    2  A    between atoms: C4_4  and  O1_5 
REMARK    3  A    between atoms: C9_16  and  C10_17 
REMARK    4  A    between atoms: C10_17  and  C11_18 
REMARK    5  A    between atoms: C11_18  and  C12_19 
ROOT
HETATM    1  C1  UNL     1      -1.075  27.502  31.814  1.00  0.00     0.027 C 
HETATM    2  C2  UNL     1      -0.736  26.269  31.535  1.00  0.00    -0.002 C 
HETATM    3  C3  UNL     1      -0.006  25.484  32.548  1.00  0.00     0.009 C 
HETATM    4  C5  UNL     1       0.375  24.235  32.439  1.00  0.00     0.019 C 
HETATM    5  C6  UNL     1       1.081  23.703  33.594  1.00  0.00     0.055 C 
HETATM    6  C7  UNL     1       0.166  23.315  31.286  1.00  0.00     0.253 C 
HETATM    7  O2  UNL     1       0.399  22.113  31.571  1.00  0.00    -0.268 OA
HETATM    8  N1  UNL     1      -0.246  23.584  29.948  1.00  0.00    -0.307 N 
ATOM      9  H1  UNL     1      -0.003  22.886  29.245  1.00  0.00     0.170 HD
HETATM   10  C8  UNL     1      -0.962  24.731  29.492  1.00  0.00     0.137 A 
HETATM   11  N2  UNL     1      -1.562  24.873  28.296  1.00  0.00    -0.330 N 
ATOM     12  H2  UNL     1      -1.570  24.163  27.563  1.00  0.00     0.168 HD
HETATM   13  C9  UNL     1      -2.144  26.071  28.198  1.00  0.00     0.086 A 
HETATM   14  N5  UNL     1      -1.908  26.704  29.359  1.00  0.00    -0.342 N 
ATOM     15  H5  UNL     1      -2.227  27.645  29.593  1.00  0.00     0.167 HD
HETATM   16  C15 UNL     1      -1.179  25.895  30.176  1.00  0.00     0.088 A 
ENDROOT
BRANCH  13  17
HETATM   17  C10 UNL     1      -2.922  26.699  27.090  1.00  0.00     0.106 C 
BRANCH  17  18
HETATM   18  C11 UNL     1      -2.520  26.238  25.775  1.00  0.00     0.016 C 
BRANCH  18  19
HETATM   19  C12 UNL     1      -1.717  26.905  24.986  1.00  0.00     0.101 A 
HETATM   20  N3  UNL     1      -0.506  27.533  25.483  1.00  0.00    -0.304 N 
HETATM   21  C13 UNL     1       0.168  28.175  24.420  1.00  0.00     0.327 A 
ATOM     22  H3  UNL     1      -0.190  27.513  26.453  1.00  0.00     0.171 HD
HETATM   23  O3  UNL     1       1.255  28.821  24.492  1.00  0.00    -0.247 OA
HETATM   24  N4  UNL     1      -0.552  28.000  23.216  1.00  0.00    -0.274 N 
HETATM   25  C14 UNL     1      -1.712  27.215  23.580  1.00  0.00     0.276 A 
ATOM     26  H4  UNL     1      -0.307  28.351  22.291  1.00  0.00     0.173 HD
HETATM   27  O4  UNL     1      -2.592  26.859  22.757  1.00  0.00    -0.266 OA
ENDBRANCH  18  19
ENDBRANCH  17  18
ENDBRANCH  13  17
BRANCH   3  28
HETATM   28  C4  UNL     1       0.283  26.215  33.725  1.00  0.00     0.144 C 
BRANCH  28  29
HETATM   29  O1  UNL     1       1.363  26.945  33.971  1.00  0.00    -0.372 OA
ATOM     30  H1  UNL     1       1.445  27.889  33.908  1.00  0.00     0.216 HD
ENDBRANCH  28  29
ENDBRANCH   3  28
TORSDOF 5
ENDMDL
MODEL 2
REMARK VINA RESULT: -8.621666486      1.036      2.530
REMARK  5 active torsions:
REMARK  status: ('A' for Active; 'I' for Inactive)
REMARK    1  A    between atoms: C3_3  and  C4_4 
REMARK    2  A    between atoms: C4_4  and  O1_5 
REMARK    3  A    between atoms: C9_16  and  C10_17 
REMARK    4  A    between atoms: C10_17  and  C11_18 
REMARK    5  A    between atoms: C11_18  and  C12_19 
ROOT
HETATM    1  C1  UNL     1      -0.476  23.460  30.319  1.00  0.00     0.027 C 
HETATM    2  C2  UNL     1      -0.520  24.593  30.972  1.00  0.00    -0.002 C 
HETATM    3  C3  UNL     1       0.149  24.686  32.284  1.00  0.00     0.009 C 
HETATM    4  C5  UNL     1       0.227  25.749  33.046  1.00  0.00     0.019 C 
HETATM    5  C6  UNL     1       0.947  25.561  34.294  1.00  0.00     0.055 C 
HETATM    6  C7  UNL     1      -0.330  27.105  32.777  1.00  0.00     0.253 C 
HETATM    7  O2  UNL     1       0.129  27.983  33.552  1.00  0.00    -0.268 OA
HETATM    8  N1  UNL     1      -1.274  27.544  31.804  1.00  0.00    -0.307 N 
ATOM      9  H1  UNL     1      -1.764  28.416  32.002  1.00  0.00     0.170 HD
HETATM   10  C8  UNL     1      -1.604  26.887  30.581  1.00  0.00     0.137 A 
HETATM   11  N2  UNL     1      -2.300  27.412  29.556  1.00  0.00    -0.330 N 
ATOM     12  H2  UNL     1      -2.681  28.358  29.539  1.00  0.00     0.168 HD
HETATM   13  C9  UNL     1      -2.426  26.525  28.566  1.00  0.00     0.086 A 
HETATM   14  N5  UNL     1      -1.794  25.410  28.971  1.00  0.00    -0.342 N 
ATOM     15  H5  UNL     1      -1.714  24.548  28.432  1.00  0.00     0.167 HD
HETATM   16  C15 UNL     1      -1.278  25.610  30.215  1.00  0.00     0.088 A 
ENDROOT
BRANCH  13  17
HETATM   17  C10 UNL     1      -3.099  26.622  27.238  1.00  0.00     0.106 C 
BRANCH  17  18
HETATM   18  C11 UNL     1      -2.308  26.074  26.152  1.00  0.00     0.016 C 
BRANCH  18  19
HETATM   19  C12 UNL     1      -1.582  26.803  25.343  1.00  0.00     0.101 A 
HETATM   20  N3  UNL     1      -0.353  27.438  25.783  1.00  0.00    -0.304 N 
HETATM   21  C13 UNL     1       0.224  28.152  24.708  1.00  0.00     0.327 A 
ATOM     22  H3  UNL     1       0.035  27.377  26.724  1.00  0.00     0.171 HD
HETATM   23  O3  UNL     1       1.297  28.824  24.734  1.00  0.00    -0.247 OA
HETATM   24  N4  UNL     1      -0.580  28.019  23.553  1.00  0.00    -0.274 N 
HETATM   25  C14 UNL     1      -1.691  27.184  23.959  1.00  0.00     0.276 A 
ATOM     26  H4  UNL     1      -0.414  28.423  22.632  1.00  0.00     0.173 HD
HETATM   27  O4  UNL     1      -2.621  26.846  23.186  1.00  0.00    -0.266 OA
ENDBRANCH  18  19
ENDBRANCH  17  18
ENDBRANCH  13  17
BRANCH   3  28
HETATM   28  C4  UNL     1       0.737  23.467  32.702  1.00  0.00     0.144 C 
BRANCH  28  29
HETATM   29  O1  UNL     1       0.164  22.500  33.406  1.00  0.00    -0.372 OA
ATOM     30  H1  UNL     1      -0.503  21.892  33.110  1.00  0.00     0.216 HD
ENDBRANCH  28  29
ENDBRANCH   3  28
TORSDOF 5
ENDMDL
MODEL 3
REMARK VINA RESULT: -8.534675301      1.409      2.827
REMARK  5 active torsions:
REMARK  status: ('A' for Active; 'I' for Inactive)
REMARK    1  A    between atoms: C3_3  and  C4_4 
REMARK    2  A    between atoms: C4_4  and  O1_5 
REMARK    3  A    between atoms: C9_16  and  C10_17 
REMARK    4  A    between atoms: C10_17  and  C11_18 
REMARK    5  A    between atoms: C11_18  and  C12_19 
ROOT
HETATM    1  C1  UNL     1      -0.199  22.690  31.122  1.00  0.00     0.027 C 
HETATM    2  C2  UNL     1       0.074  23.786  31.782  1.00  0.00    -0.002 C 
HETATM    3  C3  UNL     1       0.889  23.695  33.008  1.00  0.00     0.009 C 
HETATM    4  C5  UNL     1       1.277  24.694  33.761  1.00  0.00     0.019 C 
HETATM    5  C6  UNL     1       2.076  24.321  34.917  1.00  0.00     0.055 C 
HETATM    6  C7  UNL     1       0.998  26.145  33.566  1.00  0.00     0.253 C 
HETATM    7  O2  UNL     1       1.717  26.882  34.288  1.00  0.00    -0.268 OA
HETATM    8  N1  UNL     1       0.066  26.803  32.712  1.00  0.00    -0.307 N 
ATOM      9  H1  UNL     1      -0.200  27.753  32.970  1.00  0.00     0.170 HD
HETATM   10  C8  UNL     1      -0.531  26.269  31.532  1.00  0.00     0.137 A 
HETATM   11  N2  UNL     1      -1.210  26.960  30.598  1.00  0.00    -0.330 N 
ATOM     12  H2  UNL     1      -1.378  27.966  30.629  1.00  0.00     0.168 HD
HETATM   13  C9  UNL     1      -1.632  26.150  29.623  1.00  0.00     0.086 A 
HETATM   14  N5  UNL     1      -1.212  24.915  29.947  1.00  0.00    -0.342 N 
ATOM     15  H5  UNL     1      -1.379  24.072  29.396  1.00  0.00     0.167 HD
HETATM   16  C15 UNL     1      -0.529  24.963  31.123  1.00  0.00     0.088 A 
ENDROOT
BRANCH  13  17
HETATM   17  C10 UNL     1      -2.414  26.428  28.383  1.00  0.00     0.106 C 
BRANCH  17  18
HETATM   18  C11 UNL     1      -1.811  25.869  27.188  1.00  0.00     0.016 C 
BRANCH  18  19
HETATM   19  C12 UNL     1      -1.559  26.564  26.108  1.00  0.00     0.101 A 
HETATM   20  N3  UNL     1      -0.300  27.261  25.925  1.00  0.00    -0.304 N 
HETATM   21  C13 UNL     1      -0.298  27.921  24.675  1.00  0.00     0.327 A 
ATOM     22  H3  UNL     1       0.468  27.273  26.596  1.00  0.00     0.171 HD
HETATM   23  O3  UNL     1       0.637  28.623  24.190  1.00  0.00    -0.247 OA
HETATM   24  N4  UNL     1      -1.522  27.690  24.006  1.00  0.00    -0.274 N 
HETATM   25  C14 UNL     1      -2.290  26.851  24.902  1.00  0.00     0.276 A 
ATOM     26  H4  UNL     1      -1.804  28.038  23.090  1.00  0.00     0.173 HD
HETATM   27  O4  UNL     1      -3.447  26.437  24.640  1.00  0.00    -0.266 OA
ENDBRANCH  18  19
ENDBRANCH  17  18
ENDBRANCH  13  17
BRANCH   3  28
HETATM   28  C4  UNL     1       1.246  22.368  33.348  1.00  0.00     0.144 C 
BRANCH  28  29
HETATM   29  O1  UNL     1       0.555  21.518  34.096  1.00  0.00    -0.372 OA
ATOM     30  H1  UNL     1       0.047  20.773  33.799  1.00  0.00     0.216 HD
ENDBRANCH  28  29
ENDBRANCH   3  28
TORSDOF 5
ENDMDL
MODEL 4
REMARK VINA RESULT: -8.295502622      2.985      4.126
REMARK  5 active torsions:
REMARK  status: ('A' for Active; 'I' for Inactive)
REMARK    1  A    between atoms: C3_3  and  C4_4 
REMARK    2  A    between atoms: C4_4  and  O1_5 
REMARK    3  A    between atoms: C9_16  and  C10_17 
REMARK    4  A    between atoms: C10_17  and  C11_18 
REMARK    5  A    between atoms: C11_18  and  C12_19 
ROOT
HETATM    1  C1  UNL     1      -1.752  26.849  30.783  1.00  0.00     0.027 C 
HETATM    2  C2  UNL     1      -2.999  27.195  30.978  1.00  0.00    -0.002 C 
HETATM    3  C3  UNL     1      -3.455  27.469  32.354  1.00  0.00     0.009 C 
HETATM    4  C5  UNL     1      -4.653  27.855  32.715  1.00  0.00     0.019 C 
HETATM    5  C6  UNL     1      -4.833  28.053  34.144  1.00  0.00     0.055 C 
HETATM    6  C7  UNL     1      -5.831  28.112  31.838  1.00  0.00     0.253 C 
HETATM    7  O2  UNL     1      -6.756  28.725  32.430  1.00  0.00    -0.268 OA
HETATM    8  N1  UNL     1      -6.060  27.778  30.472  1.00  0.00    -0.307 N 
ATOM      9  H1  UNL     1      -7.032  27.739  30.167  1.00  0.00     0.170 HD
HETATM   10  C8  UNL     1      -5.068  27.493  29.487  1.00  0.00     0.137 A 
HETATM   11  N2  UNL     1      -5.260  27.421  28.158  1.00  0.00    -0.330 N 
ATOM     12  H2  UNL     1      -6.158  27.564  27.693  1.00  0.00     0.168 HD
HETATM   13  C9  UNL     1      -4.117  27.138  27.528  1.00  0.00     0.086 A 
HETATM   14  N5  UNL     1      -3.176  27.027  28.481  1.00  0.00    -0.342 N 
ATOM     15  H5  UNL     1      -2.192  26.814  28.316  1.00  0.00     0.167 HD
HETATM   16  C15 UNL     1      -3.740  27.242  29.701  1.00  0.00     0.088 A 
ENDROOT
BRANCH  13  17
HETATM   17  C10 UNL     1      -3.811  26.956  26.079  1.00  0.00     0.106 C 
BRANCH  17  18
HETATM   18  C11 UNL     1      -2.455  26.505  25.832  1.00  0.00     0.016 C 
BRANCH  18  19
HETATM   19  C12 UNL     1      -1.642  27.080  24.982  1.00  0.00     0.101 A 
HETATM   20  N3  UNL     1      -0.400  27.696  25.411  1.00  0.00    -0.304 N 
HETATM   21  C13 UNL     1       0.277  28.231  24.292  1.00  0.00     0.327 A 
ATOM     22  H3  UNL     1      -0.067  27.737  26.374  1.00  0.00     0.171 HD
HETATM   23  O3  UNL     1       1.388  28.839  24.297  1.00  0.00    -0.247 OA
HETATM   24  N4  UNL     1      -0.472  27.994  23.116  1.00  0.00    -0.274 N 
HETATM   25  C14 UNL     1      -1.653  27.283  23.557  1.00  0.00     0.276 A 
ATOM     26  H4  UNL     1      -0.232  28.265  22.163  1.00  0.00     0.173 HD
HETATM   27  O4  UNL     1      -2.561  26.900  22.778  1.00  0.00    -0.266 OA
ENDBRANCH  18  19
ENDBRANCH  17  18
ENDBRANCH  13  17
BRANCH   3  28
HETATM   28  C4  UNL     1      -2.449  27.268  33.330  1.00  0.00     0.144 C 
BRANCH  28  29
HETATM   29  O1  UNL     1      -2.155  26.137  33.958  1.00  0.00    -0.372 OA
ATOM     30  H1  UNL     1      -1.429  25.980  34.550  1.00  0.00     0.216 HD
ENDBRANCH  28  29
ENDBRANCH   3  28
TORSDOF 5
ENDMDL
MODEL 5
REMARK VINA RESULT: -8.131179651      2.373      2.958
REMARK  5 active torsions:
REMARK  status: ('A' for Active; 'I' for Inactive)
REMARK    1  A    between atoms: C3_3  and  C4_4 
REMARK    2  A    between atoms: C4_4  and  O1_5 
REMARK    3  A    between atoms: C9_16  and  C10_17 
REMARK    4  A    between atoms: C10_17  and  C11_18 
REMARK    5  A    between atoms: C11_18  and  C12_19 
ROOT
HETATM    1  C1  UNL     1      -5.294  27.631  31.385  1.00  0.00     0.027 C 
HETATM    2  C2  UNL     1      -4.064  27.229  31.578  1.00  0.00    -0.002 C 
HETATM    3  C3  UNL     1      -3.578  27.063  32.961  1.00  0.00     0.009 C 
HETATM    4  C5  UNL     1      -2.393  26.639  33.325  1.00  0.00     0.019 C 
HETATM    5  C6  UNL     1      -2.176  26.570  34.761  1.00  0.00     0.055 C 
HETATM    6  C7  UNL     1      -1.263  26.224  32.445  1.00  0.00     0.253 C 
HETATM    7  O2  UNL     1      -0.357  25.615  33.068  1.00  0.00    -0.268 OA
HETATM    8  N1  UNL     1      -1.062  26.408  31.046  1.00  0.00    -0.307 N 
ATOM      9  H1  UNL     1      -0.100  26.357  30.711  1.00  0.00     0.170 HD
HETATM   10  C8  UNL     1      -2.069  26.658  30.066  1.00  0.00     0.137 A 
HETATM   11  N2  UNL     1      -1.918  26.587  28.732  1.00  0.00    -0.330 N 
ATOM     12  H2  UNL     1      -1.047  26.344  28.259  1.00  0.00     0.168 HD
HETATM   13  C9  UNL     1      -3.063  26.879  28.110  1.00  0.00     0.086 A 
HETATM   14  N5  UNL     1      -3.962  27.142  29.073  1.00  0.00    -0.342 N 
ATOM     15  H5  UNL     1      -4.937  27.398  28.915  1.00  0.00     0.167 HD
HETATM   16  C15 UNL     1      -3.371  27.011  30.292  1.00  0.00     0.088 A 
ENDROOT
BRANCH  13  17
HETATM   17  C10 UNL     1      -3.407  26.938  26.659  1.00  0.00     0.106 C 
BRANCH  17  18
HETATM   18  C11 UNL     1      -2.419  26.300  25.809  1.00  0.00     0.016 C 
BRANCH  18  19
HETATM   19  C12 UNL     1      -1.636  26.953  24.989  1.00  0.00     0.101 A 
HETATM   20  N3  UNL     1      -0.411  27.585  25.445  1.00  0.00    -0.304 N 
HETATM   21  C13 UNL     1       0.236  28.210  24.354  1.00  0.00     0.327 A 
ATOM     22  H3  UNL     1      -0.069  27.579  26.405  1.00  0.00     0.171 HD
HETATM   23  O3  UNL     1       1.325  28.854  24.388  1.00  0.00    -0.247 OA
HETATM   24  N4  UNL     1      -0.517  28.019  23.173  1.00  0.00    -0.274 N 
HETATM   25  C14 UNL     1      -1.669  27.242  23.580  1.00  0.00     0.276 A 
ATOM     26  H4  UNL     1      -0.296  28.356  22.236  1.00  0.00     0.173 HD
HETATM   27  O4  UNL     1      -2.571  26.876  22.786  1.00  0.00    -0.266 OA
ENDBRANCH  18  19
ENDBRANCH  17  18
ENDBRANCH  13  17
BRANCH   3  28
HETATM   28  C4  UNL     1      -4.536  27.420  33.940  1.00  0.00     0.144 C 
BRANCH  28  29
HETATM   29  O1  UNL     1      -5.507  26.659  34.428  1.00  0.00    -0.372 OA
ATOM     30  H1  UNL     1      -5.416  25.924  35.022  1.00  0.00     0.216 HD
ENDBRANCH  28  29
ENDBRANCH   3  28
TORSDOF 5
ENDMDL
