MODEL 1
REMARK VINA RESULT: -6.448909814      0.000      0.000
REMARK  1 active torsions:
REMARK  status: ('A' for Active; 'I' for Inactive)
REMARK       I    between atoms: C1_4  and  N3_6 
REMARK    1  A    between atoms: C4_12  and  C5_13 
ROOT
HETATM    1  N1  UNL     1      -3.676  27.373  27.017  1.00  0.00    -0.373 N 
ATOM      2  H11 UNL     1      -3.372  28.244  27.452  1.00  0.00     0.158 HD
ATOM      3  H12 UNL     1      -4.545  26.962  27.356  1.00  0.00     0.158 HD
HETATM    4  C1  UNL     1      -3.044  26.775  26.084  1.00  0.00     0.197 C 
HETATM    5  N2  UNL     1      -3.464  25.574  25.484  1.00  0.00    -0.063 NA
HETATM    6  N3  UNL     1      -1.832  27.350  25.610  1.00  0.00    -0.237 N 
HETATM    7  C2  UNL     1      -1.495  27.795  24.306  1.00  0.00     0.112 A 
HETATM    8  N4  UNL     1      -2.288  27.741  23.299  1.00  0.00    -0.385 N 
ATOM      9  H41 UNL     1      -2.045  28.061  22.362  1.00  0.00     0.157 HD
ATOM     10  H42 UNL     1      -3.246  27.394  23.237  1.00  0.00     0.157 HD
HETATM   11  C3  UNL     1      -0.133  28.289  24.395  1.00  0.00     0.071 A 
HETATM   12  C4  UNL     1       0.352  28.169  25.636  1.00  0.00     0.101 A 
HETATM   13  C6  UNL     1      -0.709  27.569  26.449  1.00  0.00     0.271 A 
HETATM   14  O2  UNL     1      -0.604  27.307  27.687  1.00  0.00    -0.266 OA
ENDROOT
BRANCH  12  15
HETATM   15  C5  UNL     1       1.666  28.550  26.119  1.00  0.00     0.270 C 
HETATM   16  N5  UNL     1       1.770  29.581  27.076  1.00  0.00    -0.057 NA
HETATM   17  O1  UNL     1       2.664  27.943  25.665  1.00  0.00    -0.271 OA
ENDBRANCH  12  15
TORSDOF 1
ENDMDL
MODEL 2
REMARK VINA RESULT: -6.309113949      2.231      3.147
REMARK  1 active torsions:
REMARK  status: ('A' for Active; 'I' for Inactive)
REMARK       I    between atoms: C1_4  and  N3_6 
REMARK    1  A    between atoms: C4_12  and  C5_13 
ROOT
HETATM    1  N1  UNL     1      -4.641  26.122  26.826  1.00  0.00    -0.373 N 
ATOM      2  H11 UNL     1      -4.029  25.397  26.452  1.00  0.00     0.158 HD
ATOM      3  H12 UNL     1      -5.607  25.860  27.022  1.00  0.00     0.158 HD
HETATM    4  C1  UNL     1      -4.277  27.322  27.062  1.00  0.00     0.197 C 
HETATM    5  N2  UNL     1      -5.121  28.321  27.577  1.00  0.00    -0.063 NA
HETATM    6  N3  UNL     1      -2.929  27.686  26.789  1.00  0.00    -0.237 N 
HETATM    7  C2  UNL     1      -1.932  28.179  27.670  1.00  0.00     0.112 A 
HETATM    8  N4  UNL     1      -2.116  28.381  28.923  1.00  0.00    -0.385 N 
ATOM      9  H41 UNL     1      -1.399  28.736  29.557  1.00  0.00     0.157 HD
ATOM     10  H42 UNL     1      -2.948  28.239  29.496  1.00  0.00     0.157 HD
HETATM   11  C3  UNL     1      -0.747  28.382  26.856  1.00  0.00     0.071 A 
HETATM   12  C4  UNL     1      -0.968  28.050  25.579  1.00  0.00     0.101 A 
HETATM   13  C6  UNL     1      -2.359  27.597  25.493  1.00  0.00     0.271 A 
HETATM   14  O2  UNL     1      -2.920  27.201  24.425  1.00  0.00    -0.266 OA
ENDROOT
BRANCH  12  15
HETATM   15  C5  UNL     1      -0.035  28.111  24.470  1.00  0.00     0.270 C 
HETATM   16  N5  UNL     1      -0.141  27.159  23.433  1.00  0.00    -0.057 NA
HETATM   17  O1  UNL     1       0.835  29.014  24.474  1.00  0.00    -0.271 OA
ENDBRANCH  12  15
TORSDOF 1
ENDMDL
MODEL 3
REMARK VINA RESULT: -6.273590083      2.429      3.078
REMARK  1 active torsions:
REMARK  status: ('A' for Active; 'I' for Inactive)
REMARK       I    between atoms: C1_4  and  N3_6 
REMARK    1  A    between atoms: C4_12  and  C5_13 
ROOT
HETATM    1  N1  UNL     1      -4.603  25.853  26.960  1.00  0.00    -0.373 N 
ATOM      2  H11 UNL     1      -3.841  25.186  26.841  1.00  0.00     0.158 HD
ATOM      3  H12 UNL     1      -5.518  25.476  27.205  1.00  0.00     0.158 HD
HETATM    4  C1  UNL     1      -4.483  27.116  26.822  1.00  0.00     0.197 C 
HETATM    5  N2  UNL     1      -5.534  28.036  26.985  1.00  0.00    -0.063 NA
HETATM    6  N3  UNL     1      -3.206  27.642  26.479  1.00  0.00    -0.237 N 
HETATM    7  C2  UNL     1      -2.391  28.563  27.187  1.00  0.00     0.112 A 
HETATM    8  N4  UNL     1      -2.710  29.089  28.312  1.00  0.00    -0.385 N 
ATOM      9  H41 UNL     1      -2.124  29.751  28.821  1.00  0.00     0.157 HD
ATOM     10  H42 UNL     1      -3.547  28.962  28.882  1.00  0.00     0.157 HD
HETATM   11  C3  UNL     1      -1.201  28.743  26.376  1.00  0.00     0.071 A 
HETATM   12  C4  UNL     1      -1.252  28.009  25.259  1.00  0.00     0.101 A 
HETATM   13  C6  UNL     1      -2.526  27.285  25.287  1.00  0.00     0.271 A 
HETATM   14  O2  UNL     1      -2.916  26.485  24.381  1.00  0.00    -0.266 OA
ENDROOT
BRANCH  12  15
HETATM   15  C5  UNL     1      -0.258  27.920  24.206  1.00  0.00     0.270 C 
HETATM   16  N5  UNL     1       1.108  27.890  24.556  1.00  0.00    -0.057 NA
HETATM   17  O1  UNL     1      -0.655  27.872  23.018  1.00  0.00    -0.271 OA
ENDBRANCH  12  15
TORSDOF 1
ENDMDL
MODEL 4
REMARK VINA RESULT: -6.257662118      2.055      2.706
REMARK  1 active torsions:
REMARK  status: ('A' for Active; 'I' for Inactive)
REMARK       I    between atoms: C1_4  and  N3_6 
REMARK    1  A    between atoms: C4_12  and  C5_13 
ROOT
HETATM    1  N1  UNL     1      -2.439  28.649  29.211  1.00  0.00    -0.373 N 
ATOM      2  H11 UNL     1      -2.030  29.498  28.822  1.00  0.00     0.158 HD
ATOM      3  H12 UNL     1      -2.668  28.656  30.205  1.00  0.00     0.158 HD
HETATM    4  C1  UNL     1      -2.681  27.592  28.539  1.00  0.00     0.197 C 
HETATM    5  N2  UNL     1      -3.245  26.421  29.077  1.00  0.00    -0.063 NA
HETATM    6  N3  UNL     1      -2.362  27.583  27.153  1.00  0.00    -0.237 N 
HETATM    7  C2  UNL     1      -3.211  27.389  26.034  1.00  0.00     0.112 A 
HETATM    8  N4  UNL     1      -4.474  27.179  26.116  1.00  0.00    -0.385 N 
ATOM      9  H41 UNL     1      -5.085  27.039  25.311  1.00  0.00     0.157 HD
ATOM     10  H42 UNL     1      -5.076  27.115  26.938  1.00  0.00     0.157 HD
HETATM   11  C3  UNL     1      -2.356  27.480  24.865  1.00  0.00     0.071 A 
HETATM   12  C4  UNL     1      -1.082  27.710  25.206  1.00  0.00     0.101 A 
HETATM   13  C6  UNL     1      -1.043  27.783  26.669  1.00  0.00     0.271 A 
HETATM   14  O2  UNL     1       0.009  27.992  27.349  1.00  0.00    -0.266 OA
ENDROOT
BRANCH  12  15
HETATM   15  C5  UNL     1       0.061  27.864  24.327  1.00  0.00     0.270 C 
HETATM   16  N5  UNL     1       0.408  26.802  23.464  1.00  0.00    -0.057 NA
HETATM   17  O1  UNL     1       0.701  28.941  24.367  1.00  0.00    -0.271 OA
ENDBRANCH  12  15
TORSDOF 1
ENDMDL
MODEL 5
REMARK VINA RESULT: -6.179991129      2.638      3.478
REMARK  1 active torsions:
REMARK  status: ('A' for Active; 'I' for Inactive)
REMARK       I    between atoms: C1_4  and  N3_6 
REMARK    1  A    between atoms: C4_12  and  C5_13 
ROOT
HETATM    1  N1  UNL     1      -4.614  26.279  28.231  1.00  0.00    -0.373 N 
ATOM      2  H11 UNL     1      -3.903  25.553  28.143  1.00  0.00     0.158 HD
ATOM      3  H12 UNL     1      -5.438  26.059  28.790  1.00  0.00     0.158 HD
HETATM    4  C1  UNL     1      -4.536  27.432  27.691  1.00  0.00     0.197 C 
HETATM    5  N2  UNL     1      -5.517  28.433  27.812  1.00  0.00    -0.063 NA
HETATM    6  N3  UNL     1      -3.386  27.739  26.911  1.00  0.00    -0.237 N 
HETATM    7  C2  UNL     1      -2.424  28.765  27.090  1.00  0.00     0.112 A 
HETATM    8  N4  UNL     1      -2.454  29.622  28.044  1.00  0.00    -0.385 N 
ATOM      9  H41 UNL     1      -1.761  30.360  28.172  1.00  0.00     0.157 HD
ATOM     10  H42 UNL     1      -3.122  29.731  28.807  1.00  0.00     0.157 HD
HETATM   11  C3  UNL     1      -1.473  28.611  26.004  1.00  0.00     0.071 A 
HETATM   12  C4  UNL     1      -1.798  27.585  25.209  1.00  0.00     0.101 A 
HETATM   13  C6  UNL     1      -3.023  26.997  25.758  1.00  0.00     0.271 A 
HETATM   14  O2  UNL     1      -3.625  25.996  25.258  1.00  0.00    -0.266 OA
ENDROOT
BRANCH  12  15
HETATM   15  C5  UNL     1      -1.098  27.117  24.028  1.00  0.00     0.270 C 
HETATM   16  N5  UNL     1      -0.480  28.061  23.180  1.00  0.00    -0.057 NA
HETATM   17  O1  UNL     1      -1.068  25.884  23.805  1.00  0.00    -0.271 OA
ENDBRANCH  12  15
TORSDOF 1
ENDMDL
