MODEL 1
REMARK VINA RESULT: -5.960661845      0.000      0.000
REMARK  3 active torsions:
REMARK  status: ('A' for Active; 'I' for Inactive)
REMARK    1  A    between atoms: C1_4  and  N2_5 
REMARK    2  A    between atoms: C3_12  and  N5_13 
REMARK    3  A    between atoms: N5_13  and  C4_15 
ROOT
HETATM    1  N2  UNL     1      -1.625  27.498  25.538  1.00  0.00    -0.090 N 
HETATM    2  C2  UNL     1      -2.435  26.953  24.591  1.00  0.00     0.361 A 
HETATM    3  O1  UNL     1      -3.348  26.116  24.830  1.00  0.00    -0.244 OA
HETATM    4  N3  UNL     1      -2.109  27.448  23.378  1.00  0.00    -0.236 N 
ATOM      5  H3  UNL     1      -2.546  27.221  22.485  1.00  0.00     0.192 HD
HETATM    6  N4  UNL     1      -1.118  28.278  23.579  1.00  0.00    -0.127 N 
ATOM      7  H4  UNL     1      -0.653  28.811  22.844  1.00  0.00     0.205 HD
HETATM    8  C3  UNL     1      -0.792  28.338  24.884  1.00  0.00     0.710 A 
ENDROOT
BRANCH   8   9
HETATM    9  N5  UNL     1       0.103  29.015  25.495  1.00  0.00    -0.166 N 
ATOM     10  H5  UNL     1      -0.165  29.930  25.857  1.00  0.00     0.186 HD
BRANCH   9  11
HETATM   11  C4  UNL     1       1.435  28.597  25.707  1.00  0.00     0.199 C 
HETATM   12  N6  UNL     1       2.178  27.808  24.798  1.00  0.00    -0.069 NA
HETATM   13  S1  UNL     1       2.148  29.058  27.094  1.00  0.00    -0.044 SA
ENDBRANCH   9  11
ENDBRANCH   8   9
BRANCH   1  14
HETATM   14  C1  UNL     1      -1.656  27.231  26.934  1.00  0.00     0.205 C 
HETATM   15  N1  UNL     1      -1.233  26.109  27.409  1.00  0.00    -0.394 N 
ATOM     16  H12 UNL     1      -0.873  25.412  26.758  1.00  0.00     0.156 HD
ATOM     17  H11 UNL     1      -1.256  25.918  28.410  1.00  0.00     0.156 HD
ENDBRANCH   1  14
TORSDOF 3
ENDMDL
MODEL 2
REMARK VINA RESULT: -5.797815971      3.110      4.102
REMARK  3 active torsions:
REMARK  status: ('A' for Active; 'I' for Inactive)
REMARK    1  A    between atoms: C1_4  and  N2_5 
REMARK    2  A    between atoms: C3_12  and  N5_13 
REMARK    3  A    between atoms: N5_13  and  C4_15 
ROOT
HETATM    1  N2  UNL     1      -0.669  28.337  25.699  1.00  0.00    -0.090 N 
HETATM    2  C2  UNL     1       0.008  28.556  24.540  1.00  0.00     0.361 A 
HETATM    3  O1  UNL     1       1.215  28.916  24.477  1.00  0.00    -0.244 OA
HETATM    4  N3  UNL     1      -0.809  28.330  23.490  1.00  0.00    -0.236 N 
ATOM      5  H3  UNL     1      -0.575  28.415  22.501  1.00  0.00     0.192 HD
HETATM    6  N4  UNL     1      -1.963  27.979  23.996  1.00  0.00    -0.127 N 
ATOM      7  H4  UNL     1      -2.788  27.743  23.444  1.00  0.00     0.205 HD
HETATM    8  C3  UNL     1      -1.920  27.970  25.341  1.00  0.00     0.710 A 
ENDROOT
BRANCH   8   9
HETATM    9  N5  UNL     1      -2.817  27.690  26.207  1.00  0.00    -0.166 N 
ATOM     10  H5  UNL     1      -2.830  28.241  27.065  1.00  0.00     0.186 HD
BRANCH   9  11
HETATM   11  C4  UNL     1      -3.790  26.676  26.071  1.00  0.00     0.199 C 
HETATM   12  N6  UNL     1      -3.609  25.492  25.319  1.00  0.00    -0.069 NA
HETATM   13  S1  UNL     1      -5.210  26.900  26.832  1.00  0.00    -0.044 SA
ENDBRANCH   9  11
ENDBRANCH   8   9
BRANCH   1  14
HETATM   14  C1  UNL     1      -0.154  28.468  27.018  1.00  0.00     0.205 C 
HETATM   15  N1  UNL     1       0.845  29.242  27.271  1.00  0.00    -0.394 N 
ATOM     16  H12 UNL     1       1.263  29.762  26.499  1.00  0.00     0.156 HD
ATOM     17  H11 UNL     1       1.214  29.336  28.217  1.00  0.00     0.156 HD
ENDBRANCH   1  14
TORSDOF 3
ENDMDL
MODEL 3
REMARK VINA RESULT: -5.635014751      1.375      2.636
REMARK  3 active torsions:
REMARK  status: ('A' for Active; 'I' for Inactive)
REMARK    1  A    between atoms: C1_4  and  N2_5 
REMARK    2  A    between atoms: C3_12  and  N5_13 
REMARK    3  A    between atoms: N5_13  and  C4_15 
ROOT
HETATM    1  N2  UNL     1      -1.412  27.596  25.427  1.00  0.00    -0.090 N 
HETATM    2  C2  UNL     1      -2.151  26.454  25.480  1.00  0.00     0.361 A 
HETATM    3  O1  UNL     1      -2.957  26.086  24.582  1.00  0.00    -0.244 OA
HETATM    4  N3  UNL     1      -1.883  25.795  26.627  1.00  0.00    -0.236 N 
ATOM      5  H3  UNL     1      -2.289  24.911  26.935  1.00  0.00     0.192 HD
HETATM    6  N4  UNL     1      -0.999  26.518  27.264  1.00  0.00    -0.127 N 
ATOM      7  H4  UNL     1      -0.600  26.275  28.171  1.00  0.00     0.205 HD
HETATM    8  C3  UNL     1      -0.684  27.625  26.566  1.00  0.00     0.710 A 
ENDROOT
BRANCH   8   9
HETATM    9  N5  UNL     1       0.124  28.580  26.828  1.00  0.00    -0.166 N 
ATOM     10  H5  UNL     1      -0.280  29.485  27.069  1.00  0.00     0.186 HD
BRANCH   9  11
HETATM   11  C4  UNL     1       1.532  28.481  26.809  1.00  0.00     0.199 C 
HETATM   12  N6  UNL     1       2.370  28.810  27.899  1.00  0.00    -0.069 NA
HETATM   13  S1  UNL     1       2.222  27.955  25.433  1.00  0.00    -0.044 SA
ENDBRANCH   9  11
ENDBRANCH   8   9
BRANCH   1  14
HETATM   14  C1  UNL     1      -1.412  28.557  24.380  1.00  0.00     0.205 C 
HETATM   15  N1  UNL     1      -1.043  28.243  23.185  1.00  0.00    -0.394 N 
ATOM     16  H12 UNL     1      -0.748  27.283  23.005  1.00  0.00     0.156 HD
ATOM     17  H11 UNL     1      -1.043  28.933  22.434  1.00  0.00     0.156 HD
ENDBRANCH   1  14
TORSDOF 3
ENDMDL
MODEL 4
REMARK VINA RESULT: -5.618171915      1.039      1.094
REMARK  3 active torsions:
REMARK  status: ('A' for Active; 'I' for Inactive)
REMARK    1  A    between atoms: C1_4  and  N2_5 
REMARK    2  A    between atoms: C3_12  and  N5_13 
REMARK    3  A    between atoms: N5_13  and  C4_15 
ROOT
HETATM    1  N2  UNL     1      -1.576  27.509  25.634  1.00  0.00    -0.090 N 
HETATM    2  C2  UNL     1      -2.347  26.982  24.644  1.00  0.00     0.361 A 
HETATM    3  O1  UNL     1      -3.259  26.131  24.827  1.00  0.00    -0.244 OA
HETATM    4  N3  UNL     1      -1.981  27.512  23.457  1.00  0.00    -0.236 N 
ATOM      5  H3  UNL     1      -2.383  27.305  22.543  1.00  0.00     0.192 HD
HETATM    6  N4  UNL     1      -1.006  28.345  23.716  1.00  0.00    -0.127 N 
ATOM      7  H4  UNL     1      -0.520  28.902  23.012  1.00  0.00     0.205 HD
HETATM    8  C3  UNL     1      -0.729  28.373  25.032  1.00  0.00     0.710 A 
ENDROOT
BRANCH   8   9
HETATM    9  N5  UNL     1       0.137  29.042  25.693  1.00  0.00    -0.166 N 
ATOM     10  H5  UNL     1      -0.058  30.029  25.859  1.00  0.00     0.186 HD
BRANCH   9  11
HETATM   11  C4  UNL     1       1.343  28.522  26.212  1.00  0.00     0.199 C 
HETATM   12  N6  UNL     1       1.733  28.612  27.569  1.00  0.00    -0.069 NA
HETATM   13  S1  UNL     1       2.340  27.773  25.168  1.00  0.00    -0.044 SA
ENDBRANCH   9  11
ENDBRANCH   8   9
BRANCH   1  14
HETATM   14  C1  UNL     1      -1.655  27.204  27.021  1.00  0.00     0.205 C 
HETATM   15  N1  UNL     1      -1.236  26.076  27.482  1.00  0.00    -0.394 N 
ATOM     16  H12 UNL     1      -0.843  25.400  26.826  1.00  0.00     0.156 HD
ATOM     17  H11 UNL     1      -1.293  25.858  28.476  1.00  0.00     0.156 HD
ENDBRANCH   1  14
TORSDOF 3
ENDMDL
MODEL 5
REMARK VINA RESULT: -5.510542046      2.886      4.063
REMARK  3 active torsions:
REMARK  status: ('A' for Active; 'I' for Inactive)
REMARK    1  A    between atoms: C1_4  and  N2_5 
REMARK    2  A    between atoms: C3_12  and  N5_13 
REMARK    3  A    between atoms: N5_13  and  C4_15 
ROOT
HETATM    1  N2  UNL     1      -0.811  27.697  25.594  1.00  0.00    -0.090 N 
HETATM    2  C2  UNL     1      -0.375  28.257  24.433  1.00  0.00     0.361 A 
HETATM    3  O1  UNL     1       0.685  28.932  24.323  1.00  0.00    -0.244 OA
HETATM    4  N3  UNL     1      -1.244  27.973  23.440  1.00  0.00    -0.236 N 
ATOM      5  H3  UNL     1      -1.175  28.261  22.464  1.00  0.00     0.192 HD
HETATM    6  N4  UNL     1      -2.194  27.256  23.982  1.00  0.00    -0.127 N 
ATOM      7  H4  UNL     1      -3.001  26.889  23.477  1.00  0.00     0.205 HD
HETATM    8  C3  UNL     1      -1.968  27.064  25.295  1.00  0.00     0.710 A 
ENDROOT
BRANCH   8   9
HETATM    9  N5  UNL     1      -2.640  26.430  26.178  1.00  0.00    -0.166 N 
ATOM     10  H5  UNL     1      -2.209  25.603  26.592  1.00  0.00     0.186 HD
BRANCH   9  11
HETATM   11  C4  UNL     1      -3.931  26.783  26.626  1.00  0.00     0.199 C 
HETATM   12  N6  UNL     1      -4.961  27.269  25.788  1.00  0.00    -0.069 NA
HETATM   13  S1  UNL     1      -4.239  26.618  28.215  1.00  0.00    -0.044 SA
ENDBRANCH   9  11
ENDBRANCH   8   9
BRANCH   1  14
HETATM   14  C1  UNL     1      -0.172  27.769  26.862  1.00  0.00     0.205 C 
HETATM   15  N1  UNL     1       0.290  28.884  27.315  1.00  0.00    -0.394 N 
ATOM     16  H12 UNL     1       0.187  29.721  26.740  1.00  0.00     0.156 HD
ATOM     17  H11 UNL     1       0.749  28.936  28.224  1.00  0.00     0.156 HD
ENDBRANCH   1  14
TORSDOF 3
ENDMDL
