MODEL 1
REMARK VINA RESULT: -5.798409445      0.000      0.000
REMARK  4 active torsions:
REMARK  status: ('A' for Active; 'I' for Inactive)
REMARK    1  A    between atoms: C2_3  and  C3_5 
REMARK    2  A    between atoms: C6_8  and  C7_9 
REMARK    3  A    between atoms: C7_9  and  C8_11 
REMARK    4  A    between atoms: C8_11  and  N4_12 
ROOT
HETATM    1  N1  UNL     1       2.268  28.913  27.971  1.00  0.00    -0.190 NA
HETATM    2  C1  UNL     1       1.938  28.557  26.915  1.00  0.00     0.117 C 
HETATM    3  C2  UNL     1       1.542  28.101  25.621  1.00  0.00     0.152 C 
HETATM    4  N2  UNL     1       2.527  27.802  24.661  1.00  0.00    -0.088 NA
ENDROOT
BRANCH   3   5
HETATM    5  C3  UNL     1       0.239  27.965  25.338  1.00  0.00     0.068 A 
HETATM    6  C4  UNL     1      -0.380  28.516  24.236  1.00  0.00     0.034 A 
HETATM    7  C5  UNL     1      -1.723  28.133  24.324  1.00  0.00     0.033 A 
HETATM    8  C6  UNL     1      -1.903  27.369  25.455  1.00  0.00     0.054 A 
HETATM    9  N5  UNL     1      -0.681  27.303  26.024  1.00  0.00    -0.353 N 
ATOM     10  H5  UNL     1      -0.486  26.799  26.889  1.00  0.00     0.166 HD
BRANCH   8  11
HETATM   11  C7  UNL     1      -3.032  26.825  25.877  1.00  0.00     0.076 C 
HETATM   12  N3  UNL     1      -3.461  25.604  25.295  1.00  0.00    -0.103 NA
BRANCH  11  13
HETATM   13  C8  UNL     1      -3.864  27.445  26.935  1.00  0.00     0.285 C 
BRANCH  13  14
HETATM   14  N4  UNL     1      -5.216  27.430  26.529  1.00  0.00    -0.074 N 
ATOM     15  H43 UNL     1      -5.332  27.082  25.578  1.00  0.00     0.274 HD
ATOM     16  H42 UNL     1      -5.757  26.712  27.011  1.00  0.00     0.274 HD
ATOM     17  H41 UNL     1      -5.612  28.361  26.653  1.00  0.00     0.274 HD
ENDBRANCH  13  14
ENDBRANCH  11  13
ENDBRANCH   8  11
ENDBRANCH   3   5
TORSDOF 4
ENDMDL
MODEL 2
REMARK VINA RESULT: -5.787784812      0.598      4.887
REMARK  4 active torsions:
REMARK  status: ('A' for Active; 'I' for Inactive)
REMARK    1  A    between atoms: C2_3  and  C3_5 
REMARK    2  A    between atoms: C6_8  and  C7_9 
REMARK    3  A    between atoms: C7_9  and  C8_11 
REMARK    4  A    between atoms: C8_11  and  N4_12 
ROOT
HETATM    1  N1  UNL     1      -4.237  28.036  27.858  1.00  0.00    -0.190 NA
HETATM    2  C1  UNL     1      -3.670  27.517  26.986  1.00  0.00     0.117 C 
HETATM    3  C2  UNL     1      -2.988  26.882  25.903  1.00  0.00     0.152 C 
HETATM    4  N2  UNL     1      -3.505  25.690  25.363  1.00  0.00    -0.088 NA
ENDROOT
BRANCH   3   5
HETATM    5  C3  UNL     1      -1.866  27.429  25.417  1.00  0.00     0.068 A 
HETATM    6  C4  UNL     1      -1.750  27.983  24.159  1.00  0.00     0.034 A 
HETATM    7  C5  UNL     1      -0.429  28.432  24.061  1.00  0.00     0.033 A 
HETATM    8  C6  UNL     1       0.233  28.153  25.236  1.00  0.00     0.054 A 
HETATM    9  N5  UNL     1      -0.689  27.547  26.015  1.00  0.00    -0.353 N 
ATOM     10  H5  UNL     1      -0.501  27.216  26.961  1.00  0.00     0.166 HD
BRANCH   8  11
HETATM   11  C7  UNL     1       1.495  28.425  25.524  1.00  0.00     0.076 C 
HETATM   12  N3  UNL     1       2.517  27.683  24.878  1.00  0.00    -0.103 NA
BRANCH  11  13
HETATM   13  C8  UNL     1       1.877  29.476  26.496  1.00  0.00     0.285 C 
BRANCH  13  14
HETATM   14  N4  UNL     1       2.070  28.885  27.764  1.00  0.00    -0.074 N 
ATOM     15  H43 UNL     1       1.222  28.444  28.119  1.00  0.00     0.274 HD
ATOM     16  H42 UNL     1       2.657  28.052  27.718  1.00  0.00     0.274 HD
ATOM     17  H41 UNL     1       2.440  29.586  28.406  1.00  0.00     0.274 HD
ENDBRANCH  13  14
ENDBRANCH  11  13
ENDBRANCH   8  11
ENDBRANCH   3   5
TORSDOF 4
ENDMDL
MODEL 3
REMARK VINA RESULT: -5.569367610      1.142      5.122
REMARK  4 active torsions:
REMARK  status: ('A' for Active; 'I' for Inactive)
REMARK    1  A    between atoms: C2_3  and  C3_5 
REMARK    2  A    between atoms: C6_8  and  C7_9 
REMARK    3  A    between atoms: C7_9  and  C8_11 
REMARK    4  A    between atoms: C8_11  and  N4_12 
ROOT
HETATM    1  N1  UNL     1      -4.549  26.061  26.498  1.00  0.00    -0.190 NA
HETATM    2  C1  UNL     1      -3.680  26.391  25.800  1.00  0.00     0.117 C 
HETATM    3  C2  UNL     1      -2.625  26.807  24.931  1.00  0.00     0.152 C 
HETATM    4  N2  UNL     1      -2.650  26.420  23.578  1.00  0.00    -0.088 NA
ENDROOT
BRANCH   3   5
HETATM    5  C3  UNL     1      -1.627  27.559  25.414  1.00  0.00     0.068 A 
HETATM    6  C4  UNL     1      -1.795  28.594  26.309  1.00  0.00     0.034 A 
HETATM    7  C5  UNL     1      -0.514  29.103  26.548  1.00  0.00     0.033 A 
HETATM    8  C6  UNL     1       0.402  28.386  25.810  1.00  0.00     0.054 A 
HETATM    9  N5  UNL     1      -0.333  27.468  25.147  1.00  0.00    -0.353 N 
ATOM     10  H5  UNL     1       0.065  26.778  24.509  1.00  0.00     0.166 HD
BRANCH   8  11
HETATM   11  C7  UNL     1       1.711  28.569  25.770  1.00  0.00     0.076 C 
HETATM   12  N3  UNL     1       2.483  27.789  24.871  1.00  0.00    -0.103 NA
BRANCH  11  13
HETATM   13  C8  UNL     1       2.400  29.558  26.632  1.00  0.00     0.285 C 
BRANCH  13  14
HETATM   14  N4  UNL     1       2.420  29.080  27.961  1.00  0.00    -0.074 N 
ATOM     15  H43 UNL     1       1.805  29.614  28.575  1.00  0.00     0.274 HD
ATOM     16  H42 UNL     1       1.962  28.173  28.053  1.00  0.00     0.274 HD
ATOM     17  H41 UNL     1       3.383  29.064  28.296  1.00  0.00     0.274 HD
ENDBRANCH  13  14
ENDBRANCH  11  13
ENDBRANCH   8  11
ENDBRANCH   3   5
TORSDOF 4
ENDMDL
MODEL 4
REMARK VINA RESULT: -5.544200922      1.593      5.514
REMARK  4 active torsions:
REMARK  status: ('A' for Active; 'I' for Inactive)
REMARK    1  A    between atoms: C2_3  and  C3_5 
REMARK    2  A    between atoms: C6_8  and  C7_9 
REMARK    3  A    between atoms: C7_9  and  C8_11 
REMARK    4  A    between atoms: C8_11  and  N4_12 
ROOT
HETATM    1  N1  UNL     1      -6.651  27.881  25.669  1.00  0.00    -0.190 NA
HETATM    2  C1  UNL     1      -5.697  27.535  26.235  1.00  0.00     0.117 C 
HETATM    3  C2  UNL     1      -4.527  27.091  26.923  1.00  0.00     0.152 C 
HETATM    4  N2  UNL     1      -4.635  26.070  27.886  1.00  0.00    -0.088 NA
ENDROOT
BRANCH   3   5
HETATM    5  C3  UNL     1      -3.342  27.652  26.643  1.00  0.00     0.068 A 
HETATM    6  C4  UNL     1      -2.714  28.584  27.441  1.00  0.00     0.034 A 
HETATM    7  C5  UNL     1      -1.518  28.900  26.787  1.00  0.00     0.033 A 
HETATM    8  C6  UNL     1      -1.433  28.171  25.621  1.00  0.00     0.054 A 
HETATM    9  N5  UNL     1      -2.565  27.436  25.592  1.00  0.00    -0.353 N 
ATOM     10  H5  UNL     1      -2.797  26.785  24.842  1.00  0.00     0.166 HD
BRANCH   8  11
HETATM   11  C7  UNL     1      -0.451  28.196  24.736  1.00  0.00     0.076 C 
HETATM   12  N3  UNL     1      -0.703  27.724  23.423  1.00  0.00    -0.103 NA
BRANCH  11  13
HETATM   13  C8  UNL     1       0.903  28.699  25.069  1.00  0.00     0.285 C 
BRANCH  13  14
HETATM   14  N4  UNL     1       1.765  27.601  25.284  1.00  0.00    -0.074 N 
ATOM     15  H43 UNL     1       1.784  27.309  26.261  1.00  0.00     0.274 HD
ATOM     16  H42 UNL     1       1.399  26.738  24.883  1.00  0.00     0.274 HD
ATOM     17  H41 UNL     1       2.693  27.831  24.930  1.00  0.00     0.274 HD
ENDBRANCH  13  14
ENDBRANCH  11  13
ENDBRANCH   8  11
ENDBRANCH   3   5
TORSDOF 4
ENDMDL
MODEL 5
REMARK VINA RESULT: -5.443117257      1.288      1.626
REMARK  4 active torsions:
REMARK  status: ('A' for Active; 'I' for Inactive)
REMARK    1  A    between atoms: C2_3  and  C3_5 
REMARK    2  A    between atoms: C6_8  and  C7_9 
REMARK    3  A    between atoms: C7_9  and  C8_11 
REMARK    4  A    between atoms: C8_11  and  N4_12 
ROOT
HETATM    1  N1  UNL     1       2.327  28.939  27.661  1.00  0.00    -0.190 NA
HETATM    2  C1  UNL     1       1.492  28.839  26.859  1.00  0.00     0.117 C 
HETATM    3  C2  UNL     1       0.474  28.701  25.866  1.00  0.00     0.152 C 
HETATM    4  N2  UNL     1       0.810  28.843  24.507  1.00  0.00    -0.088 NA
ENDROOT
BRANCH   3   5
HETATM    5  C3  UNL     1      -0.785  28.438  26.242  1.00  0.00     0.068 A 
HETATM    6  C4  UNL     1      -1.491  29.174  27.169  1.00  0.00     0.034 A 
HETATM    7  C5  UNL     1      -2.747  28.566  27.261  1.00  0.00     0.033 A 
HETATM    8  C6  UNL     1      -2.792  27.487  26.407  1.00  0.00     0.054 A 
HETATM    9  N5  UNL     1      -1.576  27.463  25.819  1.00  0.00    -0.353 N 
ATOM     10  H5  UNL     1      -1.297  26.769  25.126  1.00  0.00     0.166 HD
BRANCH   8  11
HETATM   11  C7  UNL     1      -3.809  26.665  26.214  1.00  0.00     0.076 C 
HETATM   12  N3  UNL     1      -3.642  25.567  25.332  1.00  0.00    -0.103 NA
BRANCH  11  13
HETATM   13  C8  UNL     1      -5.116  26.850  26.887  1.00  0.00     0.285 C 
BRANCH  13  14
HETATM   14  N4  UNL     1      -5.976  27.578  26.036  1.00  0.00    -0.074 N 
ATOM     15  H43 UNL     1      -5.975  27.218  25.083  1.00  0.00     0.274 HD
ATOM     16  H42 UNL     1      -6.961  27.417  26.250  1.00  0.00     0.274 HD
ATOM     17  H41 UNL     1      -5.728  28.567  26.077  1.00  0.00     0.274 HD
ENDBRANCH  13  14
ENDBRANCH  11  13
ENDBRANCH   8  11
ENDBRANCH   3   5
TORSDOF 4
ENDMDL
