MODEL 1
REMARK VINA RESULT: -6.007344847      0.000      0.000
REMARK  1 active torsions:
REMARK  status: ('A' for Active; 'I' for Inactive)
REMARK       I    between atoms: C1_4  and  N3_6 
REMARK    1  A    between atoms: N3_6  and  C2_8 
ROOT
HETATM    1  C2  UNL     1      -1.116  27.020  26.571  1.00  0.00     0.692 A 
HETATM    2  N4  UNL     1      -0.109  27.817  26.169  1.00  0.00    -0.141 N 
ATOM      3  H4  UNL     1       0.523  28.193  26.876  1.00  0.00     0.189 HD
HETATM    4  C3  UNL     1       0.108  28.145  24.883  1.00  0.00     0.342 A 
HETATM    5  O1  UNL     1       1.077  28.906  24.549  1.00  0.00    -0.246 OA
HETATM    6  N5  UNL     1      -0.735  27.642  23.966  1.00  0.00    -0.260 N 
ATOM      7  H5  UNL     1      -0.610  27.864  22.978  1.00  0.00     0.175 HD
HETATM    8  C4  UNL     1      -1.750  26.841  24.357  1.00  0.00     0.342 A 
HETATM    9  O2  UNL     1      -2.534  26.379  23.462  1.00  0.00    -0.246 OA
HETATM   10  N6  UNL     1      -1.956  26.520  25.647  1.00  0.00    -0.141 N 
ATOM     11  H6  UNL     1      -2.730  25.913  25.918  1.00  0.00     0.189 HD
ENDROOT
BRANCH   1  12
HETATM   12  N3  UNL     1      -1.283  26.731  27.838  1.00  0.00    -0.163 N 
HETATM   13  C1  UNL     1      -2.404  27.276  28.520  1.00  0.00     0.200 C 
HETATM   14  N1  UNL     1      -2.219  28.281  29.291  1.00  0.00    -0.373 N 
HETATM   15  N2  UNL     1      -3.701  26.731  28.363  1.00  0.00    -0.063 NA
ATOM     16  H12 UNL     1      -3.024  28.672  29.781  1.00  0.00     0.158 HD
ATOM     17  H11 UNL     1      -1.285  28.674  29.404  1.00  0.00     0.158 HD
ATOM     18  H3  UNL     1      -0.621  26.128  28.325  1.00  0.00     0.187 HD
ENDBRANCH   1  12
TORSDOF 1
ENDMDL
MODEL 2
REMARK VINA RESULT: -6.001758155      0.066      2.289
REMARK  1 active torsions:
REMARK  status: ('A' for Active; 'I' for Inactive)
REMARK       I    between atoms: C1_4  and  N3_6 
REMARK    1  A    between atoms: N3_6  and  C2_8 
ROOT
HETATM    1  C2  UNL     1      -1.050  27.075  26.575  1.00  0.00     0.692 A 
HETATM    2  N4  UNL     1      -1.874  26.603  25.621  1.00  0.00    -0.141 N 
ATOM      3  H4  UNL     1      -2.650  26.005  25.905  1.00  0.00     0.189 HD
HETATM    4  C3  UNL     1      -1.728  26.881  24.313  1.00  0.00     0.342 A 
HETATM    5  O1  UNL     1      -2.536  26.409  23.444  1.00  0.00    -0.246 OA
HETATM    6  N5  UNL     1      -0.699  27.669  23.959  1.00  0.00    -0.260 N 
ATOM      7  H5  UNL     1      -0.549  27.904  22.978  1.00  0.00     0.175 HD
HETATM    8  C4  UNL     1       0.135  28.147  24.907  1.00  0.00     0.342 A 
HETATM    9  O2  UNL     1       1.103  28.894  24.538  1.00  0.00    -0.246 OA
HETATM   10  N6  UNL     1      -0.022  27.864  26.213  1.00  0.00    -0.141 N 
ATOM     11  H6  UNL     1       0.622  28.238  26.910  1.00  0.00     0.189 HD
ENDROOT
BRANCH   1  12
HETATM   12  N3  UNL     1      -1.237  26.775  27.836  1.00  0.00    -0.163 N 
HETATM   13  C1  UNL     1      -2.381  27.295  28.499  1.00  0.00     0.200 C 
HETATM   14  N1  UNL     1      -2.230  28.298  29.280  1.00  0.00    -0.373 N 
HETATM   15  N2  UNL     1      -3.664  26.729  28.312  1.00  0.00    -0.063 NA
ATOM     16  H12 UNL     1      -3.051  28.671  29.756  1.00  0.00     0.158 HD
ATOM     17  H11 UNL     1      -1.305  28.706  29.414  1.00  0.00     0.158 HD
ATOM     18  H3  UNL     1      -0.574  26.180  28.332  1.00  0.00     0.187 HD
ENDBRANCH   1  12
TORSDOF 1
ENDMDL
MODEL 3
REMARK VINA RESULT: -5.948450476      1.862      2.886
REMARK  1 active torsions:
REMARK  status: ('A' for Active; 'I' for Inactive)
REMARK       I    between atoms: C1_4  and  N3_6 
REMARK    1  A    between atoms: N3_6  and  C2_8 
ROOT
HETATM    1  C2  UNL     1      -1.216  29.005  26.689  1.00  0.00     0.692 A 
HETATM    2  N4  UNL     1      -1.353  28.730  25.378  1.00  0.00    -0.141 N 
ATOM      3  H4  UNL     1      -2.233  28.971  24.923  1.00  0.00     0.189 HD
HETATM    4  C3  UNL     1      -0.388  28.156  24.638  1.00  0.00     0.342 A 
HETATM    5  O1  UNL     1      -0.565  27.914  23.397  1.00  0.00    -0.246 OA
HETATM    6  N5  UNL     1       0.764  27.845  25.256  1.00  0.00    -0.260 N 
ATOM      7  H5  UNL     1       1.523  27.407  24.734  1.00  0.00     0.175 HD
HETATM    8  C4  UNL     1       0.913  28.116  26.570  1.00  0.00     0.342 A 
HETATM    9  O2  UNL     1       2.019  27.808  27.129  1.00  0.00    -0.246 OA
HETATM   10  N6  UNL     1      -0.059  28.692  27.300  1.00  0.00    -0.141 N 
ATOM     11  H6  UNL     1       0.077  28.886  28.292  1.00  0.00     0.189 HD
ENDROOT
BRANCH   1  12
HETATM   12  N3  UNL     1      -2.187  29.567  27.365  1.00  0.00    -0.163 N 
HETATM   13  C1  UNL     1      -3.017  28.748  28.177  1.00  0.00     0.200 C 
HETATM   14  N1  UNL     1      -4.178  28.433  27.741  1.00  0.00    -0.373 N 
HETATM   15  N2  UNL     1      -2.584  28.283  29.443  1.00  0.00    -0.063 NA
ATOM     16  H12 UNL     1      -4.773  27.845  28.324  1.00  0.00     0.158 HD
ATOM     17  H11 UNL     1      -4.489  28.767  26.829  1.00  0.00     0.158 HD
ATOM     18  H3  UNL     1      -2.345  30.573  27.309  1.00  0.00     0.187 HD
ENDBRANCH   1  12
TORSDOF 1
ENDMDL
MODEL 4
REMARK VINA RESULT: -5.871298710      1.473      2.520
REMARK  1 active torsions:
REMARK  status: ('A' for Active; 'I' for Inactive)
REMARK       I    between atoms: C1_4  and  N3_6 
REMARK    1  A    between atoms: N3_6  and  C2_8 
ROOT
HETATM    1  C2  UNL     1      -1.252  27.736  26.582  1.00  0.00     0.692 A 
HETATM    2  N4  UNL     1      -2.249  26.844  26.438  1.00  0.00    -0.141 N 
ATOM      3  H4  UNL     1      -2.733  26.520  27.276  1.00  0.00     0.189 HD
HETATM    4  C3  UNL     1      -2.640  26.356  25.248  1.00  0.00     0.342 A 
HETATM    5  O1  UNL     1      -3.592  25.509  25.162  1.00  0.00    -0.246 OA
HETATM    6  N5  UNL     1      -1.990  26.793  24.156  1.00  0.00    -0.260 N 
ATOM      7  H5  UNL     1      -2.252  26.450  23.232  1.00  0.00     0.175 HD
HETATM    8  C4  UNL     1      -0.988  27.688  24.288  1.00  0.00     0.342 A 
HETATM    9  O2  UNL     1      -0.389  28.084  23.232  1.00  0.00    -0.246 OA
HETATM   10  N6  UNL     1      -0.606  28.170  25.484  1.00  0.00    -0.141 N 
ATOM     11  H6  UNL     1       0.155  28.845  25.558  1.00  0.00     0.189 HD
ENDROOT
BRANCH   1  12
HETATM   12  N3  UNL     1      -0.910  28.180  27.766  1.00  0.00    -0.163 N 
HETATM   13  C1  UNL     1      -1.650  27.746  28.898  1.00  0.00     0.200 C 
HETATM   14  N1  UNL     1      -2.515  28.541  29.404  1.00  0.00    -0.373 N 
HETATM   15  N2  UNL     1      -1.446  26.465  29.467  1.00  0.00    -0.063 NA
ATOM     16  H12 UNL     1      -3.046  28.229  30.216  1.00  0.00     0.158 HD
ATOM     17  H11 UNL     1      -2.662  29.464  28.994  1.00  0.00     0.158 HD
ATOM     18  H3  UNL     1      -0.128  28.826  27.873  1.00  0.00     0.187 HD
ENDBRANCH   1  12
TORSDOF 1
ENDMDL
MODEL 5
REMARK VINA RESULT: -5.869145775      1.862      2.271
REMARK  1 active torsions:
REMARK  status: ('A' for Active; 'I' for Inactive)
REMARK       I    between atoms: C1_4  and  N3_6 
REMARK    1  A    between atoms: N3_6  and  C2_8 
ROOT
HETATM    1  C2  UNL     1      -1.216  29.026  26.689  1.00  0.00     0.692 A 
HETATM    2  N4  UNL     1      -0.025  28.810  27.277  1.00  0.00    -0.141 N 
ATOM      3  H4  UNL     1       0.087  29.078  28.255  1.00  0.00     0.189 HD
HETATM    4  C3  UNL     1       1.025  28.259  26.643  1.00  0.00     0.342 A 
HETATM    5  O1  UNL     1       2.137  28.075  27.244  1.00  0.00    -0.246 OA
HETATM    6  N5  UNL     1       0.860  27.914  25.355  1.00  0.00    -0.260 N 
ATOM      7  H5  UNL     1       1.629  27.494  24.834  1.00  0.00     0.175 HD
HETATM    8  C4  UNL     1      -0.330  28.126  24.754  1.00  0.00     0.342 A 
HETATM    9  O2  UNL     1      -0.457  27.787  23.529  1.00  0.00    -0.246 OA
HETATM   10  N6  UNL     1      -1.375  28.677  25.399  1.00  0.00    -0.141 N 
ATOM     11  H6  UNL     1      -2.264  28.827  24.922  1.00  0.00     0.189 HD
ENDROOT
BRANCH   1  12
HETATM   12  N3  UNL     1      -2.207  29.566  27.352  1.00  0.00    -0.163 N 
HETATM   13  C1  UNL     1      -3.023  28.730  28.161  1.00  0.00     0.200 C 
HETATM   14  N1  UNL     1      -4.171  28.382  27.716  1.00  0.00    -0.373 N 
HETATM   15  N2  UNL     1      -2.591  28.284  29.434  1.00  0.00    -0.063 NA
ATOM     16  H12 UNL     1      -4.756  27.781  28.297  1.00  0.00     0.158 HD
ATOM     17  H11 UNL     1      -4.483  28.702  26.799  1.00  0.00     0.158 HD
ATOM     18  H3  UNL     1      -2.392  30.567  27.288  1.00  0.00     0.187 HD
ENDBRANCH   1  12
TORSDOF 1
ENDMDL
