MODEL 1
REMARK VINA RESULT: -6.091715106      0.000      0.000
REMARK  2 active torsions:
REMARK  status: ('A' for Active; 'I' for Inactive)
REMARK    1  A    between atoms: C2_5  and  N2_6 
REMARK    2  A    between atoms: N2_6  and  C3_8 
ROOT
HETATM    1  O1  UNL     1      -2.554  26.525  23.229  1.00  0.00    -0.262 OA
HETATM    2  C1  UNL     1      -1.892  26.752  24.265  1.00  0.00     0.316 A 
HETATM    3  N1  UNL     1      -2.052  26.203  25.552  1.00  0.00    -0.290 N 
ATOM      4  H1  UNL     1      -2.769  25.519  25.795  1.00  0.00     0.172 HD
HETATM    5  C2  UNL     1      -1.188  26.666  26.386  1.00  0.00     0.191 A 
HETATM    6  N5  UNL     1      -0.346  27.590  25.729  1.00  0.00    -0.290 N 
ATOM      7  H5  UNL     1       0.424  28.104  26.157  1.00  0.00     0.172 HD
HETATM    8  C6  UNL     1      -0.753  27.680  24.374  1.00  0.00     0.316 A 
HETATM    9  O2  UNL     1      -0.250  28.397  23.470  1.00  0.00    -0.262 OA
ENDROOT
BRANCH   5  10
HETATM   10  N2  UNL     1      -1.117  26.283  27.764  1.00  0.00    -0.313 N 
ATOM     11  H2  UNL     1      -0.576  25.457  28.022  1.00  0.00     0.170 HD
BRANCH  10  12
HETATM   12  C3  UNL     1      -1.707  26.943  28.674  1.00  0.00     0.123 A 
HETATM   13  C4  UNL     1      -2.310  26.403  29.774  1.00  0.00     0.068 A 
HETATM   14  C5  UNL     1      -2.838  27.450  30.522  1.00  0.00     0.111 A 
HETATM   15  N3  UNL     1      -2.543  28.579  29.860  1.00  0.00    -0.310 N 
HETATM   16  N4  UNL     1      -1.860  28.262  28.745  1.00  0.00    -0.286 N 
ATOM     17  H3  UNL     1      -2.795  29.522  30.154  1.00  0.00     0.186 HD
ATOM     18  H4  UNL     1      -1.513  28.932  28.058  1.00  0.00     0.188 HD
ENDBRANCH  10  12
ENDBRANCH   5  10
TORSDOF 2
ENDMDL
MODEL 2
REMARK VINA RESULT: -6.058904362      1.946      2.670
REMARK  2 active torsions:
REMARK  status: ('A' for Active; 'I' for Inactive)
REMARK    1  A    between atoms: C2_5  and  N2_6 
REMARK    2  A    between atoms: N2_6  and  C3_8 
ROOT
HETATM    1  O1  UNL     1       1.873  28.270  24.892  1.00  0.00    -0.262 OA
HETATM    2  C1  UNL     1       0.674  28.480  25.178  1.00  0.00     0.316 A 
HETATM    3  N1  UNL     1       0.131  29.037  26.353  1.00  0.00    -0.290 N 
ATOM      4  H1  UNL     1       0.690  29.349  27.147  1.00  0.00     0.172 HD
HETATM    5  C2  UNL     1      -1.154  29.106  26.306  1.00  0.00     0.191 A 
HETATM    6  N5  UNL     1      -1.609  28.592  25.072  1.00  0.00    -0.290 N 
ATOM      7  H5  UNL     1      -2.584  28.529  24.776  1.00  0.00     0.172 HD
HETATM    8  C6  UNL     1      -0.483  28.180  24.316  1.00  0.00     0.316 A 
HETATM    9  O2  UNL     1      -0.479  27.671  23.165  1.00  0.00    -0.262 OA
ENDROOT
BRANCH   5  10
HETATM   10  N2  UNL     1      -1.968  29.629  27.361  1.00  0.00    -0.313 N 
ATOM     11  H2  UNL     1      -2.021  30.639  27.493  1.00  0.00     0.170 HD
BRANCH  10  12
HETATM   12  C3  UNL     1      -2.626  28.871  28.137  1.00  0.00     0.123 A 
HETATM   13  C4  UNL     1      -3.920  28.478  27.945  1.00  0.00     0.068 A 
HETATM   14  C5  UNL     1      -4.275  27.656  29.010  1.00  0.00     0.111 A 
HETATM   15  N3  UNL     1      -3.198  27.577  29.805  1.00  0.00    -0.310 N 
HETATM   16  N4  UNL     1      -2.208  28.314  29.271  1.00  0.00    -0.286 N 
ATOM     17  H3  UNL     1      -3.139  27.045  30.673  1.00  0.00     0.186 HD
ATOM     18  H4  UNL     1      -1.277  28.429  29.673  1.00  0.00     0.188 HD
ENDBRANCH  10  12
ENDBRANCH   5  10
TORSDOF 2
ENDMDL
MODEL 3
REMARK VINA RESULT: -6.031686204      1.926      2.317
REMARK  2 active torsions:
REMARK  status: ('A' for Active; 'I' for Inactive)
REMARK    1  A    between atoms: C2_5  and  N2_6 
REMARK    2  A    between atoms: N2_6  and  C3_8 
ROOT
HETATM    1  O1  UNL     1      -0.300  27.541  23.306  1.00  0.00    -0.262 OA
HETATM    2  C1  UNL     1      -0.313  28.108  24.420  1.00  0.00     0.316 A 
HETATM    3  N1  UNL     1      -1.419  28.532  25.182  1.00  0.00    -0.290 N 
ATOM      4  H1  UNL     1      -2.390  28.416  24.891  1.00  0.00     0.172 HD
HETATM    5  C2  UNL     1      -1.061  29.083  26.289  1.00  0.00     0.191 A 
HETATM    6  N5  UNL     1       0.348  29.084  26.381  1.00  0.00    -0.290 N 
ATOM      7  H5  UNL     1       0.895  29.461  27.156  1.00  0.00     0.172 HD
HETATM    8  C6  UNL     1       0.873  28.473  25.214  1.00  0.00     0.316 A 
HETATM    9  O2  UNL     1       2.085  28.288  24.927  1.00  0.00    -0.262 OA
ENDROOT
BRANCH   5  10
HETATM   10  N2  UNL     1      -1.976  29.606  27.258  1.00  0.00    -0.313 N 
ATOM     11  H2  UNL     1      -2.135  30.612  27.298  1.00  0.00     0.170 HD
BRANCH  10  12
HETATM   12  C3  UNL     1      -2.596  28.851  28.069  1.00  0.00     0.123 A 
HETATM   13  C4  UNL     1      -3.915  28.512  27.979  1.00  0.00     0.068 A 
HETATM   14  C5  UNL     1      -4.210  27.674  29.050  1.00  0.00     0.111 A 
HETATM   15  N3  UNL     1      -3.073  27.533  29.748  1.00  0.00    -0.310 N 
HETATM   16  N4  UNL     1      -2.104  28.248  29.148  1.00  0.00    -0.286 N 
ATOM     17  H3  UNL     1      -2.962  26.975  30.594  1.00  0.00     0.186 HD
ATOM     18  H4  UNL     1      -1.139  28.317  29.471  1.00  0.00     0.188 HD
ENDBRANCH  10  12
ENDBRANCH   5  10
TORSDOF 2
ENDMDL
MODEL 4
REMARK VINA RESULT: -6.018751008      0.968      1.885
REMARK  2 active torsions:
REMARK  status: ('A' for Active; 'I' for Inactive)
REMARK    1  A    between atoms: C2_5  and  N2_6 
REMARK    2  A    between atoms: N2_6  and  C3_8 
ROOT
HETATM    1  O1  UNL     1       1.559  28.995  24.688  1.00  0.00    -0.262 OA
HETATM    2  C1  UNL     1       0.626  28.259  25.077  1.00  0.00     0.316 A 
HETATM    3  N1  UNL     1       0.392  27.735  26.363  1.00  0.00    -0.290 N 
ATOM      4  H1  UNL     1       0.996  27.908  27.167  1.00  0.00     0.172 HD
HETATM    5  C2  UNL     1      -0.672  27.012  26.404  1.00  0.00     0.191 A 
HETATM    6  N5  UNL     1      -1.270  26.978  25.126  1.00  0.00    -0.290 N 
ATOM      7  H5  UNL     1      -2.124  26.477  24.879  1.00  0.00     0.172 HD
HETATM    8  C6  UNL     1      -0.481  27.759  24.243  1.00  0.00     0.316 A 
HETATM    9  O2  UNL     1      -0.686  27.971  23.019  1.00  0.00    -0.262 OA
ENDROOT
BRANCH   5  10
HETATM   10  N2  UNL     1      -1.150  26.355  27.583  1.00  0.00    -0.313 N 
ATOM     11  H2  UNL     1      -1.026  25.347  27.674  1.00  0.00     0.170 HD
BRANCH  10  12
HETATM   12  C3  UNL     1      -1.725  26.993  28.519  1.00  0.00     0.123 A 
HETATM   13  C4  UNL     1      -2.269  26.430  29.638  1.00  0.00     0.068 A 
HETATM   14  C5  UNL     1      -2.798  27.458  30.412  1.00  0.00     0.111 A 
HETATM   15  N3  UNL     1      -2.562  28.597  29.746  1.00  0.00    -0.310 N 
HETATM   16  N4  UNL     1      -1.914  28.307  28.604  1.00  0.00    -0.286 N 
ATOM     17  H3  UNL     1      -2.829  29.532  30.055  1.00  0.00     0.186 HD
ATOM     18  H4  UNL     1      -1.612  28.990  27.908  1.00  0.00     0.188 HD
ENDBRANCH  10  12
ENDBRANCH   5  10
TORSDOF 2
ENDMDL
MODEL 5
REMARK VINA RESULT: -6.003442883      0.090      1.566
REMARK  2 active torsions:
REMARK  status: ('A' for Active; 'I' for Inactive)
REMARK    1  A    between atoms: C2_5  and  N2_6 
REMARK    2  A    between atoms: N2_6  and  C3_8 
ROOT
HETATM    1  O1  UNL     1      -0.277  28.431  23.527  1.00  0.00    -0.262 OA
HETATM    2  C1  UNL     1      -0.802  27.702  24.396  1.00  0.00     0.316 A 
HETATM    3  N1  UNL     1      -0.438  27.536  25.747  1.00  0.00    -0.290 N 
ATOM      4  H1  UNL     1       0.341  28.022  26.191  1.00  0.00     0.172 HD
HETATM    5  C2  UNL     1      -1.204  26.699  26.355  1.00  0.00     0.191 A 
HETATM    6  N5  UNL     1      -2.177  26.211  25.456  1.00  0.00    -0.290 N 
ATOM      7  H5  UNL     1      -2.908  25.534  25.677  1.00  0.00     0.172 HD
HETATM    8  C6  UNL     1      -1.964  26.819  24.193  1.00  0.00     0.316 A 
HETATM    9  O2  UNL     1      -2.625  26.640  23.136  1.00  0.00    -0.262 OA
ENDROOT
BRANCH   5  10
HETATM   10  N2  UNL     1      -1.065  26.339  27.734  1.00  0.00    -0.313 N 
ATOM     11  H2  UNL     1      -0.455  25.561  27.984  1.00  0.00     0.170 HD
BRANCH  10  12
HETATM   12  C3  UNL     1      -1.679  26.963  28.653  1.00  0.00     0.123 A 
HETATM   13  C4  UNL     1      -2.275  26.383  29.737  1.00  0.00     0.068 A 
HETATM   14  C5  UNL     1      -2.836  27.399  30.504  1.00  0.00     0.111 A 
HETATM   15  N3  UNL     1      -2.566  28.549  29.870  1.00  0.00    -0.310 N 
HETATM   16  N4  UNL     1      -1.868  28.276  28.753  1.00  0.00    -0.286 N 
ATOM     17  H3  UNL     1      -2.845  29.479  30.183  1.00  0.00     0.186 HD
ATOM     18  H4  UNL     1      -1.534  28.970  28.084  1.00  0.00     0.188 HD
ENDBRANCH  10  12
ENDBRANCH   5  10
TORSDOF 2
ENDMDL
