MODEL 1
REMARK VINA RESULT: -8.636050803      0.000      0.000
REMARK  10 active torsions:
REMARK  status: ('A' for Active; 'I' for Inactive)
REMARK    1  A    between atoms: N3_4  and  C2_6 
REMARK    2  A    between atoms: C2_6  and  C3_7 
REMARK    3  A    between atoms: C3_7  and  C4_8 
REMARK    4  A    between atoms: C4_8  and  C5_9 
REMARK    5  A    between atoms: C5_9  and  C6_10 
REMARK    6  A    between atoms: C5_9  and  N7_23 
REMARK    7  A    between atoms: C6_10  and  C7_11 
REMARK    8  A    between atoms: C7_11  and  C8_12 
REMARK    9  A    between atoms: C8_12  and  N4_13 
REMARK       I    between atoms: C9_15  and  N6_17 
REMARK       I    between atoms: N7_23  and  C15_25 
REMARK       I    between atoms: C15_25  and  N8_27 
REMARK   10  A    between atoms: N8_27  and  C16_29 
ROOT
HETATM    1  C5  UNL     1      74.021  51.614   7.544  1.00  0.00     0.086 C 
ENDROOT
BRANCH   1   2
HETATM    2  C4  UNL     1      73.303  50.314   7.707  1.00  0.00     0.027 C 
BRANCH   2   3
HETATM    3  C3  UNL     1      73.113  49.556   6.422  1.00  0.00     0.022 C 
BRANCH   3   4
HETATM    4  C2  UNL     1      71.830  48.739   6.583  1.00  0.00     0.122 C 
BRANCH   4   5
HETATM    5  N3  UNL     1      72.069  47.340   6.405  1.00  0.00    -0.367 N 
HETATM    6  C1  UNL     1      72.128  46.491   7.375  1.00  0.00     0.196 C 
HETATM    7  N1  UNL     1      71.954  46.891   8.726  1.00  0.00    -0.067 NA
HETATM    8  N2  UNL     1      72.369  45.117   7.126  1.00  0.00    -0.067 NA
ATOM      9  H3  UNL     1      72.202  46.993   5.455  1.00  0.00     0.161 HD
ENDBRANCH   4   5
ENDBRANCH   3   4
ENDBRANCH   2   3
ENDBRANCH   1   2
BRANCH   1  10
HETATM   10  C6  UNL     1      75.427  51.494   7.075  1.00  0.00     0.027 C 
BRANCH  10  11
HETATM   11  C7  UNL     1      76.410  51.919   8.142  1.00  0.00     0.022 C 
BRANCH  11  12
HETATM   12  C8  UNL     1      77.152  53.164   7.708  1.00  0.00     0.122 C 
BRANCH  12  13
HETATM   13  N4  UNL     1      77.143  54.095   8.798  1.00  0.00    -0.365 N 
HETATM   14  C9  UNL     1      77.384  55.350   8.687  1.00  0.00     0.186 C 
HETATM   15  N5  UNL     1      77.691  55.961   7.452  1.00  0.00    -0.064 NA
HETATM   16  N6  UNL     1      77.340  56.151   9.853  1.00  0.00    -0.356 N 
HETATM   17  C10 UNL     1      76.032  56.434  10.414  1.00  0.00     0.125 C 
HETATM   18  C14 UNL     1      78.523  56.688  10.494  1.00  0.00     0.125 C 
HETATM   19  C11 UNL     1      76.224  57.163  11.725  1.00  0.00     0.020 C 
HETATM   20  C12 UNL     1      77.011  58.433  11.475  1.00  0.00     0.003 C 
HETATM   21  C13 UNL     1      78.269  58.179  10.688  1.00  0.00     0.020 C 
ATOM     22  H4  UNL     1      76.930  53.734   9.728  1.00  0.00     0.162 HD
ENDBRANCH  12  13
ENDBRANCH  11  12
ENDBRANCH  10  11
ENDBRANCH   1  10
BRANCH   1  23
HETATM   23  N7  UNL     1      74.010  52.291   8.826  1.00  0.00    -0.338 N 
HETATM   24  C15 UNL     1      73.428  53.604   8.966  1.00  0.00     0.322 C 
HETATM   25  O1  UNL     1      72.918  54.184   7.972  1.00  0.00    -0.247 OA
HETATM   26  N8  UNL     1      73.401  54.288  10.189  1.00  0.00    -0.289 N 
ATOM     27  H8  UNL     1      74.281  54.557  10.628  1.00  0.00     0.172 HD
ATOM     28  H7  UNL     1      74.420  51.833   9.639  1.00  0.00     0.164 HD
BRANCH  26  29
HETATM   29  C16 UNL     1      72.275  54.589  10.780  1.00  0.00     0.152 A 
HETATM   30  N9  UNL     1      71.052  54.269  10.368  1.00  0.00    -0.346 N 
HETATM   31  C17 UNL     1      70.033  54.655  11.088  1.00  0.00     0.097 A 
ATOM     32  H9  UNL     1      70.913  53.735   9.510  1.00  0.00     0.167 HD
HETATM   33  C18 UNL     1      70.286  55.369  12.228  1.00  0.00     0.070 A 
HETATM   34  S1  UNL     1      71.992  55.456  12.218  1.00  0.00    -0.064 SA
ENDBRANCH  26  29
ENDBRANCH   1  23
TORSDOF 10
ENDMDL
MODEL 2
REMARK VINA RESULT: -8.471315449      2.867      6.092
REMARK  10 active torsions:
REMARK  status: ('A' for Active; 'I' for Inactive)
REMARK    1  A    between atoms: N3_4  and  C2_6 
REMARK    2  A    between atoms: C2_6  and  C3_7 
REMARK    3  A    between atoms: C3_7  and  C4_8 
REMARK    4  A    between atoms: C4_8  and  C5_9 
REMARK    5  A    between atoms: C5_9  and  C6_10 
REMARK    6  A    between atoms: C5_9  and  N7_23 
REMARK    7  A    between atoms: C6_10  and  C7_11 
REMARK    8  A    between atoms: C7_11  and  C8_12 
REMARK    9  A    between atoms: C8_12  and  N4_13 
REMARK       I    between atoms: C9_15  and  N6_17 
REMARK       I    between atoms: N7_23  and  C15_25 
REMARK       I    between atoms: C15_25  and  N8_27 
REMARK   10  A    between atoms: N8_27  and  C16_29 
ROOT
HETATM    1  C5  UNL     1      73.915  51.667   7.874  1.00  0.00     0.086 C 
ENDROOT
BRANCH   1   2
HETATM    2  C4  UNL     1      72.984  50.511   8.040  1.00  0.00     0.027 C 
BRANCH   2   3
HETATM    3  C3  UNL     1      72.999  49.544   6.888  1.00  0.00     0.022 C 
BRANCH   3   4
HETATM    4  C2  UNL     1      71.756  48.665   7.040  1.00  0.00     0.122 C 
BRANCH   4   5
HETATM    5  N3  UNL     1      72.027  47.304   6.687  1.00  0.00    -0.367 N 
HETATM    6  C1  UNL     1      72.077  46.337   7.539  1.00  0.00     0.196 C 
HETATM    7  N1  UNL     1      71.862  46.553   8.925  1.00  0.00    -0.067 NA
HETATM    8  N2  UNL     1      72.351  45.011   7.119  1.00  0.00    -0.067 NA
ATOM      9  H3  UNL     1      72.190  47.087   5.704  1.00  0.00     0.161 HD
ENDBRANCH   4   5
ENDBRANCH   3   4
ENDBRANCH   2   3
ENDBRANCH   1   2
BRANCH   1  10
HETATM   10  C6  UNL     1      75.304  51.298   7.494  1.00  0.00     0.027 C 
BRANCH  10  11
HETATM   11  C7  UNL     1      76.014  52.437   6.796  1.00  0.00     0.022 C 
BRANCH  11  12
HETATM   12  C8  UNL     1      75.596  52.505   5.344  1.00  0.00     0.122 C 
BRANCH  12  13
HETATM   13  N4  UNL     1      75.911  51.250   4.727  1.00  0.00    -0.365 N 
HETATM   14  C9  UNL     1      75.115  50.592   3.964  1.00  0.00     0.186 C 
HETATM   15  N5  UNL     1      73.817  51.045   3.646  1.00  0.00    -0.064 NA
HETATM   16  N6  UNL     1      75.563  49.363   3.424  1.00  0.00    -0.356 N 
HETATM   17  C10 UNL     1      76.555  49.425   2.366  1.00  0.00     0.125 C 
HETATM   18  C14 UNL     1      75.080  48.074   3.875  1.00  0.00     0.125 C 
HETATM   19  C11 UNL     1      76.999  48.015   2.048  1.00  0.00     0.020 C 
HETATM   20  C12 UNL     1      75.793  47.196   1.636  1.00  0.00     0.003 C 
HETATM   21  C13 UNL     1      74.664  47.308   2.624  1.00  0.00     0.020 C 
ATOM     22  H4  UNL     1      76.833  50.851   4.907  1.00  0.00     0.162 HD
ENDBRANCH  12  13
ENDBRANCH  11  12
ENDBRANCH  10  11
ENDBRANCH   1  10
BRANCH   1  23
HETATM   23  N7  UNL     1      73.949  52.394   9.128  1.00  0.00    -0.338 N 
HETATM   24  C15 UNL     1      73.383  53.717   9.234  1.00  0.00     0.322 C 
HETATM   25  O1  UNL     1      72.849  54.263   8.234  1.00  0.00    -0.247 OA
HETATM   26  N8  UNL     1      73.399  54.448  10.430  1.00  0.00    -0.289 N 
ATOM     27  H8  UNL     1      74.295  54.724  10.832  1.00  0.00     0.172 HD
ATOM     28  H7  UNL     1      74.379  51.963   9.947  1.00  0.00     0.164 HD
BRANCH  26  29
HETATM   29  C16 UNL     1      72.295  54.783  11.042  1.00  0.00     0.152 A 
HETATM   30  N9  UNL     1      71.057  54.453  10.684  1.00  0.00    -0.346 N 
HETATM   31  C17 UNL     1      70.064  54.879  11.417  1.00  0.00     0.097 A 
ATOM     32  H9  UNL     1      70.888  53.881   9.857  1.00  0.00     0.167 HD
HETATM   33  C18 UNL     1      70.357  55.643  12.514  1.00  0.00     0.070 A 
HETATM   34  S1  UNL     1      72.062  55.718  12.446  1.00  0.00    -0.064 SA
ENDBRANCH  26  29
ENDBRANCH   1  23
TORSDOF 10
ENDMDL
MODEL 3
REMARK VINA RESULT: -8.442645133      3.075      6.137
REMARK  10 active torsions:
REMARK  status: ('A' for Active; 'I' for Inactive)
REMARK    1  A    between atoms: N3_4  and  C2_6 
REMARK    2  A    between atoms: C2_6  and  C3_7 
REMARK    3  A    between atoms: C3_7  and  C4_8 
REMARK    4  A    between atoms: C4_8  and  C5_9 
REMARK    5  A    between atoms: C5_9  and  C6_10 
REMARK    6  A    between atoms: C5_9  and  N7_23 
REMARK    7  A    between atoms: C6_10  and  C7_11 
REMARK    8  A    between atoms: C7_11  and  C8_12 
REMARK    9  A    between atoms: C8_12  and  N4_13 
REMARK       I    between atoms: C9_15  and  N6_17 
REMARK       I    between atoms: N7_23  and  C15_25 
REMARK       I    between atoms: C15_25  and  N8_27 
REMARK   10  A    between atoms: N8_27  and  C16_29 
ROOT
HETATM    1  C5  UNL     1      73.728  51.675   7.168  1.00  0.00     0.086 C 
ENDROOT
BRANCH   1   2
HETATM    2  C4  UNL     1      72.435  50.967   6.931  1.00  0.00     0.027 C 
BRANCH   2   3
HETATM    3  C3  UNL     1      72.299  49.672   7.685  1.00  0.00     0.022 C 
BRANCH   3   4
HETATM    4  C2  UNL     1      71.663  48.670   6.721  1.00  0.00     0.122 C 
BRANCH   4   5
HETATM    5  N3  UNL     1      71.536  47.375   7.315  1.00  0.00    -0.367 N 
HETATM    6  C1  UNL     1      72.441  46.459   7.244  1.00  0.00     0.196 C 
HETATM    7  N1  UNL     1      73.663  46.672   6.555  1.00  0.00    -0.067 NA
HETATM    8  N2  UNL     1      72.249  45.196   7.858  1.00  0.00    -0.067 NA
ATOM      9  H3  UNL     1      70.678  47.163   7.825  1.00  0.00     0.161 HD
ENDBRANCH   4   5
ENDBRANCH   3   4
ENDBRANCH   2   3
ENDBRANCH   1   2
BRANCH   1  10
HETATM   10  C6  UNL     1      74.942  50.850   6.929  1.00  0.00     0.027 C 
BRANCH  10  11
HETATM   11  C7  UNL     1      76.209  51.628   7.204  1.00  0.00     0.022 C 
BRANCH  11  12
HETATM   12  C8  UNL     1      77.256  51.316   6.157  1.00  0.00     0.122 C 
BRANCH  12  13
HETATM   13  N4  UNL     1      76.630  50.568   5.106  1.00  0.00    -0.365 N 
HETATM   14  C9  UNL     1      77.230  49.709   4.366  1.00  0.00     0.186 C 
HETATM   15  N5  UNL     1      78.600  49.403   4.511  1.00  0.00    -0.064 NA
HETATM   16  N6  UNL     1      76.483  49.044   3.365  1.00  0.00    -0.356 N 
HETATM   17  C10 UNL     1      75.538  48.034   3.802  1.00  0.00     0.125 C 
HETATM   18  C14 UNL     1      76.622  49.326   1.950  1.00  0.00     0.125 C 
HETATM   19  C11 UNL     1      74.748  47.568   2.600  1.00  0.00     0.020 C 
HETATM   20  C12 UNL     1      75.704  47.025   1.559  1.00  0.00     0.003 C 
HETATM   21  C13 UNL     1      76.827  47.982   1.261  1.00  0.00     0.020 C 
ATOM     22  H4  UNL     1      75.637  50.731   4.935  1.00  0.00     0.162 HD
ENDBRANCH  12  13
ENDBRANCH  11  12
ENDBRANCH  10  11
ENDBRANCH   1  10
BRANCH   1  23
HETATM   23  N7  UNL     1      73.738  52.136   8.542  1.00  0.00    -0.338 N 
HETATM   24  C15 UNL     1      73.402  53.501   8.869  1.00  0.00     0.322 C 
HETATM   25  O1  UNL     1      73.095  54.316   7.961  1.00  0.00    -0.247 OA
HETATM   26  N8  UNL     1      73.401  53.980  10.186  1.00  0.00    -0.289 N 
ATOM     27  H8  UNL     1      74.277  53.998  10.709  1.00  0.00     0.172 HD
ATOM     28  H7  UNL     1      73.985  51.486   9.288  1.00  0.00     0.164 HD
BRANCH  26  29
HETATM   29  C16 UNL     1      72.307  54.404  10.760  1.00  0.00     0.152 A 
HETATM   30  N9  UNL     1      71.059  54.148  10.376  1.00  0.00    -0.346 N 
HETATM   31  C17 UNL     1      70.079  54.658  11.072  1.00  0.00     0.097 A 
ATOM     32  H9  UNL     1      70.873  53.568   9.559  1.00  0.00     0.167 HD
HETATM   33  C18 UNL     1      70.395  55.429  12.158  1.00  0.00     0.070 A 
HETATM   34  S1  UNL     1      72.102  55.388  12.134  1.00  0.00    -0.064 SA
ENDBRANCH  26  29
ENDBRANCH   1  23
TORSDOF 10
ENDMDL
MODEL 4
REMARK VINA RESULT: -8.411733109      0.860      1.080
REMARK  10 active torsions:
REMARK  status: ('A' for Active; 'I' for Inactive)
REMARK    1  A    between atoms: N3_4  and  C2_6 
REMARK    2  A    between atoms: C2_6  and  C3_7 
REMARK    3  A    between atoms: C3_7  and  C4_8 
REMARK    4  A    between atoms: C4_8  and  C5_9 
REMARK    5  A    between atoms: C5_9  and  C6_10 
REMARK    6  A    between atoms: C5_9  and  N7_23 
REMARK    7  A    between atoms: C6_10  and  C7_11 
REMARK    8  A    between atoms: C7_11  and  C8_12 
REMARK    9  A    between atoms: C8_12  and  N4_13 
REMARK       I    between atoms: C9_15  and  N6_17 
REMARK       I    between atoms: N7_23  and  C15_25 
REMARK       I    between atoms: C15_25  and  N8_27 
REMARK   10  A    between atoms: N8_27  and  C16_29 
ROOT
HETATM    1  C5  UNL     1      74.593  51.833   7.532  1.00  0.00     0.086 C 
ENDROOT
BRANCH   1   2
HETATM    2  C4  UNL     1      73.724  50.627   7.683  1.00  0.00     0.027 C 
BRANCH   2   3
HETATM    3  C3  UNL     1      72.393  50.742   6.993  1.00  0.00     0.022 C 
BRANCH   3   4
HETATM    4  C2  UNL     1      72.263  49.516   6.088  1.00  0.00     0.122 C 
BRANCH   4   5
HETATM    5  N3  UNL     1      72.323  48.298   6.838  1.00  0.00    -0.367 N 
HETATM    6  C1  UNL     1      73.033  47.277   6.496  1.00  0.00     0.196 C 
HETATM    7  N1  UNL     1      73.830  47.284   5.322  1.00  0.00    -0.067 NA
HETATM    8  N2  UNL     1      73.046  46.102   7.287  1.00  0.00    -0.067 NA
ATOM      9  H3  UNL     1      71.771  48.234   7.694  1.00  0.00     0.161 HD
ENDBRANCH   4   5
ENDBRANCH   3   4
ENDBRANCH   2   3
ENDBRANCH   1   2
BRANCH   1  10
HETATM   10  C6  UNL     1      76.021  51.539   7.245  1.00  0.00     0.027 C 
BRANCH  10  11
HETATM   11  C7  UNL     1      76.943  52.242   8.216  1.00  0.00     0.022 C 
BRANCH  11  12
HETATM   12  C8  UNL     1      77.461  53.528   7.611  1.00  0.00     0.122 C 
BRANCH  12  13
HETATM   13  N4  UNL     1      77.611  54.490   8.664  1.00  0.00    -0.365 N 
HETATM   14  C9  UNL     1      77.068  55.653   8.672  1.00  0.00     0.186 C 
HETATM   15  N5  UNL     1      76.248  56.118   7.622  1.00  0.00    -0.064 NA
HETATM   16  N6  UNL     1      77.305  56.499   9.781  1.00  0.00    -0.356 N 
HETATM   17  C10 UNL     1      76.644  56.161  11.028  1.00  0.00     0.125 C 
HETATM   18  C14 UNL     1      78.164  57.665   9.723  1.00  0.00     0.125 C 
HETATM   19  C11 UNL     1      77.152  57.093  12.105  1.00  0.00     0.020 C 
HETATM   20  C12 UNL     1      76.873  58.524  11.694  1.00  0.00     0.003 C 
HETATM   21  C13 UNL     1      77.359  58.823  10.301  1.00  0.00     0.020 C 
ATOM     22  H4  UNL     1      78.191  54.232   9.463  1.00  0.00     0.162 HD
ENDBRANCH  12  13
ENDBRANCH  11  12
ENDBRANCH  10  11
ENDBRANCH   1  10
BRANCH   1  23
HETATM   23  N7  UNL     1      74.509  52.598   8.760  1.00  0.00    -0.338 N 
HETATM   24  C15 UNL     1      73.691  53.784   8.841  1.00  0.00     0.322 C 
HETATM   25  O1  UNL     1      73.035  54.175   7.840  1.00  0.00    -0.247 OA
HETATM   26  N8  UNL     1      73.588  54.548  10.012  1.00  0.00    -0.289 N 
ATOM     27  H8  UNL     1      74.418  55.013  10.377  1.00  0.00     0.172 HD
ATOM     28  H7  UNL     1      75.036  52.294   9.579  1.00  0.00     0.164 HD
BRANCH  26  29
HETATM   29  C16 UNL     1      72.453  54.678  10.646  1.00  0.00     0.152 A 
HETATM   30  N9  UNL     1      71.259  54.263  10.230  1.00  0.00    -0.346 N 
HETATM   31  C17 UNL     1      70.225  54.479  10.998  1.00  0.00     0.097 A 
ATOM     32  H9  UNL     1      71.154  53.788   9.334  1.00  0.00     0.167 HD
HETATM   33  C18 UNL     1      70.432  55.121  12.189  1.00  0.00     0.070 A 
HETATM   34  S1  UNL     1      72.118  55.391  12.155  1.00  0.00    -0.064 SA
ENDBRANCH  26  29
ENDBRANCH   1  23
TORSDOF 10
ENDMDL
MODEL 5
REMARK VINA RESULT: -8.239487986      2.786      8.402
REMARK  10 active torsions:
REMARK  status: ('A' for Active; 'I' for Inactive)
REMARK    1  A    between atoms: N3_4  and  C2_6 
REMARK    2  A    between atoms: C2_6  and  C3_7 
REMARK    3  A    between atoms: C3_7  and  C4_8 
REMARK    4  A    between atoms: C4_8  and  C5_9 
REMARK    5  A    between atoms: C5_9  and  C6_10 
REMARK    6  A    between atoms: C5_9  and  N7_23 
REMARK    7  A    between atoms: C6_10  and  C7_11 
REMARK    8  A    between atoms: C7_11  and  C8_12 
REMARK    9  A    between atoms: C8_12  and  N4_13 
REMARK       I    between atoms: C9_15  and  N6_17 
REMARK       I    between atoms: N7_23  and  C15_25 
REMARK       I    between atoms: C15_25  and  N8_27 
REMARK   10  A    between atoms: N8_27  and  C16_29 
ROOT
HETATM    1  C5  UNL     1      72.035  53.046   9.313  1.00  0.00     0.086 C 
ENDROOT
BRANCH   1   2
HETATM    2  C4  UNL     1      71.619  54.232  10.121  1.00  0.00     0.027 C 
BRANCH   2   3
HETATM    3  C3  UNL     1      71.759  54.040  11.606  1.00  0.00     0.022 C 
BRANCH   3   4
HETATM    4  C2  UNL     1      71.911  55.435  12.214  1.00  0.00     0.122 C 
BRANCH   4   5
HETATM    5  N3  UNL     1      73.251  55.673  12.657  1.00  0.00    -0.367 N 
HETATM    6  C1  UNL     1      73.620  56.732  13.295  1.00  0.00     0.196 C 
HETATM    7  N1  UNL     1      72.702  57.766  13.615  1.00  0.00    -0.067 NA
HETATM    8  N2  UNL     1      74.966  56.902  13.706  1.00  0.00    -0.067 NA
ATOM      9  H3  UNL     1      73.956  54.964  12.457  1.00  0.00     0.161 HD
ENDBRANCH   4   5
ENDBRANCH   3   4
ENDBRANCH   2   3
ENDBRANCH   1   2
BRANCH   1  10
HETATM   10  C6  UNL     1      71.469  51.751   9.773  1.00  0.00     0.027 C 
BRANCH  10  11
HETATM   11  C7  UNL     1      72.429  50.606   9.535  1.00  0.00     0.022 C 
BRANCH  11  12
HETATM   12  C8  UNL     1      71.869  49.657   8.500  1.00  0.00     0.122 C 
BRANCH  12  13
HETATM   13  N4  UNL     1      72.901  49.378   7.544  1.00  0.00    -0.365 N 
HETATM   14  C9  UNL     1      72.695  49.118   6.304  1.00  0.00     0.186 C 
HETATM   15  N5  UNL     1      71.403  49.079   5.738  1.00  0.00    -0.064 NA
HETATM   16  N6  UNL     1      73.813  48.861   5.475  1.00  0.00    -0.356 N 
HETATM   17  C10 UNL     1      74.649  49.992   5.118  1.00  0.00     0.125 C 
HETATM   18  C14 UNL     1      74.148  47.542   4.979  1.00  0.00     0.125 C 
HETATM   19  C11 UNL     1      75.855  49.475   4.368  1.00  0.00     0.020 C 
HETATM   20  C12 UNL     1      75.389  48.716   3.142  1.00  0.00     0.003 C 
HETATM   21  C13 UNL     1      74.345  47.684   3.474  1.00  0.00     0.020 C 
ATOM     22  H4  UNL     1      73.866  49.385   7.872  1.00  0.00     0.162 HD
ENDBRANCH  12  13
ENDBRANCH  11  12
ENDBRANCH  10  11
ENDBRANCH   1  10
BRANCH   1  23
HETATM   23  N7  UNL     1      73.482  52.967   9.353  1.00  0.00    -0.338 N 
HETATM   24  C15 UNL     1      74.278  53.347   8.210  1.00  0.00     0.322 C 
HETATM   25  O1  UNL     1      73.724  53.754   7.156  1.00  0.00    -0.247 OA
HETATM   26  N8  UNL     1      75.678  53.282   8.214  1.00  0.00    -0.289 N 
ATOM     27  H8  UNL     1      76.133  52.375   8.316  1.00  0.00     0.172 HD
ATOM     28  H7  UNL     1      73.944  52.638  10.200  1.00  0.00     0.164 HD
BRANCH  26  29
HETATM   29  C16 UNL     1      76.413  54.355   8.090  1.00  0.00     0.152 A 
HETATM   30  N9  UNL     1      76.881  55.115   9.077  1.00  0.00    -0.346 N 
HETATM   31  C17 UNL     1      77.605  56.157   8.768  1.00  0.00     0.097 A 
ATOM     32  H9  UNL     1      76.680  54.888  10.051  1.00  0.00     0.167 HD
HETATM   33  C18 UNL     1      77.838  56.406   7.442  1.00  0.00     0.070 A 
HETATM   34  S1  UNL     1      77.002  55.122   6.689  1.00  0.00    -0.064 SA
ENDBRANCH  26  29
ENDBRANCH   1  23
TORSDOF 10
ENDMDL
