MODEL 1
REMARK VINA RESULT: -9.001835627      0.000      0.000
REMARK  9 active torsions:
REMARK  status: ('A' for Active; 'I' for Inactive)
REMARK    1  A    between atoms: N1_4  and  S1_5 
REMARK    2  A    between atoms: S1_5  and  N2_8 
REMARK       I    between atoms: N2_8  and  C4_10 
REMARK       I    between atoms: C4_10  and  N4_14 
REMARK    3  A    between atoms: N4_14  and  C5_16 
REMARK    4  A    between atoms: C5_16  and  C6_17 
REMARK    5  A    between atoms: C6_17  and  C7_18 
REMARK    6  A    between atoms: C7_18  and  C8_19 
REMARK    7  A    between atoms: C8_19  and  C9_20 
REMARK    8  A    between atoms: C9_20  and  C10_21 
REMARK       I    between atoms: C10_21  and  N5_23 
REMARK    9  A    between atoms: N5_23  and  C11_25 
ROOT
HETATM    1  C6  UNL     1      77.961  53.832   8.001  1.00  0.00     0.020 C 
ENDROOT
BRANCH   1   2
HETATM    2  C5  UNL     1      77.119  54.852   8.757  1.00  0.00     0.138 C 
BRANCH   2   3
HETATM    3  N4  UNL     1      77.917  56.016   9.059  1.00  0.00    -0.226 N 
HETATM    4  C4  UNL     1      77.931  56.509  10.381  1.00  0.00     0.682 C 
HETATM    5  N2  UNL     1      76.832  56.266  11.225  1.00  0.00    -0.104 N 
HETATM    6  N3  UNL     1      78.948  57.173  10.790  1.00  0.00    -0.234 N 
ATOM      7  H2  UNL     1      76.282  55.419  11.076  1.00  0.00     0.198 HD
ATOM      8  H32 UNL     1      78.958  57.530  11.746  1.00  0.00     0.174 HD
ATOM      9  H31 UNL     1      79.745  57.349  10.179  1.00  0.00     0.174 HD
ATOM     10  H4  UNL     1      78.462  56.475   8.329  1.00  0.00     0.177 HD
BRANCH   5  11
HETATM   11  S1  UNL     1      76.373  57.323  12.488  1.00  0.00     0.317 S 
HETATM   12  O1  UNL     1      77.569  57.542  13.380  1.00  0.00    -0.188 OA
HETATM   13  O2  UNL     1      75.971  58.655  11.922  1.00  0.00    -0.188 OA
BRANCH  11  14
HETATM   14  N1  UNL     1      75.101  56.750  13.464  1.00  0.00    -0.186 NA
HETATM   15  C2  UNL     1      73.747  56.671  12.795  1.00  0.00     0.086 A 
HETATM   16  C1  UNL     1      72.710  57.348  13.664  1.00  0.00     0.029 C 
HETATM   17  C3  UNL     1      74.463  55.491  13.231  1.00  0.00     0.130 A 
ENDBRANCH  11  14
ENDBRANCH   5  11
ENDBRANCH   2   3
ENDBRANCH   1   2
BRANCH   1  18
HETATM   18  C7  UNL     1      77.290  52.501   8.041  1.00  0.00     0.002 C 
BRANCH  18  19
HETATM   19  C8  UNL     1      75.838  52.611   7.706  1.00  0.00     0.009 C 
BRANCH  19  20
HETATM   20  C9  UNL     1      75.002  51.485   8.231  1.00  0.00     0.103 C 
BRANCH  20  21
HETATM   21  C10 UNL     1      74.358  50.710   7.148  1.00  0.00     0.218 C 
HETATM   22  O3  UNL     1      73.224  50.221   7.355  1.00  0.00    -0.274 OA
HETATM   23  N5  UNL     1      74.993  50.521   5.916  1.00  0.00    -0.352 N 
ATOM     24  H5  UNL     1      75.917  50.935   5.794  1.00  0.00     0.163 HD
BRANCH  23  25
HETATM   25  C11 UNL     1      74.442  49.785   4.803  1.00  0.00     0.034 C 
HETATM   26  C12 UNL     1      75.480  49.807   3.681  1.00  0.00     0.035 C 
HETATM   27  C13 UNL     1      74.982  49.045   2.490  1.00  0.00    -0.012 C 
HETATM   28  C14 UNL     1      73.747  49.769   1.985  1.00  0.00     0.009 C 
HETATM   29  C18 UNL     1      74.686  47.617   2.842  1.00  0.00     0.009 C 
HETATM   30  C15 UNL     1      72.705  49.682   3.057  1.00  0.00    -0.012 C 
HETATM   31  C16 UNL     1      72.397  48.259   3.449  1.00  0.00     0.009 C 
HETATM   32  C20 UNL     1      73.168  50.432   4.289  1.00  0.00     0.035 C 
HETATM   33  C17 UNL     1      73.663  47.614   3.961  1.00  0.00    -0.012 C 
HETATM   34  C19 UNL     1      74.227  48.330   5.155  1.00  0.00     0.035 C 
ENDBRANCH  23  25
ENDBRANCH  20  21
ENDBRANCH  19  20
ENDBRANCH  18  19
ENDBRANCH   1  18
TORSDOF 9
ENDMDL
MODEL 2
REMARK VINA RESULT: -8.961101693      2.799      4.226
REMARK  9 active torsions:
REMARK  status: ('A' for Active; 'I' for Inactive)
REMARK    1  A    between atoms: N1_4  and  S1_5 
REMARK    2  A    between atoms: S1_5  and  N2_8 
REMARK       I    between atoms: N2_8  and  C4_10 
REMARK       I    between atoms: C4_10  and  N4_14 
REMARK    3  A    between atoms: N4_14  and  C5_16 
REMARK    4  A    between atoms: C5_16  and  C6_17 
REMARK    5  A    between atoms: C6_17  and  C7_18 
REMARK    6  A    between atoms: C7_18  and  C8_19 
REMARK    7  A    between atoms: C8_19  and  C9_20 
REMARK    8  A    between atoms: C9_20  and  C10_21 
REMARK       I    between atoms: C10_21  and  N5_23 
REMARK    9  A    between atoms: N5_23  and  C11_25 
ROOT
HETATM    1  C6  UNL     1      70.626  52.529  11.004  1.00  0.00     0.020 C 
ENDROOT
BRANCH   1   2
HETATM    2  C5  UNL     1      70.142  53.973  10.989  1.00  0.00     0.138 C 
BRANCH   2   3
HETATM    3  N4  UNL     1      70.164  54.509  12.329  1.00  0.00    -0.226 N 
HETATM    4  C4  UNL     1      71.111  55.506  12.649  1.00  0.00     0.682 C 
HETATM    5  N2  UNL     1      72.315  55.579  11.925  1.00  0.00    -0.104 N 
HETATM    6  N3  UNL     1      70.858  56.328  13.599  1.00  0.00    -0.234 N 
ATOM      7  H2  UNL     1      72.319  55.263  10.954  1.00  0.00     0.198 HD
ATOM      8  H32 UNL     1      71.542  57.048  13.830  1.00  0.00     0.174 HD
ATOM      9  H31 UNL     1      69.984  56.276  14.124  1.00  0.00     0.174 HD
ATOM     10  H4  UNL     1      69.506  54.175  13.032  1.00  0.00     0.177 HD
BRANCH   5  11
HETATM   11  S1  UNL     1      73.772  56.171  12.593  1.00  0.00     0.317 S 
HETATM   12  O1  UNL     1      73.430  57.227  13.614  1.00  0.00    -0.188 OA
HETATM   13  O2  UNL     1      74.499  55.064  13.303  1.00  0.00    -0.188 OA
BRANCH  11  14
HETATM   14  N1  UNL     1      74.836  56.873  11.464  1.00  0.00    -0.186 NA
HETATM   15  C2  UNL     1      75.921  57.753  12.045  1.00  0.00     0.086 A 
HETATM   16  C1  UNL     1      75.946  59.078  11.316  1.00  0.00     0.029 C 
HETATM   17  C3  UNL     1      76.216  56.503  11.378  1.00  0.00     0.130 A 
ENDBRANCH  11  14
ENDBRANCH   5  11
ENDBRANCH   2   3
ENDBRANCH   1   2
BRANCH   1  18
HETATM   18  C7  UNL     1      71.683  52.345   9.969  1.00  0.00     0.002 C 
BRANCH  18  19
HETATM   19  C8  UNL     1      71.719  50.939   9.468  1.00  0.00     0.009 C 
BRANCH  19  20
HETATM   20  C9  UNL     1      73.011  50.553   8.817  1.00  0.00     0.103 C 
BRANCH  20  21
HETATM   21  C10 UNL     1      72.859  50.304   7.367  1.00  0.00     0.218 C 
HETATM   22  O3  UNL     1      71.964  50.921   6.745  1.00  0.00    -0.274 OA
HETATM   23  N5  UNL     1      73.690  49.401   6.696  1.00  0.00    -0.352 N 
ATOM     24  H5  UNL     1      74.402  48.919   7.244  1.00  0.00     0.163 HD
BRANCH  23  25
HETATM   25  C11 UNL     1      73.618  49.098   5.287  1.00  0.00     0.034 C 
HETATM   26  C12 UNL     1      74.651  48.009   5.000  1.00  0.00     0.035 C 
HETATM   27  C13 UNL     1      74.624  47.628   3.549  1.00  0.00    -0.012 C 
HETATM   28  C14 UNL     1      75.028  48.860   2.760  1.00  0.00     0.009 C 
HETATM   29  C18 UNL     1      73.270  47.125   3.144  1.00  0.00     0.009 C 
HETATM   30  C15 UNL     1      73.975  49.902   2.983  1.00  0.00    -0.012 C 
HETATM   31  C16 UNL     1      72.598  49.422   2.603  1.00  0.00     0.009 C 
HETATM   32  C20 UNL     1      73.957  50.313   4.442  1.00  0.00     0.035 C 
HETATM   33  C17 UNL     1      72.259  48.213   3.444  1.00  0.00    -0.012 C 
HETATM   34  C19 UNL     1      72.272  48.517   4.914  1.00  0.00     0.035 C 
ENDBRANCH  23  25
ENDBRANCH  20  21
ENDBRANCH  19  20
ENDBRANCH  18  19
ENDBRANCH   1  18
TORSDOF 9
ENDMDL
MODEL 3
REMARK VINA RESULT: -8.916169888      3.451     10.353
REMARK  9 active torsions:
REMARK  status: ('A' for Active; 'I' for Inactive)
REMARK    1  A    between atoms: N1_4  and  S1_5 
REMARK    2  A    between atoms: S1_5  and  N2_8 
REMARK       I    between atoms: N2_8  and  C4_10 
REMARK       I    between atoms: C4_10  and  N4_14 
REMARK    3  A    between atoms: N4_14  and  C5_16 
REMARK    4  A    between atoms: C5_16  and  C6_17 
REMARK    5  A    between atoms: C6_17  and  C7_18 
REMARK    6  A    between atoms: C7_18  and  C8_19 
REMARK    7  A    between atoms: C8_19  and  C9_20 
REMARK    8  A    between atoms: C9_20  and  C10_21 
REMARK       I    between atoms: C10_21  and  N5_23 
REMARK    9  A    between atoms: N5_23  and  C11_25 
ROOT
HETATM    1  C6  UNL     1      74.803  51.735   8.406  1.00  0.00     0.020 C 
ENDROOT
BRANCH   1   2
HETATM    2  C5  UNL     1      73.684  51.948   7.396  1.00  0.00     0.138 C 
BRANCH   2   3
HETATM    3  N4  UNL     1      72.548  51.130   7.746  1.00  0.00    -0.226 N 
HETATM    4  C4  UNL     1      72.653  49.728   7.622  1.00  0.00     0.682 C 
HETATM    5  N2  UNL     1      73.560  49.178   6.697  1.00  0.00    -0.104 N 
HETATM    6  N3  UNL     1      71.915  48.978   8.354  1.00  0.00    -0.234 N 
ATOM      7  H2  UNL     1      74.405  49.705   6.473  1.00  0.00     0.198 HD
ATOM      8  H32 UNL     1      71.991  47.965   8.264  1.00  0.00     0.174 HD
ATOM      9  H31 UNL     1      71.258  49.376   9.024  1.00  0.00     0.174 HD
ATOM     10  H4  UNL     1      71.683  51.557   8.078  1.00  0.00     0.177 HD
BRANCH   5  11
HETATM   11  S1  UNL     1      73.315  47.670   5.932  1.00  0.00     0.317 S 
HETATM   12  O1  UNL     1      73.353  46.593   6.986  1.00  0.00    -0.188 OA
HETATM   13  O2  UNL     1      71.958  47.635   5.288  1.00  0.00    -0.188 OA
BRANCH  11  14
HETATM   14  N1  UNL     1      74.477  47.276   4.752  1.00  0.00    -0.186 NA
HETATM   15  C2  UNL     1      74.476  48.147   3.515  1.00  0.00     0.086 A 
HETATM   16  C1  UNL     1      74.457  47.274   2.280  1.00  0.00     0.029 C 
HETATM   17  C3  UNL     1      75.582  48.134   4.448  1.00  0.00     0.130 A 
ENDBRANCH  11  14
ENDBRANCH   5  11
ENDBRANCH   2   3
ENDBRANCH   1   2
BRANCH   1  18
HETATM   18  C7  UNL     1      76.105  51.611   7.689  1.00  0.00     0.002 C 
BRANCH  18  19
HETATM   19  C8  UNL     1      77.173  52.417   8.353  1.00  0.00     0.009 C 
BRANCH  19  20
HETATM   20  C9  UNL     1      77.766  53.483   7.484  1.00  0.00     0.103 C 
BRANCH  20  21
HETATM   21  C10 UNL     1      77.605  54.835   8.063  1.00  0.00     0.218 C 
HETATM   22  O3  UNL     1      77.912  55.826   7.361  1.00  0.00    -0.274 OA
HETATM   23  N5  UNL     1      77.122  55.014   9.363  1.00  0.00    -0.352 N 
ATOM     24  H5  UNL     1      76.889  54.177   9.898  1.00  0.00     0.163 HD
BRANCH  23  25
HETATM   25  C11 UNL     1      76.929  56.290  10.008  1.00  0.00     0.034 C 
HETATM   26  C12 UNL     1      78.310  56.916  10.205  1.00  0.00     0.035 C 
HETATM   27  C13 UNL     1      78.189  58.260  10.860  1.00  0.00    -0.012 C 
HETATM   28  C14 UNL     1      77.590  58.031  12.235  1.00  0.00     0.009 C 
HETATM   29  C18 UNL     1      77.353  59.193  10.035  1.00  0.00     0.009 C 
HETATM   30  C15 UNL     1      76.208  57.488  12.039  1.00  0.00    -0.012 C 
HETATM   31  C16 UNL     1      75.346  58.393  11.197  1.00  0.00     0.009 C 
HETATM   32  C20 UNL     1      76.278  56.130  11.370  1.00  0.00     0.035 C 
HETATM   33  C17 UNL     1      75.993  58.553   9.841  1.00  0.00    -0.012 C 
HETATM   34  C19 UNL     1      76.154  57.243   9.126  1.00  0.00     0.035 C 
ENDBRANCH  23  25
ENDBRANCH  20  21
ENDBRANCH  19  20
ENDBRANCH  18  19
ENDBRANCH   1  18
TORSDOF 9
ENDMDL
MODEL 4
REMARK VINA RESULT: -8.902063552      1.104      1.927
REMARK  9 active torsions:
REMARK  status: ('A' for Active; 'I' for Inactive)
REMARK    1  A    between atoms: N1_4  and  S1_5 
REMARK    2  A    between atoms: S1_5  and  N2_8 
REMARK       I    between atoms: N2_8  and  C4_10 
REMARK       I    between atoms: C4_10  and  N4_14 
REMARK    3  A    between atoms: N4_14  and  C5_16 
REMARK    4  A    between atoms: C5_16  and  C6_17 
REMARK    5  A    between atoms: C6_17  and  C7_18 
REMARK    6  A    between atoms: C7_18  and  C8_19 
REMARK    7  A    between atoms: C8_19  and  C9_20 
REMARK    8  A    between atoms: C9_20  and  C10_21 
REMARK       I    between atoms: C10_21  and  N5_23 
REMARK    9  A    between atoms: N5_23  and  C11_25 
ROOT
HETATM    1  C6  UNL     1      77.283  54.711   7.528  1.00  0.00     0.020 C 
ENDROOT
BRANCH   1   2
HETATM    2  C5  UNL     1      77.425  55.019   9.013  1.00  0.00     0.138 C 
BRANCH   2   3
HETATM    3  N4  UNL     1      77.960  56.348   9.187  1.00  0.00    -0.226 N 
HETATM    4  C4  UNL     1      77.950  56.924  10.476  1.00  0.00     0.682 C 
HETATM    5  N2  UNL     1      76.990  56.506  11.416  1.00  0.00    -0.104 N 
HETATM    6  N3  UNL     1      78.817  57.822  10.767  1.00  0.00    -0.234 N 
ATOM      7  H2  UNL     1      76.635  55.552  11.357  1.00  0.00     0.198 HD
ATOM      8  H32 UNL     1      78.810  58.238  11.698  1.00  0.00     0.174 HD
ATOM      9  H31 UNL     1      79.513  58.124  10.086  1.00  0.00     0.174 HD
ATOM     10  H4  UNL     1      78.340  56.863   8.393  1.00  0.00     0.177 HD
BRANCH   5  11
HETATM   11  S1  UNL     1      76.391  57.523  12.652  1.00  0.00     0.317 S 
HETATM   12  O1  UNL     1      77.515  57.813  13.614  1.00  0.00    -0.188 OA
HETATM   13  O2  UNL     1      75.937  58.831  12.068  1.00  0.00    -0.188 OA
BRANCH  11  14
HETATM   14  N1  UNL     1      75.103  56.864  13.550  1.00  0.00    -0.186 NA
HETATM   15  C2  UNL     1      73.783  56.757  12.820  1.00  0.00     0.086 A 
HETATM   16  C1  UNL     1      72.683  57.359  13.667  1.00  0.00     0.029 C 
HETATM   17  C3  UNL     1      74.527  55.590  13.243  1.00  0.00     0.130 A 
ENDBRANCH  11  14
ENDBRANCH   5  11
ENDBRANCH   2   3
ENDBRANCH   1   2
BRANCH   1  18
HETATM   18  C7  UNL     1      78.246  53.639   7.146  1.00  0.00     0.002 C 
BRANCH  18  19
HETATM   19  C8  UNL     1      77.832  52.313   7.692  1.00  0.00     0.009 C 
BRANCH  19  20
HETATM   20  C9  UNL     1      76.378  52.002   7.511  1.00  0.00     0.103 C 
BRANCH  20  21
HETATM   21  C10 UNL     1      76.120  51.200   6.296  1.00  0.00     0.218 C 
HETATM   22  O3  UNL     1      77.072  50.978   5.513  1.00  0.00    -0.274 OA
HETATM   23  N5  UNL     1      74.845  50.696   6.017  1.00  0.00    -0.352 N 
ATOM     24  H5  UNL     1      74.100  50.906   6.682  1.00  0.00     0.163 HD
BRANCH  23  25
HETATM   25  C11 UNL     1      74.501  49.903   4.862  1.00  0.00     0.034 C 
HETATM   26  C12 UNL     1      73.015  49.562   4.966  1.00  0.00     0.035 C 
HETATM   27  C13 UNL     1      72.578  48.748   3.786  1.00  0.00    -0.012 C 
HETATM   28  C14 UNL     1      73.352  47.443   3.837  1.00  0.00     0.009 C 
HETATM   29  C18 UNL     1      72.812  49.484   2.500  1.00  0.00     0.009 C 
HETATM   30  C15 UNL     1      74.802  47.772   3.659  1.00  0.00    -0.012 C 
HETATM   31  C16 UNL     1      75.069  48.530   2.385  1.00  0.00     0.009 C 
HETATM   32  C20 UNL     1      75.288  48.605   4.827  1.00  0.00     0.035 C 
HETATM   33  C17 UNL     1      74.288  49.822   2.417  1.00  0.00    -0.012 C 
HETATM   34  C19 UNL     1      74.667  50.691   3.581  1.00  0.00     0.035 C 
ENDBRANCH  23  25
ENDBRANCH  20  21
ENDBRANCH  19  20
ENDBRANCH  18  19
ENDBRANCH   1  18
TORSDOF 9
ENDMDL
MODEL 5
REMARK VINA RESULT: -8.854066375      2.775      4.192
REMARK  9 active torsions:
REMARK  status: ('A' for Active; 'I' for Inactive)
REMARK    1  A    between atoms: N1_4  and  S1_5 
REMARK    2  A    between atoms: S1_5  and  N2_8 
REMARK       I    between atoms: N2_8  and  C4_10 
REMARK       I    between atoms: C4_10  and  N4_14 
REMARK    3  A    between atoms: N4_14  and  C5_16 
REMARK    4  A    between atoms: C5_16  and  C6_17 
REMARK    5  A    between atoms: C6_17  and  C7_18 
REMARK    6  A    between atoms: C7_18  and  C8_19 
REMARK    7  A    between atoms: C8_19  and  C9_20 
REMARK    8  A    between atoms: C9_20  and  C10_21 
REMARK       I    between atoms: C10_21  and  N5_23 
REMARK    9  A    between atoms: N5_23  and  C11_25 
ROOT
HETATM    1  C6  UNL     1      70.726  52.565  11.054  1.00  0.00     0.020 C 
ENDROOT
BRANCH   1   2
HETATM    2  C5  UNL     1      70.179  53.987  11.087  1.00  0.00     0.138 C 
BRANCH   2   3
HETATM    3  N4  UNL     1      70.229  54.498  12.436  1.00  0.00    -0.226 N 
HETATM    4  C4  UNL     1      71.158  55.515  12.745  1.00  0.00     0.682 C 
HETATM    5  N2  UNL     1      72.335  55.636  11.985  1.00  0.00    -0.104 N 
HETATM    6  N3  UNL     1      70.912  56.312  13.719  1.00  0.00    -0.234 N 
ATOM      7  H2  UNL     1      72.316  55.339  11.009  1.00  0.00     0.198 HD
ATOM      8  H32 UNL     1      71.583  57.047  13.943  1.00  0.00     0.174 HD
ATOM      9  H31 UNL     1      70.058  56.224  14.270  1.00  0.00     0.174 HD
ATOM     10  H4  UNL     1      69.604  54.131  13.153  1.00  0.00     0.177 HD
BRANCH   5  11
HETATM   11  S1  UNL     1      73.796  56.257  12.618  1.00  0.00     0.317 S 
HETATM   12  O1  UNL     1      73.458  57.303  13.650  1.00  0.00    -0.188 OA
HETATM   13  O2  UNL     1      74.564  55.164  13.306  1.00  0.00    -0.188 OA
BRANCH  11  14
HETATM   14  N1  UNL     1      74.817  56.984  11.465  1.00  0.00    -0.186 NA
HETATM   15  C2  UNL     1      75.910  57.868  12.023  1.00  0.00     0.086 A 
HETATM   16  C1  UNL     1      75.898  59.202  11.310  1.00  0.00     0.029 C 
HETATM   17  C3  UNL     1      76.197  56.630  11.330  1.00  0.00     0.130 A 
ENDBRANCH  11  14
ENDBRANCH   5  11
ENDBRANCH   2   3
ENDBRANCH   1   2
BRANCH   1  18
HETATM   18  C7  UNL     1      71.670  52.420   9.910  1.00  0.00     0.002 C 
BRANCH  18  19
HETATM   19  C8  UNL     1      71.675  51.024   9.379  1.00  0.00     0.009 C 
BRANCH  19  20
HETATM   20  C9  UNL     1      72.979  50.603   8.774  1.00  0.00     0.103 C 
BRANCH  20  21
HETATM   21  C10 UNL     1      72.855  50.285   7.335  1.00  0.00     0.218 C 
HETATM   22  O3  UNL     1      71.966  50.864   6.669  1.00  0.00    -0.274 OA
HETATM   23  N5  UNL     1      73.706  49.360   6.721  1.00  0.00    -0.352 N 
ATOM     24  H5  UNL     1      74.412  48.911   7.304  1.00  0.00     0.163 HD
BRANCH  23  25
HETATM   25  C11 UNL     1      73.662  48.991   5.327  1.00  0.00     0.034 C 
HETATM   26  C12 UNL     1      73.989  50.242   4.512  1.00  0.00     0.035 C 
HETATM   27  C13 UNL     1      73.977  49.932   3.045  1.00  0.00    -0.012 C 
HETATM   28  C14 UNL     1      72.562  49.514   2.692  1.00  0.00     0.009 C 
HETATM   29  C18 UNL     1      74.976  48.865   2.707  1.00  0.00     0.009 C 
HETATM   30  C15 UNL     1      72.269  48.246   3.433  1.00  0.00    -0.012 C 
HETATM   31  C16 UNL     1      73.266  47.157   3.131  1.00  0.00     0.009 C 
HETATM   32  C20 UNL     1      72.279  48.508   4.926  1.00  0.00     0.035 C 
HETATM   33  C17 UNL     1      74.642  47.636   3.530  1.00  0.00    -0.012 C 
HETATM   34  C19 UNL     1      74.729  47.973   4.990  1.00  0.00     0.035 C 
ENDBRANCH  23  25
ENDBRANCH  20  21
ENDBRANCH  19  20
ENDBRANCH  18  19
ENDBRANCH   1  18
TORSDOF 9
ENDMDL
