MODEL 1
REMARK VINA RESULT: -8.087712624      0.000      0.000
REMARK  12 active torsions:
REMARK  status: ('A' for Active; 'I' for Inactive)
REMARK    1  A    between atoms: C3_4  and  N2_5 
REMARK    2  A    between atoms: C3_4  and  C14_17 
REMARK    3  A    between atoms: N2_5  and  C4_7 
REMARK    4  A    between atoms: C4_7  and  C5_8 
REMARK    5  A    between atoms: C5_8  and  C6_9 
REMARK    6  A    between atoms: C6_9  and  C7_10 
REMARK    7  A    between atoms: C7_10  and  C8_11 
REMARK    8  A    between atoms: C14_17  and  N3_18 
REMARK    9  A    between atoms: C14_17  and  C16_22 
REMARK   10  A    between atoms: N3_18  and  C15_20 
REMARK   11  A    between atoms: C16_22  and  O2_23 
REMARK   12  A    between atoms: C16_22  and  N4_25 
REMARK       I    between atoms: N5_29  and  C20_30 
ROOT
HETATM    1  C14 UNL     1      72.232  52.364   6.843  1.00  0.00     0.209 C 
ENDROOT
BRANCH   1   2
HETATM    2  C3  UNL     1      73.557  51.704   7.149  1.00  0.00     0.056 C 
HETATM    3  C2  UNL     1      74.692  52.309   7.303  1.00  0.00     0.045 C 
HETATM    4  C1  UNL     1      75.966  51.573   7.511  1.00  0.00     0.067 C 
HETATM    5  N1  UNL     1      74.824  53.733   7.261  1.00  0.00    -0.105 NA
BRANCH   2   6
HETATM    6  N2  UNL     1      73.551  50.248   7.186  1.00  0.00    -0.390 N 
ATOM      7  H2  UNL     1      74.431  49.752   7.042  1.00  0.00     0.159 HD
BRANCH   6   8
HETATM    8  C4  UNL     1      72.380  49.492   7.414  1.00  0.00     0.119 C 
BRANCH   8   9
HETATM    9  C5  UNL     1      71.900  48.699   6.191  1.00  0.00     0.020 C 
BRANCH   9  10
HETATM   10  C6  UNL     1      72.965  47.756   5.781  1.00  0.00     0.002 C 
BRANCH  10  11
HETATM   11  C7  UNL     1      73.208  47.485   4.370  1.00  0.00     0.005 C 
BRANCH  11  12
HETATM   12  C8  UNL     1      74.254  48.225   3.594  1.00  0.00    -0.014 C 
HETATM   13  C9  UNL     1      75.296  48.593   4.668  1.00  0.00     0.004 C 
HETATM   14  C10 UNL     1      76.583  49.072   4.103  1.00  0.00     0.000 C 
HETATM   15  C11 UNL     1      77.184  47.849   3.381  1.00  0.00     0.000 C 
HETATM   16  C12 UNL     1      76.300  47.617   2.207  1.00  0.00     0.000 C 
HETATM   17  C13 UNL     1      74.846  47.374   2.534  1.00  0.00     0.004 C 
ENDBRANCH  11  12
ENDBRANCH  10  11
ENDBRANCH   9  10
ENDBRANCH   8   9
ENDBRANCH   6   8
ENDBRANCH   2   6
ENDBRANCH   1   2
BRANCH   1  18
HETATM   18  N3  UNL     1      72.528  53.303   5.727  1.00  0.00    -0.351 N 
ATOM     19  H3  UNL     1      73.288  53.977   5.835  1.00  0.00     0.163 HD
BRANCH  18  20
HETATM   20  C15 UNL     1      71.795  53.288   4.531  1.00  0.00     0.349 C 
HETATM   21  O1  UNL     1      70.719  53.918   4.449  1.00  0.00    -0.284 OA
ENDBRANCH  18  20
ENDBRANCH   1  18
BRANCH   1  22
HETATM   22  C16 UNL     1      71.594  53.098   7.908  1.00  0.00     0.144 C 
BRANCH  22  23
HETATM   23  O2  UNL     1      70.765  54.026   7.529  1.00  0.00    -0.348 OA
ATOM     24  H2  UNL     1      70.251  54.421   8.222  1.00  0.00     0.219 HD
ENDBRANCH  22  23
BRANCH  22  25
HETATM   25  N4  UNL     1      71.764  52.918   9.315  1.00  0.00    -0.347 N 
HETATM   26  C17 UNL     1      71.236  51.849  10.098  1.00  0.00     0.128 C 
HETATM   27  C18 UNL     1      70.266  52.464  11.094  1.00  0.00     0.040 C 
HETATM   28  C19 UNL     1      71.066  53.312  12.050  1.00  0.00     0.129 C 
HETATM   29  N5  UNL     1      72.023  54.132  11.366  1.00  0.00    -0.339 N 
HETATM   30  C20 UNL     1      72.487  55.316  12.058  1.00  0.00     0.185 C 
HETATM   31  C21 UNL     1      72.558  53.897  10.055  1.00  0.00     0.253 C 
HETATM   32  N6  UNL     1      71.754  55.812  12.929  1.00  0.00    -0.374 N 
HETATM   33  N7  UNL     1      73.756  55.834  11.692  1.00  0.00    -0.064 NA
ATOM     34  H62 UNL     1      70.842  55.440  13.192  1.00  0.00     0.158 HD
ATOM     35  H61 UNL     1      72.082  56.646  13.417  1.00  0.00     0.158 HD
ENDBRANCH  22  25
ENDBRANCH   1  22
TORSDOF 12
ENDMDL
MODEL 2
REMARK VINA RESULT: -7.917906384      0.840      1.385
REMARK  12 active torsions:
REMARK  status: ('A' for Active; 'I' for Inactive)
REMARK    1  A    between atoms: C3_4  and  N2_5 
REMARK    2  A    between atoms: C3_4  and  C14_17 
REMARK    3  A    between atoms: N2_5  and  C4_7 
REMARK    4  A    between atoms: C4_7  and  C5_8 
REMARK    5  A    between atoms: C5_8  and  C6_9 
REMARK    6  A    between atoms: C6_9  and  C7_10 
REMARK    7  A    between atoms: C7_10  and  C8_11 
REMARK    8  A    between atoms: C14_17  and  N3_18 
REMARK    9  A    between atoms: C14_17  and  C16_22 
REMARK   10  A    between atoms: N3_18  and  C15_20 
REMARK   11  A    between atoms: C16_22  and  O2_23 
REMARK   12  A    between atoms: C16_22  and  N4_25 
REMARK       I    between atoms: N5_29  and  C20_30 
ROOT
HETATM    1  C14 UNL     1      72.368  52.302   7.003  1.00  0.00     0.209 C 
ENDROOT
BRANCH   1   2
HETATM    2  C3  UNL     1      73.707  51.706   7.378  1.00  0.00     0.056 C 
HETATM    3  C2  UNL     1      74.810  52.362   7.554  1.00  0.00     0.045 C 
HETATM    4  C1  UNL     1      76.104  51.685   7.832  1.00  0.00     0.067 C 
HETATM    5  N1  UNL     1      74.886  53.788   7.473  1.00  0.00    -0.105 NA
BRANCH   2   6
HETATM    6  N2  UNL     1      73.758  50.252   7.461  1.00  0.00    -0.390 N 
ATOM      7  H2  UNL     1      74.173  49.825   8.289  1.00  0.00     0.159 HD
BRANCH   6   8
HETATM    8  C4  UNL     1      73.258  49.410   6.444  1.00  0.00     0.119 C 
BRANCH   8   9
HETATM    9  C5  UNL     1      74.071  49.447   5.143  1.00  0.00     0.020 C 
BRANCH   9  10
HETATM   10  C6  UNL     1      74.537  48.078   4.828  1.00  0.00     0.002 C 
BRANCH  10  11
HETATM   11  C7  UNL     1      74.757  47.673   3.445  1.00  0.00     0.005 C 
BRANCH  11  12
HETATM   12  C8  UNL     1      76.124  47.669   2.833  1.00  0.00    -0.014 C 
HETATM   13  C9  UNL     1      76.054  48.816   1.805  1.00  0.00     0.004 C 
HETATM   14  C10 UNL     1      77.382  49.215   1.275  1.00  0.00     0.000 C 
HETATM   15  C11 UNL     1      78.131  49.819   2.480  1.00  0.00     0.000 C 
HETATM   16  C12 UNL     1      78.398  48.671   3.387  1.00  0.00     0.000 C 
HETATM   17  C13 UNL     1      77.175  47.917   3.850  1.00  0.00     0.004 C 
ENDBRANCH  11  12
ENDBRANCH  10  11
ENDBRANCH   9  10
ENDBRANCH   8   9
ENDBRANCH   6   8
ENDBRANCH   2   6
ENDBRANCH   1   2
BRANCH   1  18
HETATM   18  N3  UNL     1      72.667  53.208   5.861  1.00  0.00    -0.351 N 
ATOM     19  H3  UNL     1      73.421  53.890   5.953  1.00  0.00     0.163 HD
BRANCH  18  20
HETATM   20  C15 UNL     1      71.943  53.150   4.660  1.00  0.00     0.349 C 
HETATM   21  O1  UNL     1      70.887  53.805   4.535  1.00  0.00    -0.284 OA
ENDBRANCH  18  20
ENDBRANCH   1  18
BRANCH   1  22
HETATM   22  C16 UNL     1      71.668  53.050   8.017  1.00  0.00     0.144 C 
BRANCH  22  23
HETATM   23  O2  UNL     1      70.854  53.963   7.575  1.00  0.00    -0.348 OA
ATOM     24  H2  UNL     1      71.259  54.785   7.326  1.00  0.00     0.219 HD
ENDBRANCH  22  23
BRANCH  22  25
HETATM   25  N4  UNL     1      71.763  52.899   9.434  1.00  0.00    -0.347 N 
HETATM   26  C17 UNL     1      71.185  51.851  10.211  1.00  0.00     0.128 C 
HETATM   27  C18 UNL     1      70.169  52.495  11.141  1.00  0.00     0.040 C 
HETATM   28  C19 UNL     1      70.925  53.358  12.120  1.00  0.00     0.129 C 
HETATM   29  N5  UNL     1      71.924  54.156  11.470  1.00  0.00    -0.339 N 
HETATM   30  C20 UNL     1      72.361  55.351  12.160  1.00  0.00     0.185 C 
HETATM   31  C21 UNL     1      72.524  53.888  10.195  1.00  0.00     0.253 C 
HETATM   32  N6  UNL     1      71.588  55.871  12.981  1.00  0.00    -0.374 N 
HETATM   33  N7  UNL     1      73.652  55.851  11.851  1.00  0.00    -0.064 NA
ATOM     34  H62 UNL     1      70.660  55.512  13.203  1.00  0.00     0.158 HD
ATOM     35  H61 UNL     1      71.897  56.713  13.467  1.00  0.00     0.158 HD
ENDBRANCH  22  25
ENDBRANCH   1  22
TORSDOF 12
ENDMDL
MODEL 3
REMARK VINA RESULT: -7.839228057      4.219      7.828
REMARK  12 active torsions:
REMARK  status: ('A' for Active; 'I' for Inactive)
REMARK    1  A    between atoms: C3_4  and  N2_5 
REMARK    2  A    between atoms: C3_4  and  C14_17 
REMARK    3  A    between atoms: N2_5  and  C4_7 
REMARK    4  A    between atoms: C4_7  and  C5_8 
REMARK    5  A    between atoms: C5_8  and  C6_9 
REMARK    6  A    between atoms: C6_9  and  C7_10 
REMARK    7  A    between atoms: C7_10  and  C8_11 
REMARK    8  A    between atoms: C14_17  and  N3_18 
REMARK    9  A    between atoms: C14_17  and  C16_22 
REMARK   10  A    between atoms: N3_18  and  C15_20 
REMARK   11  A    between atoms: C16_22  and  O2_23 
REMARK   12  A    between atoms: C16_22  and  N4_25 
REMARK       I    between atoms: N5_29  and  C20_30 
ROOT
HETATM    1  C14 UNL     1      76.473  48.391   3.587  1.00  0.00     0.209 C 
ENDROOT
BRANCH   1   2
HETATM    2  C3  UNL     1      76.607  49.893   3.476  1.00  0.00     0.056 C 
HETATM    3  C2  UNL     1      76.543  50.586   2.384  1.00  0.00     0.045 C 
HETATM    4  C1  UNL     1      76.779  52.053   2.355  1.00  0.00     0.067 C 
HETATM    5  N1  UNL     1      76.267  49.998   1.109  1.00  0.00    -0.105 NA
BRANCH   2   6
HETATM    6  N2  UNL     1      76.920  50.598   4.713  1.00  0.00    -0.390 N 
ATOM      7  H2  UNL     1      77.873  50.935   4.855  1.00  0.00     0.159 HD
BRANCH   6   8
HETATM    8  C4  UNL     1      75.962  50.836   5.722  1.00  0.00     0.119 C 
BRANCH   8   9
HETATM    9  C5  UNL     1      76.510  51.596   6.938  1.00  0.00     0.020 C 
BRANCH   9  10
HETATM   10  C6  UNL     1      75.472  51.626   7.993  1.00  0.00     0.002 C 
BRANCH  10  11
HETATM   11  C7  UNL     1      74.206  50.928   7.804  1.00  0.00     0.005 C 
BRANCH  11  12
HETATM   12  C8  UNL     1      72.890  51.605   8.033  1.00  0.00    -0.014 C 
HETATM   13  C9  UNL     1      72.437  51.045   9.395  1.00  0.00     0.004 C 
HETATM   14  C10 UNL     1      71.299  51.790   9.991  1.00  0.00     0.000 C 
HETATM   15  C11 UNL     1      71.860  53.191  10.313  1.00  0.00     0.000 C 
HETATM   16  C12 UNL     1      72.099  53.828   8.989  1.00  0.00     0.000 C 
HETATM   17  C13 UNL     1      73.039  53.080   8.075  1.00  0.00     0.004 C 
ENDBRANCH  11  12
ENDBRANCH  10  11
ENDBRANCH   9  10
ENDBRANCH   8   9
ENDBRANCH   6   8
ENDBRANCH   2   6
ENDBRANCH   1   2
BRANCH   1  18
HETATM   18  N3  UNL     1      77.607  47.853   2.788  1.00  0.00    -0.351 N 
ATOM     19  H3  UNL     1      77.412  47.210   2.020  1.00  0.00     0.163 HD
BRANCH  18  20
HETATM   20  C15 UNL     1      78.938  48.206   3.060  1.00  0.00     0.349 C 
HETATM   21  O1  UNL     1      79.764  48.295   2.128  1.00  0.00    -0.284 OA
ENDBRANCH  18  20
ENDBRANCH   1  18
BRANCH   1  22
HETATM   22  C16 UNL     1      75.248  47.797   3.111  1.00  0.00     0.144 C 
BRANCH  22  23
HETATM   23  O2  UNL     1      75.373  47.002   2.089  1.00  0.00    -0.348 OA
ATOM     24  H2  UNL     1      74.936  46.163   2.170  1.00  0.00     0.219 HD
ENDBRANCH  22  23
BRANCH  22  25
HETATM   25  N4  UNL     1      73.931  47.979   3.633  1.00  0.00    -0.347 N 
HETATM   26  C17 UNL     1      72.985  48.961   3.212  1.00  0.00     0.128 C 
HETATM   27  C18 UNL     1      72.728  49.870   4.404  1.00  0.00     0.040 C 
HETATM   28  C19 UNL     1      72.026  49.055   5.460  1.00  0.00     0.129 C 
HETATM   29  N5  UNL     1      72.641  47.773   5.644  1.00  0.00    -0.339 N 
HETATM   30  C20 UNL     1      72.415  47.111   6.912  1.00  0.00     0.185 C 
HETATM   31  C21 UNL     1      73.468  47.085   4.694  1.00  0.00     0.253 C 
HETATM   32  N6  UNL     1      72.134  47.812   7.897  1.00  0.00    -0.374 N 
HETATM   33  N7  UNL     1      72.530  45.697   6.943  1.00  0.00    -0.064 NA
ATOM     34  H62 UNL     1      72.052  48.828   7.875  1.00  0.00     0.158 HD
ATOM     35  H61 UNL     1      71.975  47.346   8.790  1.00  0.00     0.158 HD
ENDBRANCH  22  25
ENDBRANCH   1  22
TORSDOF 12
ENDMDL
MODEL 4
REMARK VINA RESULT: -7.788601892      1.358      2.058
REMARK  12 active torsions:
REMARK  status: ('A' for Active; 'I' for Inactive)
REMARK    1  A    between atoms: C3_4  and  N2_5 
REMARK    2  A    between atoms: C3_4  and  C14_17 
REMARK    3  A    between atoms: N2_5  and  C4_7 
REMARK    4  A    between atoms: C4_7  and  C5_8 
REMARK    5  A    between atoms: C5_8  and  C6_9 
REMARK    6  A    between atoms: C6_9  and  C7_10 
REMARK    7  A    between atoms: C7_10  and  C8_11 
REMARK    8  A    between atoms: C14_17  and  N3_18 
REMARK    9  A    between atoms: C14_17  and  C16_22 
REMARK   10  A    between atoms: N3_18  and  C15_20 
REMARK   11  A    between atoms: C16_22  and  O2_23 
REMARK   12  A    between atoms: C16_22  and  N4_25 
REMARK       I    between atoms: N5_29  and  C20_30 
ROOT
HETATM    1  C14 UNL     1      72.762  53.011   8.450  1.00  0.00     0.209 C 
ENDROOT
BRANCH   1   2
HETATM    2  C3  UNL     1      73.914  52.054   8.241  1.00  0.00     0.056 C 
HETATM    3  C2  UNL     1      75.055  52.342   7.701  1.00  0.00     0.045 C 
HETATM    4  C1  UNL     1      76.100  51.315   7.450  1.00  0.00     0.067 C 
HETATM    5  N1  UNL     1      75.400  53.663   7.276  1.00  0.00    -0.105 NA
BRANCH   2   6
HETATM    6  N2  UNL     1      73.666  50.666   8.612  1.00  0.00    -0.390 N 
ATOM      7  H2  UNL     1      74.448  50.011   8.600  1.00  0.00     0.159 HD
BRANCH   6   8
HETATM    8  C4  UNL     1      72.391  50.189   8.985  1.00  0.00     0.119 C 
BRANCH   8   9
HETATM    9  C5  UNL     1      71.875  49.034   8.117  1.00  0.00     0.020 C 
BRANCH   9  10
HETATM   10  C6  UNL     1      72.256  49.285   6.708  1.00  0.00     0.002 C 
BRANCH  10  11
HETATM   11  C7  UNL     1      72.021  48.271   5.688  1.00  0.00     0.005 C 
BRANCH  11  12
HETATM   12  C8  UNL     1      73.147  47.515   5.052  1.00  0.00    -0.014 C 
HETATM   13  C9  UNL     1      72.857  47.651   3.544  1.00  0.00     0.004 C 
HETATM   14  C10 UNL     1      73.996  47.242   2.685  1.00  0.00     0.000 C 
HETATM   15  C11 UNL     1      75.102  48.281   2.962  1.00  0.00     0.000 C 
HETATM   16  C12 UNL     1      75.545  48.014   4.357  1.00  0.00     0.000 C 
HETATM   17  C13 UNL     1      74.462  48.103   5.405  1.00  0.00     0.004 C 
ENDBRANCH  11  12
ENDBRANCH  10  11
ENDBRANCH   9  10
ENDBRANCH   8   9
ENDBRANCH   6   8
ENDBRANCH   2   6
ENDBRANCH   1   2
BRANCH   1  18
HETATM   18  N3  UNL     1      72.538  53.626   7.114  1.00  0.00    -0.351 N 
ATOM     19  H3  UNL     1      72.880  54.572   6.941  1.00  0.00     0.163 HD
BRANCH  18  20
HETATM   20  C15 UNL     1      71.872  52.943   6.085  1.00  0.00     0.349 C 
HETATM   21  O1  UNL     1      71.131  53.567   5.297  1.00  0.00    -0.284 OA
ENDBRANCH  18  20
ENDBRANCH   1  18
BRANCH   1  22
HETATM   22  C16 UNL     1      72.940  54.062   9.421  1.00  0.00     0.144 C 
BRANCH  22  23
HETATM   23  O2  UNL     1      73.768  55.004   9.078  1.00  0.00    -0.348 OA
ATOM     24  H2  UNL     1      73.539  55.877   9.375  1.00  0.00     0.219 HD
ENDBRANCH  22  23
BRANCH  22  25
HETATM   25  N4  UNL     1      72.313  54.185  10.698  1.00  0.00    -0.347 N 
HETATM   26  C17 UNL     1      71.070  53.602  11.087  1.00  0.00     0.128 C 
HETATM   27  C18 UNL     1      70.116  54.747  11.388  1.00  0.00     0.040 C 
HETATM   28  C19 UNL     1      70.630  55.462  12.612  1.00  0.00     0.129 C 
HETATM   29  N5  UNL     1      72.043  55.693  12.543  1.00  0.00    -0.339 N 
HETATM   30  C20 UNL     1      72.575  56.765  13.358  1.00  0.00     0.185 C 
HETATM   31  C21 UNL     1      72.982  54.968  11.735  1.00  0.00     0.253 C 
HETATM   32  N6  UNL     1      71.810  57.687  13.685  1.00  0.00    -0.374 N 
HETATM   33  N7  UNL     1      73.941  56.690  13.731  1.00  0.00    -0.064 NA
ATOM     34  H62 UNL     1      70.828  57.741  13.418  1.00  0.00     0.158 HD
ATOM     35  H61 UNL     1      72.185  58.443  14.260  1.00  0.00     0.158 HD
ENDBRANCH  22  25
ENDBRANCH   1  22
TORSDOF 12
ENDMDL
MODEL 5
REMARK VINA RESULT: -7.730345547      3.086      4.472
REMARK  12 active torsions:
REMARK  status: ('A' for Active; 'I' for Inactive)
REMARK    1  A    between atoms: C3_4  and  N2_5 
REMARK    2  A    between atoms: C3_4  and  C14_17 
REMARK    3  A    between atoms: N2_5  and  C4_7 
REMARK    4  A    between atoms: C4_7  and  C5_8 
REMARK    5  A    between atoms: C5_8  and  C6_9 
REMARK    6  A    between atoms: C6_9  and  C7_10 
REMARK    7  A    between atoms: C7_10  and  C8_11 
REMARK    8  A    between atoms: C14_17  and  N3_18 
REMARK    9  A    between atoms: C14_17  and  C16_22 
REMARK   10  A    between atoms: N3_18  and  C15_20 
REMARK   11  A    between atoms: C16_22  and  O2_23 
REMARK   12  A    between atoms: C16_22  and  N4_25 
REMARK       I    between atoms: N5_29  and  C20_30 
ROOT
HETATM    1  C14 UNL     1      73.715  50.129   7.024  1.00  0.00     0.209 C 
ENDROOT
BRANCH   1   2
HETATM    2  C3  UNL     1      73.693  50.314   5.523  1.00  0.00     0.056 C 
HETATM    3  C2  UNL     1      72.978  51.176   4.872  1.00  0.00     0.045 C 
HETATM    4  C1  UNL     1      72.948  51.228   3.387  1.00  0.00     0.067 C 
HETATM    5  N1  UNL     1      72.137  52.134   5.522  1.00  0.00    -0.105 NA
BRANCH   2   6
HETATM    6  N2  UNL     1      74.492  49.371   4.752  1.00  0.00    -0.390 N 
ATOM      7  H2  UNL     1      75.185  49.738   4.098  1.00  0.00     0.159 HD
BRANCH   6   8
HETATM    8  C4  UNL     1      74.350  47.971   4.869  1.00  0.00     0.119 C 
BRANCH   8   9
HETATM    9  C5  UNL     1      73.766  47.294   3.621  1.00  0.00     0.020 C 
BRANCH   9  10
HETATM   10  C6  UNL     1      74.441  47.837   2.421  1.00  0.00     0.002 C 
BRANCH  10  11
HETATM   11  C7  UNL     1      75.707  47.274   1.967  1.00  0.00     0.005 C 
BRANCH  11  12
HETATM   12  C8  UNL     1      76.992  48.036   2.075  1.00  0.00    -0.014 C 
HETATM   13  C9  UNL     1      76.573  49.483   1.749  1.00  0.00     0.004 C 
HETATM   14  C10 UNL     1      77.612  50.489   2.083  1.00  0.00     0.000 C 
HETATM   15  C11 UNL     1      77.725  50.454   3.621  1.00  0.00     0.000 C 
HETATM   16  C12 UNL     1      78.336  49.135   3.937  1.00  0.00     0.000 C 
HETATM   17  C13 UNL     1      77.570  47.934   3.436  1.00  0.00     0.004 C 
ENDBRANCH  11  12
ENDBRANCH  10  11
ENDBRANCH   9  10
ENDBRANCH   8   9
ENDBRANCH   6   8
ENDBRANCH   2   6
ENDBRANCH   1   2
BRANCH   1  18
HETATM   18  N3  UNL     1      72.289  49.928   7.398  1.00  0.00    -0.351 N 
ATOM     19  H3  UNL     1      71.730  50.737   7.671  1.00  0.00     0.163 HD
BRANCH  18  20
HETATM   20  C15 UNL     1      71.692  48.658   7.387  1.00  0.00     0.349 C 
HETATM   21  O1  UNL     1      72.279  47.686   7.909  1.00  0.00    -0.284 OA
ENDBRANCH  18  20
ENDBRANCH   1  18
BRANCH   1  22
HETATM   22  C16 UNL     1      74.256  51.204   7.817  1.00  0.00     0.144 C 
BRANCH  22  23
HETATM   23  O2  UNL     1      73.737  51.340   9.002  1.00  0.00    -0.348 OA
ATOM     24  H2  UNL     1      72.890  51.767   9.030  1.00  0.00     0.219 HD
ENDBRANCH  22  23
BRANCH  22  25
HETATM   25  N4  UNL     1      75.287  52.123   7.453  1.00  0.00    -0.347 N 
HETATM   26  C17 UNL     1      76.470  51.815   6.717  1.00  0.00     0.128 C 
HETATM   27  C18 UNL     1      77.650  52.080   7.639  1.00  0.00     0.040 C 
HETATM   28  C19 UNL     1      77.706  53.564   7.898  1.00  0.00     0.129 C 
HETATM   29  N5  UNL     1      76.413  54.105   8.199  1.00  0.00    -0.339 N 
HETATM   30  C20 UNL     1      76.377  55.351   8.936  1.00  0.00     0.185 C 
HETATM   31  C21 UNL     1      75.149  53.524   7.848  1.00  0.00     0.253 C 
HETATM   32  N6  UNL     1      77.352  55.638   9.649  1.00  0.00    -0.374 N 
HETATM   33  N7  UNL     1      75.224  56.164   8.794  1.00  0.00    -0.064 NA
ATOM     34  H62 UNL     1      78.182  55.054   9.751  1.00  0.00     0.158 HD
ATOM     35  H61 UNL     1      77.327  56.516  10.168  1.00  0.00     0.158 HD
ENDBRANCH  22  25
ENDBRANCH   1  22
TORSDOF 12
ENDMDL
