MODEL 1
REMARK VINA RESULT: -8.008154748      0.000      0.000
REMARK  12 active torsions:
REMARK  status: ('A' for Active; 'I' for Inactive)
REMARK    1  A    between atoms: C2_2  and  O1_3 
REMARK    2  A    between atoms: C2_2  and  C3_5 
REMARK    3  A    between atoms: C3_5  and  O2_6 
REMARK    4  A    between atoms: C3_5  and  C4_8 
REMARK    5  A    between atoms: C4_8  and  C5_9 
REMARK    6  A    between atoms: C5_9  and  C6_10 
REMARK    7  A    between atoms: C6_10  and  C7_11 
REMARK    8  A    between atoms: C7_11  and  C8_12 
REMARK    9  A    between atoms: C8_12  and  C9_13 
REMARK   10  A    between atoms: C9_13  and  C10_14 
REMARK   11  A    between atoms: C12_17  and  O4_18 
REMARK   12  A    between atoms: C20_27  and  O5_28 
ROOT
HETATM    1  C10 UNL     1      18.223  53.751  38.669  1.00  0.00     0.151 C 
HETATM    2  O3  UNL     1      17.754  55.041  38.326  1.00  0.00    -0.368 OA
HETATM    3  C11 UNL     1      17.437  55.150  37.023  1.00  0.00     0.103 A 
HETATM    4  C12 UNL     1      18.393  55.483  35.946  1.00  0.00     0.155 C 
HETATM    5  C13 UNL     1      17.259  56.044  35.078  1.00  0.00     0.048 C 
HETATM    6  C14 UNL     1      16.468  55.988  36.338  1.00  0.00     0.003 A 
HETATM    7  C15 UNL     1      16.062  57.258  36.965  1.00  0.00     0.019 C 
HETATM    8  C16 UNL     1      16.056  54.681  36.825  1.00  0.00     0.001 A 
HETATM    9  C17 UNL     1      14.987  54.806  37.898  1.00  0.00     0.019 C 
HETATM   10  C18 UNL     1      16.122  53.395  36.123  1.00  0.00     0.016 C 
HETATM   11  C19 UNL     1      17.170  52.509  36.745  1.00  0.00     0.035 C 
HETATM   12  C20 UNL     1      17.342  52.668  38.212  1.00  0.00     0.147 C 
ENDROOT
BRANCH   1  13
HETATM   13  C9  UNL     1      19.685  53.638  38.426  1.00  0.00     0.034 C 
BRANCH  13  14
HETATM   14  C8  UNL     1      20.586  54.483  39.276  1.00  0.00     0.002 C 
BRANCH  14  15
HETATM   15  C7  UNL     1      21.805  53.700  39.735  1.00  0.00     0.000 C 
BRANCH  15  16
HETATM   16  C6  UNL     1      23.052  54.559  39.664  1.00  0.00     0.000 C 
BRANCH  16  17
HETATM   17  C5  UNL     1      22.930  55.861  40.369  1.00  0.00     0.002 C 
BRANCH  17  18
HETATM   18  C4  UNL     1      24.139  56.288  41.105  1.00  0.00     0.034 C 
BRANCH  18  19
HETATM   19  C3  UNL     1      24.259  57.732  41.456  1.00  0.00     0.146 C 
BRANCH  19  20
HETATM   20  C2  UNL     1      25.362  57.954  42.496  1.00  0.00     0.142 C 
HETATM   21  C1  UNL     1      25.639  56.697  43.268  1.00  0.00     0.042 C 
BRANCH  20  22
HETATM   22  O1  UNL     1      24.945  58.990  43.321  1.00  0.00    -0.393 OA
ATOM     23  H1  UNL     1      24.172  58.756  43.824  1.00  0.00     0.210 HD
ENDBRANCH  20  22
ENDBRANCH  19  20
BRANCH  19  24
HETATM   24  O2  UNL     1      23.104  58.234  42.097  1.00  0.00    -0.393 OA
ATOM     25  H2  UNL     1      22.869  58.984  41.566  1.00  0.00     0.210 HD
ENDBRANCH  19  24
ENDBRANCH  18  19
ENDBRANCH  17  18
ENDBRANCH  16  17
ENDBRANCH  15  16
ENDBRANCH  14  15
ENDBRANCH  13  14
ENDBRANCH   1  13
BRANCH  12  26
HETATM   26  O5  UNL     1      17.805  51.459  38.719  1.00  0.00    -0.393 OA
ATOM     27  H5  UNL     1      17.427  50.745  38.218  1.00  0.00     0.210 HD
ENDBRANCH  12  26
BRANCH   4  28
HETATM   28  O4  UNL     1      19.229  56.564  36.284  1.00  0.00    -0.392 OA
ATOM     29  H4  UNL     1      19.609  56.981  35.520  1.00  0.00     0.210 HD
ENDBRANCH   4  28
TORSDOF 12
ENDMDL
MODEL 2
REMARK VINA RESULT: -8.001667663      4.140      8.120
REMARK  12 active torsions:
REMARK  status: ('A' for Active; 'I' for Inactive)
REMARK    1  A    between atoms: C2_2  and  O1_3 
REMARK    2  A    between atoms: C2_2  and  C3_5 
REMARK    3  A    between atoms: C3_5  and  O2_6 
REMARK    4  A    between atoms: C3_5  and  C4_8 
REMARK    5  A    between atoms: C4_8  and  C5_9 
REMARK    6  A    between atoms: C5_9  and  C6_10 
REMARK    7  A    between atoms: C6_10  and  C7_11 
REMARK    8  A    between atoms: C7_11  and  C8_12 
REMARK    9  A    between atoms: C8_12  and  C9_13 
REMARK   10  A    between atoms: C9_13  and  C10_14 
REMARK   11  A    between atoms: C12_17  and  O4_18 
REMARK   12  A    between atoms: C20_27  and  O5_28 
ROOT
HETATM    1  C10 UNL     1      16.135  55.224  38.458  1.00  0.00     0.151 C 
HETATM    2  O3  UNL     1      17.436  54.709  38.665  1.00  0.00    -0.368 OA
HETATM    3  C11 UNL     1      17.752  53.730  37.799  1.00  0.00     0.103 A 
HETATM    4  C12 UNL     1      17.425  52.300  37.983  1.00  0.00     0.155 C 
HETATM    5  C13 UNL     1      18.600  51.890  37.084  1.00  0.00     0.048 C 
HETATM    6  C14 UNL     1      19.031  53.305  37.255  1.00  0.00     0.003 A 
HETATM    7  C15 UNL     1      20.253  53.573  38.031  1.00  0.00     0.019 C 
HETATM    8  C16 UNL     1      18.273  54.335  36.562  1.00  0.00     0.001 A 
HETATM    9  C17 UNL     1      19.026  55.655  36.551  1.00  0.00     0.019 C 
HETATM   10  C18 UNL     1      17.256  54.160  35.520  1.00  0.00     0.016 C 
HETATM   11  C19 UNL     1      15.892  54.514  36.052  1.00  0.00     0.035 C 
HETATM   12  C20 UNL     1      15.871  55.602  37.063  1.00  0.00     0.147 C 
ENDROOT
BRANCH   1  13
HETATM   13  C9  UNL     1      15.123  54.415  39.186  1.00  0.00     0.034 C 
BRANCH  13  14
HETATM   14  C8  UNL     1      14.217  55.146  40.131  1.00  0.00     0.002 C 
BRANCH  14  15
HETATM   15  C7  UNL     1      14.869  56.418  40.648  1.00  0.00     0.000 C 
BRANCH  15  16
HETATM   16  C6  UNL     1      13.946  57.607  40.462  1.00  0.00     0.000 C 
BRANCH  16  17
HETATM   17  C5  UNL     1      14.396  58.563  39.419  1.00  0.00     0.002 C 
BRANCH  17  18
HETATM   18  C4  UNL     1      13.333  59.431  38.867  1.00  0.00     0.034 C 
BRANCH  18  19
HETATM   19  C3  UNL     1      12.867  59.156  37.479  1.00  0.00     0.146 C 
BRANCH  19  20
HETATM   20  C2  UNL     1      11.719  60.092  37.089  1.00  0.00     0.142 C 
HETATM   21  C1  UNL     1      10.578  59.982  38.057  1.00  0.00     0.042 C 
BRANCH  20  22
HETATM   22  O1  UNL     1      11.339  59.758  35.795  1.00  0.00    -0.393 OA
ATOM     23  H1  UNL     1      10.612  60.289  35.490  1.00  0.00     0.210 HD
ENDBRANCH  20  22
ENDBRANCH  19  20
BRANCH  19  24
HETATM   24  O2  UNL     1      12.297  57.870  37.341  1.00  0.00    -0.393 OA
ATOM     25  H2  UNL     1      12.338  57.518  38.222  1.00  0.00     0.210 HD
ENDBRANCH  19  24
ENDBRANCH  18  19
ENDBRANCH  17  18
ENDBRANCH  16  17
ENDBRANCH  15  16
ENDBRANCH  14  15
ENDBRANCH  13  14
ENDBRANCH   1  13
BRANCH  12  26
HETATM   26  O5  UNL     1      14.633  56.229  36.987  1.00  0.00    -0.393 OA
ATOM     27  H5  UNL     1      14.333  56.221  36.085  1.00  0.00     0.210 HD
ENDBRANCH  12  26
BRANCH   4  28
HETATM   28  O4  UNL     1      17.719  51.844  39.281  1.00  0.00    -0.392 OA
ATOM     29  H4  UNL     1      16.972  51.432  39.699  1.00  0.00     0.210 HD
ENDBRANCH   4  28
TORSDOF 12
ENDMDL
MODEL 3
REMARK VINA RESULT: -7.822626522      3.352      5.333
REMARK  12 active torsions:
REMARK  status: ('A' for Active; 'I' for Inactive)
REMARK    1  A    between atoms: C2_2  and  O1_3 
REMARK    2  A    between atoms: C2_2  and  C3_5 
REMARK    3  A    between atoms: C3_5  and  O2_6 
REMARK    4  A    between atoms: C3_5  and  C4_8 
REMARK    5  A    between atoms: C4_8  and  C5_9 
REMARK    6  A    between atoms: C5_9  and  C6_10 
REMARK    7  A    between atoms: C6_10  and  C7_11 
REMARK    8  A    between atoms: C7_11  and  C8_12 
REMARK    9  A    between atoms: C8_12  and  C9_13 
REMARK   10  A    between atoms: C9_13  and  C10_14 
REMARK   11  A    between atoms: C12_17  and  O4_18 
REMARK   12  A    between atoms: C20_27  and  O5_28 
ROOT
HETATM    1  C10 UNL     1      18.148  53.722  38.677  1.00  0.00     0.151 C 
HETATM    2  O3  UNL     1      17.653  55.012  38.373  1.00  0.00    -0.368 OA
HETATM    3  C11 UNL     1      17.265  55.131  37.091  1.00  0.00     0.103 A 
HETATM    4  C12 UNL     1      18.157  55.480  35.966  1.00  0.00     0.155 C 
HETATM    5  C13 UNL     1      16.973  56.041  35.168  1.00  0.00     0.048 C 
HETATM    6  C14 UNL     1      16.253  55.968  36.468  1.00  0.00     0.003 A 
HETATM    7  C15 UNL     1      15.875  57.229  37.128  1.00  0.00     0.019 C 
HETATM    8  C16 UNL     1      15.877  54.654  36.965  1.00  0.00     0.001 A 
HETATM    9  C17 UNL     1      14.869  54.762  38.096  1.00  0.00     0.019 C 
HETATM   10  C18 UNL     1      15.912  53.374  36.249  1.00  0.00     0.016 C 
HETATM   11  C19 UNL     1      16.999  52.490  36.803  1.00  0.00     0.035 C 
HETATM   12  C20 UNL     1      17.250  52.637  38.260  1.00  0.00     0.147 C 
ENDROOT
BRANCH   1  13
HETATM   13  C9  UNL     1      19.595  53.621  38.353  1.00  0.00     0.034 C 
BRANCH  13  14
HETATM   14  C8  UNL     1      20.560  54.198  39.346  1.00  0.00     0.002 C 
BRANCH  14  15
HETATM   15  C7  UNL     1      21.939  53.578  39.199  1.00  0.00     0.000 C 
BRANCH  15  16
HETATM   16  C6  UNL     1      22.126  53.007  37.806  1.00  0.00     0.000 C 
BRANCH  16  17
HETATM   17  C5  UNL     1      22.763  51.666  37.783  1.00  0.00     0.002 C 
BRANCH  17  18
HETATM   18  C4  UNL     1      22.604  50.920  36.516  1.00  0.00     0.034 C 
BRANCH  18  19
HETATM   19  C3  UNL     1      21.464  51.295  35.632  1.00  0.00     0.146 C 
BRANCH  19  20
HETATM   20  C2  UNL     1      20.386  50.207  35.633  1.00  0.00     0.142 C 
HETATM   21  C1  UNL     1      19.530  50.290  34.404  1.00  0.00     0.042 C 
BRANCH  20  22
HETATM   22  O1  UNL     1      19.644  50.365  36.797  1.00  0.00    -0.393 OA
ATOM     23  H1  UNL     1      19.104  49.605  36.981  1.00  0.00     0.210 HD
ENDBRANCH  20  22
ENDBRANCH  19  20
BRANCH  19  24
HETATM   24  O2  UNL     1      21.836  51.381  34.271  1.00  0.00    -0.393 OA
ATOM     25  H2  UNL     1      22.407  52.139  34.249  1.00  0.00     0.210 HD
ENDBRANCH  19  24
ENDBRANCH  18  19
ENDBRANCH  17  18
ENDBRANCH  16  17
ENDBRANCH  15  16
ENDBRANCH  14  15
ENDBRANCH  13  14
ENDBRANCH   1  13
BRANCH  12  26
HETATM   26  O5  UNL     1      17.748  51.427  38.729  1.00  0.00    -0.393 OA
ATOM     27  H5  UNL     1      17.038  50.926  39.115  1.00  0.00     0.210 HD
ENDBRANCH  12  26
BRANCH   4  28
HETATM   28  O4  UNL     1      19.003  56.562  36.267  1.00  0.00    -0.392 OA
ATOM     29  H4  UNL     1      18.919  57.274  35.644  1.00  0.00     0.210 HD
ENDBRANCH   4  28
TORSDOF 12
ENDMDL
MODEL 4
REMARK VINA RESULT: -7.728088547      4.093      8.455
REMARK  12 active torsions:
REMARK  status: ('A' for Active; 'I' for Inactive)
REMARK    1  A    between atoms: C2_2  and  O1_3 
REMARK    2  A    between atoms: C2_2  and  C3_5 
REMARK    3  A    between atoms: C3_5  and  O2_6 
REMARK    4  A    between atoms: C3_5  and  C4_8 
REMARK    5  A    between atoms: C4_8  and  C5_9 
REMARK    6  A    between atoms: C5_9  and  C6_10 
REMARK    7  A    between atoms: C6_10  and  C7_11 
REMARK    8  A    between atoms: C7_11  and  C8_12 
REMARK    9  A    between atoms: C8_12  and  C9_13 
REMARK   10  A    between atoms: C9_13  and  C10_14 
REMARK   11  A    between atoms: C12_17  and  O4_18 
REMARK   12  A    between atoms: C20_27  and  O5_28 
ROOT
HETATM    1  C10 UNL     1      17.740  55.923  36.676  1.00  0.00     0.151 C 
HETATM    2  O3  UNL     1      17.272  54.830  37.443  1.00  0.00    -0.368 OA
HETATM    3  C11 UNL     1      17.709  53.645  36.980  1.00  0.00     0.103 A 
HETATM    4  C12 UNL     1      17.052  52.858  35.916  1.00  0.00     0.155 C 
HETATM    5  C13 UNL     1      17.661  51.561  36.463  1.00  0.00     0.048 C 
HETATM    6  C14 UNL     1      17.975  52.388  37.660  1.00  0.00     0.003 A 
HETATM    7  C15 UNL     1      17.262  52.098  38.915  1.00  0.00     0.019 C 
HETATM    8  C16 UNL     1      19.041  53.372  37.546  1.00  0.00     0.001 A 
HETATM    9  C17 UNL     1      19.468  53.878  38.913  1.00  0.00     0.019 C 
HETATM   10  C18 UNL     1      20.021  53.520  36.465  1.00  0.00     0.016 C 
HETATM   11  C19 UNL     1      19.746  54.773  35.674  1.00  0.00     0.035 C 
HETATM   12  C20 UNL     1      19.192  55.906  36.459  1.00  0.00     0.147 C 
ENDROOT
BRANCH   1  13
HETATM   13  C9  UNL     1      16.844  56.178  35.518  1.00  0.00     0.034 C 
BRANCH  13  14
HETATM   14  C8  UNL     1      15.612  56.994  35.774  1.00  0.00     0.002 C 
BRANCH  14  15
HETATM   15  C7  UNL     1      14.434  56.110  36.151  1.00  0.00     0.000 C 
BRANCH  15  16
HETATM   16  C6  UNL     1      14.068  56.298  37.611  1.00  0.00     0.000 C 
BRANCH  16  17
HETATM   17  C5  UNL     1      13.575  57.659  37.939  1.00  0.00     0.002 C 
BRANCH  17  18
HETATM   18  C4  UNL     1      12.343  58.066  37.230  1.00  0.00     0.034 C 
BRANCH  18  19
HETATM   19  C3  UNL     1      12.146  59.519  36.965  1.00  0.00     0.146 C 
BRANCH  19  20
HETATM   20  C2  UNL     1      11.183  60.137  37.984  1.00  0.00     0.142 C 
HETATM   21  C1  UNL     1      10.011  60.780  37.302  1.00  0.00     0.042 C 
BRANCH  20  22
HETATM   22  O1  UNL     1      11.912  61.050  38.736  1.00  0.00    -0.393 OA
ATOM     23  H1  UNL     1      12.805  61.137  38.421  1.00  0.00     0.210 HD
ENDBRANCH  20  22
ENDBRANCH  19  20
BRANCH  19  24
HETATM   24  O2  UNL     1      11.508  59.765  35.728  1.00  0.00    -0.393 OA
ATOM     25  H2  UNL     1      12.229  59.991  35.153  1.00  0.00     0.210 HD
ENDBRANCH  19  24
ENDBRANCH  18  19
ENDBRANCH  17  18
ENDBRANCH  16  17
ENDBRANCH  15  16
ENDBRANCH  14  15
ENDBRANCH  13  14
ENDBRANCH   1  13
BRANCH  12  26
HETATM   26  O5  UNL     1      19.573  57.085  35.828  1.00  0.00    -0.393 OA
ATOM     27  H5  UNL     1      20.417  56.957  35.411  1.00  0.00     0.210 HD
ENDBRANCH  12  26
BRANCH   4  28
HETATM   28  O4  UNL     1      15.659  52.769  36.095  1.00  0.00    -0.392 OA
ATOM     29  H4  UNL     1      15.204  52.536  35.294  1.00  0.00     0.210 HD
ENDBRANCH   4  28
TORSDOF 12
ENDMDL
MODEL 5
REMARK VINA RESULT: -7.711941513      4.226      8.780
REMARK  12 active torsions:
REMARK  status: ('A' for Active; 'I' for Inactive)
REMARK    1  A    between atoms: C2_2  and  O1_3 
REMARK    2  A    between atoms: C2_2  and  C3_5 
REMARK    3  A    between atoms: C3_5  and  O2_6 
REMARK    4  A    between atoms: C3_5  and  C4_8 
REMARK    5  A    between atoms: C4_8  and  C5_9 
REMARK    6  A    between atoms: C5_9  and  C6_10 
REMARK    7  A    between atoms: C6_10  and  C7_11 
REMARK    8  A    between atoms: C7_11  and  C8_12 
REMARK    9  A    between atoms: C8_12  and  C9_13 
REMARK   10  A    between atoms: C9_13  and  C10_14 
REMARK   11  A    between atoms: C12_17  and  O4_18 
REMARK   12  A    between atoms: C20_27  and  O5_28 
ROOT
HETATM    1  C10 UNL     1      15.718  56.174  37.759  1.00  0.00     0.151 C 
HETATM    2  O3  UNL     1      17.128  56.075  37.714  1.00  0.00    -0.368 OA
HETATM    3  C11 UNL     1      17.554  54.822  37.469  1.00  0.00     0.103 A 
HETATM    4  C12 UNL     1      17.761  53.783  38.499  1.00  0.00     0.155 C 
HETATM    5  C13 UNL     1      18.783  53.067  37.607  1.00  0.00     0.048 C 
HETATM    6  C14 UNL     1      18.753  54.327  36.815  1.00  0.00     0.003 A 
HETATM    7  C15 UNL     1      19.957  55.175  36.808  1.00  0.00     0.019 C 
HETATM    8  C16 UNL     1      17.570  54.599  36.014  1.00  0.00     0.001 A 
HETATM    9  C17 UNL     1      17.827  55.716  35.017  1.00  0.00     0.019 C 
HETATM   10  C18 UNL     1      16.468  53.686  35.693  1.00  0.00     0.016 C 
HETATM   11  C19 UNL     1      15.210  54.107  36.408  1.00  0.00     0.035 C 
HETATM   12  C20 UNL     1      15.052  55.572  36.596  1.00  0.00     0.147 C 
ENDROOT
BRANCH   1  13
HETATM   13  C9  UNL     1      15.208  55.861  39.119  1.00  0.00     0.034 C 
BRANCH  13  14
HETATM   14  C8  UNL     1      14.839  57.022  39.994  1.00  0.00     0.002 C 
BRANCH  14  15
HETATM   15  C7  UNL     1      13.776  57.889  39.339  1.00  0.00     0.000 C 
BRANCH  15  16
HETATM   16  C6  UNL     1      14.269  59.314  39.179  1.00  0.00     0.000 C 
BRANCH  16  17
HETATM   17  C5  UNL     1      13.211  60.278  38.784  1.00  0.00     0.002 C 
BRANCH  17  18
HETATM   18  C4  UNL     1      11.991  59.668  38.213  1.00  0.00     0.034 C 
BRANCH  18  19
HETATM   19  C3  UNL     1      11.419  60.287  36.985  1.00  0.00     0.146 C 
BRANCH  19  20
HETATM   20  C2  UNL     1       9.910  60.507  37.133  1.00  0.00     0.142 C 
HETATM   21  C1  UNL     1       9.613  61.861  37.709  1.00  0.00     0.042 C 
BRANCH  20  22
HETATM   22  O1  UNL     1       9.423  59.482  37.934  1.00  0.00    -0.393 OA
ATOM     23  H1  UNL     1      10.123  58.971  38.323  1.00  0.00     0.210 HD
ENDBRANCH  20  22
ENDBRANCH  19  20
BRANCH  19  24
HETATM   24  O2  UNL     1      11.513  59.443  35.855  1.00  0.00    -0.393 OA
ATOM     25  H2  UNL     1      12.266  59.786  35.389  1.00  0.00     0.210 HD
ENDBRANCH  19  24
ENDBRANCH  18  19
ENDBRANCH  17  18
ENDBRANCH  16  17
ENDBRANCH  15  16
ENDBRANCH  14  15
ENDBRANCH  13  14
ENDBRANCH   1  13
BRANCH  12  26
HETATM   26  O5  UNL     1      13.691  55.848  36.656  1.00  0.00    -0.393 OA
ATOM     27  H5  UNL     1      13.380  55.697  37.542  1.00  0.00     0.210 HD
ENDBRANCH  12  26
BRANCH   4  28
HETATM   28  O4  UNL     1      18.459  54.268  39.620  1.00  0.00    -0.392 OA
ATOM     29  H4  UNL     1      18.939  53.586  40.073  1.00  0.00     0.210 HD
ENDBRANCH   4  28
TORSDOF 12
ENDMDL
