MODEL 1
REMARK VINA RESULT: -8.437106365      0.000      0.000
REMARK  12 active torsions:
REMARK  status: ('A' for Active; 'I' for Inactive)
REMARK    1  A    between atoms: C2_2  and  C3_3 
REMARK    2  A    between atoms: C2_2  and  C4_6 
REMARK    3  A    between atoms: C3_3  and  O1_4 
REMARK    4  A    between atoms: C4_6  and  O2_7 
REMARK    5  A    between atoms: C4_6  and  C5_9 
REMARK    6  A    between atoms: C5_9  and  C6_10 
REMARK    7  A    between atoms: C8_13  and  C9_14 
REMARK    8  A    between atoms: C10_15  and  C11_16 
REMARK    9  A    between atoms: C11_16  and  O4_17 
REMARK   10  A    between atoms: C11_16  and  C12_19 
REMARK   11  A    between atoms: C12_19  and  O5_20 
REMARK   12  A    between atoms: C12_19  and  C13_22 
ROOT
HETATM    1  C6  UNL     1      12.889  58.176  37.564  1.00  0.00     0.128 C 
HETATM    2  O3  UNL     1      13.560  57.630  36.494  1.00  0.00    -0.385 OA
HETATM    3  C7  UNL     1      14.672  56.960  36.963  1.00  0.00     0.177 C 
HETATM    4  C8  UNL     1      14.197  56.371  38.299  1.00  0.00     0.038 C 
HETATM    5  C19 UNL     1      13.419  57.593  38.826  1.00  0.00     0.020 C 
HETATM    6  C20 UNL     1      14.393  58.535  39.522  1.00  0.00     0.013 C 
ENDROOT
BRANCH   4   7
HETATM    7  C9  UNL     1      15.307  56.052  39.198  1.00  0.00    -0.021 C 
HETATM    8  C10 UNL     1      15.889  54.866  39.204  1.00  0.00     0.003 C 
BRANCH   8   9
HETATM    9  C11 UNL     1      15.434  53.809  38.288  1.00  0.00     0.169 C 
BRANCH   9  10
HETATM   10  O4  UNL     1      15.200  52.670  39.118  1.00  0.00    -0.389 OA
ATOM     11  H4  UNL     1      15.699  52.832  39.909  1.00  0.00     0.210 HD
ENDBRANCH   9  10
BRANCH   9  12
HETATM   12  C12 UNL     1      16.409  53.341  37.263  1.00  0.00     0.154 C 
BRANCH  12  13
HETATM   13  O5  UNL     1      15.655  53.291  36.045  1.00  0.00    -0.392 OA
ATOM     14  H5  UNL     1      16.209  52.812  35.440  1.00  0.00     0.210 HD
ENDBRANCH  12  13
BRANCH  12  15
HETATM   15  C13 UNL     1      17.584  54.207  36.993  1.00  0.00     0.017 C 
HETATM   16  C14 UNL     1      18.915  53.524  36.934  1.00  0.00     0.007 C 
HETATM   17  C15 UNL     1      19.936  54.421  36.230  1.00  0.00     0.000 C 
HETATM   18  C16 UNL     1      19.525  55.870  36.351  1.00  0.00     0.000 C 
HETATM   19  C17 UNL     1      18.308  56.095  35.493  1.00  0.00     0.000 C 
HETATM   20  C18 UNL     1      17.333  54.974  35.703  1.00  0.00     0.007 C 
ENDBRANCH  12  15
ENDBRANCH   9  12
ENDBRANCH   8   9
ENDBRANCH   4   7
BRANCH   1  21
HETATM   21  C5  UNL     1      12.944  59.687  37.592  1.00  0.00     0.064 C 
BRANCH  21  22
HETATM   22  C4  UNL     1      11.650  60.300  37.100  1.00  0.00     0.126 C 
BRANCH  22  23
HETATM   23  C2  UNL     1      10.655  60.491  38.207  1.00  0.00     0.034 C 
HETATM   24  C1  UNL     1      10.928  61.733  39.021  1.00  0.00     0.015 C 
BRANCH  23  25
HETATM   25  C3  UNL     1       9.291  60.677  37.564  1.00  0.00     0.170 C 
BRANCH  25  26
HETATM   26  O1  UNL     1       8.606  59.449  37.710  1.00  0.00    -0.400 OA
ATOM     27  H1  UNL     1       7.680  59.649  37.658  1.00  0.00     0.209 HD
ENDBRANCH  25  26
ENDBRANCH  23  25
ENDBRANCH  22  23
BRANCH  22  28
HETATM   28  O2  UNL     1      11.088  59.424  36.176  1.00  0.00    -0.395 OA
ATOM     29  H2  UNL     1      11.543  58.593  36.254  1.00  0.00     0.210 HD
ENDBRANCH  22  28
ENDBRANCH  21  22
ENDBRANCH   1  21
TORSDOF 12
ENDMDL
MODEL 2
REMARK VINA RESULT: -7.766118568      2.454      8.390
REMARK  12 active torsions:
REMARK  status: ('A' for Active; 'I' for Inactive)
REMARK    1  A    between atoms: C2_2  and  C3_3 
REMARK    2  A    between atoms: C2_2  and  C4_6 
REMARK    3  A    between atoms: C3_3  and  O1_4 
REMARK    4  A    between atoms: C4_6  and  O2_7 
REMARK    5  A    between atoms: C4_6  and  C5_9 
REMARK    6  A    between atoms: C5_9  and  C6_10 
REMARK    7  A    between atoms: C8_13  and  C9_14 
REMARK    8  A    between atoms: C10_15  and  C11_16 
REMARK    9  A    between atoms: C11_16  and  O4_17 
REMARK   10  A    between atoms: C11_16  and  C12_19 
REMARK   11  A    between atoms: C12_19  and  O5_20 
REMARK   12  A    between atoms: C12_19  and  C13_22 
ROOT
HETATM    1  C6  UNL     1      17.520  55.797  36.531  1.00  0.00     0.128 C 
HETATM    2  O3  UNL     1      17.039  56.311  35.349  1.00  0.00    -0.385 OA
HETATM    3  C7  UNL     1      15.668  56.448  35.449  1.00  0.00     0.177 C 
HETATM    4  C8  UNL     1      15.458  56.850  36.917  1.00  0.00     0.038 C 
HETATM    5  C19 UNL     1      16.456  55.874  37.569  1.00  0.00     0.020 C 
HETATM    6  C20 UNL     1      15.768  54.531  37.778  1.00  0.00     0.013 C 
ENDROOT
BRANCH   4   7
HETATM    7  C9  UNL     1      14.099  56.571  37.384  1.00  0.00    -0.021 C 
HETATM    8  C10 UNL     1      13.494  57.330  38.281  1.00  0.00     0.003 C 
BRANCH   8   9
HETATM    9  C11 UNL     1      14.177  58.503  38.847  1.00  0.00     0.169 C 
BRANCH   9  10
HETATM   10  O4  UNL     1      14.819  58.028  40.031  1.00  0.00    -0.389 OA
ATOM     11  H4  UNL     1      15.462  57.398  39.730  1.00  0.00     0.210 HD
ENDBRANCH   9  10
BRANCH   9  12
HETATM   12  C12 UNL     1      13.315  59.628  39.305  1.00  0.00     0.154 C 
BRANCH  12  13
HETATM   13  O5  UNL     1      14.109  60.803  39.090  1.00  0.00    -0.392 OA
ATOM     14  H5  UNL     1      13.778  61.434  39.718  1.00  0.00     0.210 HD
ENDBRANCH  12  13
BRANCH  12  15
HETATM   15  C13 UNL     1      12.038  59.849  38.580  1.00  0.00     0.017 C 
HETATM   16  C14 UNL     1      11.187  60.983  39.061  1.00  0.00     0.007 C 
HETATM   17  C15 UNL     1      10.165  61.366  37.988  1.00  0.00     0.000 C 
HETATM   18  C16 UNL     1       9.896  60.186  37.083  1.00  0.00     0.000 C 
HETATM   19  C17 UNL     1      11.118  59.942  36.239  1.00  0.00     0.000 C 
HETATM   20  C18 UNL     1      12.345  60.017  37.100  1.00  0.00     0.007 C 
ENDBRANCH  12  15
ENDBRANCH   9  12
ENDBRANCH   8   9
ENDBRANCH   4   7
BRANCH   1  21
HETATM   21  C5  UNL     1      18.053  54.389  36.395  1.00  0.00     0.064 C 
BRANCH  21  22
HETATM   22  C4  UNL     1      19.555  54.344  36.573  1.00  0.00     0.126 C 
BRANCH  22  23
HETATM   23  C2  UNL     1      19.954  54.203  38.013  1.00  0.00     0.034 C 
HETATM   24  C1  UNL     1      18.970  53.375  38.805  1.00  0.00     0.015 C 
BRANCH  23  25
HETATM   25  C3  UNL     1      21.280  53.462  38.047  1.00  0.00     0.170 C 
BRANCH  25  26
HETATM   26  O1  UNL     1      22.292  54.450  38.042  1.00  0.00    -0.400 OA
ATOM     27  H1  UNL     1      23.029  54.079  37.571  1.00  0.00     0.209 HD
ENDBRANCH  25  26
ENDBRANCH  23  25
ENDBRANCH  22  23
BRANCH  22  28
HETATM   28  O2  UNL     1      20.076  55.548  36.108  1.00  0.00    -0.395 OA
ATOM     29  H2  UNL     1      19.344  56.122  35.915  1.00  0.00     0.210 HD
ENDBRANCH  22  28
ENDBRANCH  21  22
ENDBRANCH   1  21
TORSDOF 12
ENDMDL
MODEL 3
REMARK VINA RESULT: -7.754863138      2.260      8.574
REMARK  12 active torsions:
REMARK  status: ('A' for Active; 'I' for Inactive)
REMARK    1  A    between atoms: C2_2  and  C3_3 
REMARK    2  A    between atoms: C2_2  and  C4_6 
REMARK    3  A    between atoms: C3_3  and  O1_4 
REMARK    4  A    between atoms: C4_6  and  O2_7 
REMARK    5  A    between atoms: C4_6  and  C5_9 
REMARK    6  A    between atoms: C5_9  and  C6_10 
REMARK    7  A    between atoms: C8_13  and  C9_14 
REMARK    8  A    between atoms: C10_15  and  C11_16 
REMARK    9  A    between atoms: C11_16  and  O4_17 
REMARK   10  A    between atoms: C11_16  and  C12_19 
REMARK   11  A    between atoms: C12_19  and  O5_20 
REMARK   12  A    between atoms: C12_19  and  C13_22 
ROOT
HETATM    1  C6  UNL     1      17.586  55.005  36.937  1.00  0.00     0.128 C 
HETATM    2  O3  UNL     1      17.416  55.820  35.842  1.00  0.00    -0.385 OA
HETATM    3  C7  UNL     1      16.091  56.203  35.774  1.00  0.00     0.177 C 
HETATM    4  C8  UNL     1      15.687  56.350  37.249  1.00  0.00     0.038 C 
HETATM    5  C19 UNL     1      16.379  55.091  37.804  1.00  0.00     0.020 C 
HETATM    6  C20 UNL     1      15.455  53.895  37.611  1.00  0.00     0.013 C 
ENDROOT
BRANCH   4   7
HETATM    7  C9  UNL     1      14.240  56.261  37.445  1.00  0.00    -0.021 C 
HETATM    8  C10 UNL     1      13.575  57.131  38.184  1.00  0.00     0.003 C 
BRANCH   8   9
HETATM    9  C11 UNL     1      14.280  58.241  38.843  1.00  0.00     0.169 C 
BRANCH   9  10
HETATM   10  O4  UNL     1      14.816  57.684  40.044  1.00  0.00    -0.389 OA
ATOM     11  H4  UNL     1      14.850  58.405  40.660  1.00  0.00     0.210 HD
ENDBRANCH   9  10
BRANCH   9  12
HETATM   12  C12 UNL     1      13.449  59.393  39.293  1.00  0.00     0.154 C 
BRANCH  12  13
HETATM   13  O5  UNL     1      14.275  60.543  39.068  1.00  0.00    -0.392 OA
ATOM     14  H5  UNL     1      15.134  60.287  39.382  1.00  0.00     0.210 HD
ENDBRANCH  12  13
BRANCH  12  15
HETATM   15  C13 UNL     1      12.177  59.642  38.570  1.00  0.00     0.017 C 
HETATM   16  C14 UNL     1      11.308  60.735  39.110  1.00  0.00     0.007 C 
HETATM   17  C15 UNL     1      10.292  61.171  38.050  1.00  0.00     0.000 C 
HETATM   18  C16 UNL     1      10.046  60.045  37.073  1.00  0.00     0.000 C 
HETATM   19  C17 UNL     1      11.280  59.867  36.229  1.00  0.00     0.000 C 
HETATM   20  C18 UNL     1      12.497  59.904  37.106  1.00  0.00     0.007 C 
ENDBRANCH  12  15
ENDBRANCH   9  12
ENDBRANCH   8   9
ENDBRANCH   4   7
BRANCH   1  21
HETATM   21  C5  UNL     1      17.898  53.573  36.570  1.00  0.00     0.064 C 
BRANCH  21  22
HETATM   22  C4  UNL     1      18.951  52.981  37.483  1.00  0.00     0.126 C 
BRANCH  22  23
HETATM   23  C2  UNL     1      20.331  53.470  37.151  1.00  0.00     0.034 C 
HETATM   24  C1  UNL     1      21.113  53.866  38.380  1.00  0.00     0.015 C 
BRANCH  23  25
HETATM   25  C3  UNL     1      21.078  52.315  36.506  1.00  0.00     0.170 C 
BRANCH  25  26
HETATM   26  O1  UNL     1      20.917  52.461  35.109  1.00  0.00    -0.400 OA
ATOM     27  H1  UNL     1      21.774  52.677  34.760  1.00  0.00     0.209 HD
ENDBRANCH  25  26
ENDBRANCH  23  25
ENDBRANCH  22  23
BRANCH  22  28
HETATM   28  O2  UNL     1      18.940  51.600  37.306  1.00  0.00    -0.395 OA
ATOM     29  H2  UNL     1      18.807  51.202  38.159  1.00  0.00     0.210 HD
ENDBRANCH  22  28
ENDBRANCH  21  22
ENDBRANCH   1  21
TORSDOF 12
ENDMDL
MODEL 4
REMARK VINA RESULT: -7.719809263      2.029      8.504
REMARK  12 active torsions:
REMARK  status: ('A' for Active; 'I' for Inactive)
REMARK    1  A    between atoms: C2_2  and  C3_3 
REMARK    2  A    between atoms: C2_2  and  C4_6 
REMARK    3  A    between atoms: C3_3  and  O1_4 
REMARK    4  A    between atoms: C4_6  and  O2_7 
REMARK    5  A    between atoms: C4_6  and  C5_9 
REMARK    6  A    between atoms: C5_9  and  C6_10 
REMARK    7  A    between atoms: C8_13  and  C9_14 
REMARK    8  A    between atoms: C10_15  and  C11_16 
REMARK    9  A    between atoms: C11_16  and  O4_17 
REMARK   10  A    between atoms: C11_16  and  C12_19 
REMARK   11  A    between atoms: C12_19  and  O5_20 
REMARK   12  A    between atoms: C12_19  and  C13_22 
ROOT
HETATM    1  C6  UNL     1      17.778  53.609  36.930  1.00  0.00     0.128 C 
HETATM    2  O3  UNL     1      17.189  53.901  38.138  1.00  0.00    -0.385 OA
HETATM    3  C7  UNL     1      16.628  55.161  38.067  1.00  0.00     0.177 C 
HETATM    4  C8  UNL     1      16.122  55.243  36.619  1.00  0.00     0.038 C 
HETATM    5  C19 UNL     1      17.333  54.602  35.914  1.00  0.00     0.020 C 
HETATM    6  C20 UNL     1      18.386  55.674  35.668  1.00  0.00     0.013 C 
ENDROOT
BRANCH   4   7
HETATM    7  C9  UNL     1      15.946  56.623  36.165  1.00  0.00    -0.021 C 
HETATM    8  C10 UNL     1      14.792  57.257  36.271  1.00  0.00     0.003 C 
BRANCH   8   9
HETATM    9  C11 UNL     1      13.625  56.585  36.863  1.00  0.00     0.169 C 
BRANCH   9  10
HETATM   10  O4  UNL     1      12.620  56.616  35.849  1.00  0.00    -0.389 OA
ATOM     11  H4  UNL     1      12.408  55.706  35.681  1.00  0.00     0.210 HD
ENDBRANCH   9  10
BRANCH   9  12
HETATM   12  C12 UNL     1      12.997  57.243  38.044  1.00  0.00     0.154 C 
BRANCH  12  13
HETATM   13  O5  UNL     1      13.693  56.698  39.173  1.00  0.00    -0.392 OA
ATOM     14  H5  UNL     1      13.865  55.794  38.936  1.00  0.00     0.210 HD
ENDBRANCH  12  13
BRANCH  12  15
HETATM   15  C13 UNL     1      13.120  58.718  38.149  1.00  0.00     0.017 C 
HETATM   16  C14 UNL     1      11.839  59.486  38.261  1.00  0.00     0.007 C 
HETATM   17  C15 UNL     1      12.114  60.894  38.796  1.00  0.00     0.000 C 
HETATM   18  C16 UNL     1      13.535  61.299  38.484  1.00  0.00     0.000 C 
HETATM   19  C17 UNL     1      14.465  60.481  39.340  1.00  0.00     0.000 C 
HETATM   20  C18 UNL     1      14.029  59.045  39.324  1.00  0.00     0.007 C 
ENDBRANCH  12  15
ENDBRANCH   9  12
ENDBRANCH   8   9
ENDBRANCH   4   7
BRANCH   1  21
HETATM   21  C5  UNL     1      19.286  53.540  37.005  1.00  0.00     0.064 C 
BRANCH  21  22
HETATM   22  C4  UNL     1      19.782  52.112  36.930  1.00  0.00     0.126 C 
BRANCH  22  23
HETATM   23  C2  UNL     1      20.089  51.689  35.523  1.00  0.00     0.034 C 
HETATM   24  C1  UNL     1      21.515  51.219  35.360  1.00  0.00     0.015 C 
BRANCH  23  25
HETATM   25  C3  UNL     1      19.195  50.504  35.200  1.00  0.00     0.170 C 
BRANCH  25  26
HETATM   26  O1  UNL     1      17.991  51.038  34.686  1.00  0.00    -0.400 OA
ATOM     27  H1  UNL     1      17.441  50.296  34.461  1.00  0.00     0.209 HD
ENDBRANCH  25  26
ENDBRANCH  23  25
ENDBRANCH  22  23
BRANCH  22  28
HETATM   28  O2  UNL     1      18.769  51.284  37.407  1.00  0.00    -0.395 OA
ATOM     29  H2  UNL     1      17.957  51.775  37.372  1.00  0.00     0.210 HD
ENDBRANCH  22  28
ENDBRANCH  21  22
ENDBRANCH   1  21
TORSDOF 12
ENDMDL
MODEL 5
REMARK VINA RESULT: -7.717599930      2.502      8.370
REMARK  12 active torsions:
REMARK  status: ('A' for Active; 'I' for Inactive)
REMARK    1  A    between atoms: C2_2  and  C3_3 
REMARK    2  A    between atoms: C2_2  and  C4_6 
REMARK    3  A    between atoms: C3_3  and  O1_4 
REMARK    4  A    between atoms: C4_6  and  O2_7 
REMARK    5  A    between atoms: C4_6  and  C5_9 
REMARK    6  A    between atoms: C5_9  and  C6_10 
REMARK    7  A    between atoms: C8_13  and  C9_14 
REMARK    8  A    between atoms: C10_15  and  C11_16 
REMARK    9  A    between atoms: C11_16  and  O4_17 
REMARK   10  A    between atoms: C11_16  and  C12_19 
REMARK   11  A    between atoms: C12_19  and  O5_20 
REMARK   12  A    between atoms: C12_19  and  C13_22 
ROOT
HETATM    1  C6  UNL     1      18.180  53.962  36.897  1.00  0.00     0.128 C 
HETATM    2  O3  UNL     1      17.437  54.127  38.043  1.00  0.00    -0.385 OA
HETATM    3  C7  UNL     1      16.721  55.303  37.943  1.00  0.00     0.177 C 
HETATM    4  C8  UNL     1      16.358  55.373  36.452  1.00  0.00     0.038 C 
HETATM    5  C19 UNL     1      17.709  54.924  35.864  1.00  0.00     0.020 C 
HETATM    6  C20 UNL     1      18.627  56.135  35.755  1.00  0.00     0.013 C 
ENDROOT
BRANCH   4   7
HETATM    7  C9  UNL     1      16.043  56.733  36.015  1.00  0.00    -0.021 C 
HETATM    8  C10 UNL     1      14.857  57.280  36.215  1.00  0.00     0.003 C 
BRANCH   8   9
HETATM    9  C11 UNL     1      13.796  56.527  36.901  1.00  0.00     0.169 C 
BRANCH   9  10
HETATM   10  O4  UNL     1      12.750  56.392  35.938  1.00  0.00    -0.389 OA
ATOM     11  H4  UNL     1      13.175  56.490  35.094  1.00  0.00     0.210 HD
ENDBRANCH   9  10
BRANCH   9  12
HETATM   12  C12 UNL     1      13.154  57.185  38.073  1.00  0.00     0.154 C 
BRANCH  12  13
HETATM   13  O5  UNL     1      13.868  56.677  39.208  1.00  0.00    -0.392 OA
ATOM     14  H5  UNL     1      13.484  57.125  39.953  1.00  0.00     0.210 HD
ENDBRANCH  12  13
BRANCH  12  15
HETATM   15  C13 UNL     1      13.235  58.665  38.156  1.00  0.00     0.017 C 
HETATM   16  C14 UNL     1      11.932  59.400  38.217  1.00  0.00     0.007 C 
HETATM   17  C15 UNL     1      12.156  60.824  38.734  1.00  0.00     0.000 C 
HETATM   18  C16 UNL     1      13.575  61.261  38.455  1.00  0.00     0.000 C 
HETATM   19  C17 UNL     1      14.500  60.482  39.352  1.00  0.00     0.000 C 
HETATM   20  C18 UNL     1      14.101  59.036  39.350  1.00  0.00     0.007 C 
ENDBRANCH  12  15
ENDBRANCH   9  12
ENDBRANCH   8   9
ENDBRANCH   4   7
BRANCH   1  21
HETATM   21  C5  UNL     1      19.668  54.090  37.129  1.00  0.00     0.064 C 
BRANCH  21  22
HETATM   22  C4  UNL     1      19.993  54.210  38.603  1.00  0.00     0.126 C 
BRANCH  22  23
HETATM   23  C2  UNL     1      21.464  54.383  38.849  1.00  0.00     0.034 C 
HETATM   24  C1  UNL     1      21.749  55.262  40.043  1.00  0.00     0.015 C 
BRANCH  23  25
HETATM   25  C3  UNL     1      22.035  53.012  39.165  1.00  0.00     0.170 C 
BRANCH  25  26
HETATM   26  O1  UNL     1      21.939  52.849  40.567  1.00  0.00    -0.400 OA
ATOM     27  H1  UNL     1      22.774  53.120  40.928  1.00  0.00     0.209 HD
ENDBRANCH  25  26
ENDBRANCH  23  25
ENDBRANCH  22  23
BRANCH  22  28
HETATM   28  O2  UNL     1      19.599  53.028  39.223  1.00  0.00    -0.395 OA
ATOM     29  H2  UNL     1      19.572  52.349  38.558  1.00  0.00     0.210 HD
ENDBRANCH  22  28
ENDBRANCH  21  22
ENDBRANCH   1  21
TORSDOF 12
ENDMDL
