MODEL 1
REMARK VINA RESULT: -7.510703155      0.000      0.000
REMARK  13 active torsions:
REMARK  status: ('A' for Active; 'I' for Inactive)
REMARK    1  A    between atoms: C2_2  and  C3_4 
REMARK    2  A    between atoms: C3_4  and  C4_5 
REMARK    3  A    between atoms: C4_5  and  N1_6 
REMARK    4  A    between atoms: C4_5  and  C17_28 
REMARK    5  A    between atoms: N1_6  and  C5_8 
REMARK    6  A    between atoms: C5_8  and  O2_9 
REMARK    7  A    between atoms: C5_8  and  C6_11 
REMARK    8  A    between atoms: C6_11  and  C7_12 
REMARK    9  A    between atoms: C7_12  and  C9_14 
REMARK   10  A    between atoms: C9_14  and  C10_15 
REMARK   11  A    between atoms: C10_15  and  C11_16 
REMARK   12  A    between atoms: C11_16  and  O3_17 
REMARK   13  A    between atoms: N2_19  and  O4_21 
ROOT
HETATM    1  C7  UNL     1      20.018  53.974  37.368  1.00  0.00    -0.079 C 
HETATM    2  C8  UNL     1      20.198  54.178  38.809  1.00  0.00     0.043 C 
ENDROOT
BRANCH   1   3
HETATM    3  C6  UNL     1      20.808  53.257  36.645  1.00  0.00     0.058 C 
BRANCH   3   4
HETATM    4  C5  UNL     1      20.839  51.904  36.259  1.00  0.00     0.136 C 
BRANCH   4   5
HETATM    5  N1  UNL     1      21.392  51.328  35.098  1.00  0.00    -0.356 N 
ATOM      6  H1  UNL     1      22.028  51.858  34.503  1.00  0.00     0.162 HD
BRANCH   5   7
HETATM    7  C4  UNL     1      21.027  49.942  34.767  1.00  0.00     0.191 C 
BRANCH   7   8
HETATM    8  C3  UNL     1      22.076  49.261  33.937  1.00  0.00     0.114 C 
BRANCH   8   9
HETATM    9  C2  UNL     1      23.162  50.140  33.480  1.00  0.00     0.125 C 
HETATM   10  C1  UNL     1      24.530  49.925  34.036  1.00  0.00     0.091 C 
HETATM   11  O1  UNL     1      23.024  51.039  32.675  1.00  0.00    -0.298 OA
ENDBRANCH   8   9
ENDBRANCH   7   8
BRANCH   7  12
HETATM   12  C17 UNL     1      19.754  49.991  33.974  1.00  0.00     0.197 C 
HETATM   13  O5  UNL     1      19.801  49.882  32.732  1.00  0.00    -0.646 OA
HETATM   14  O6  UNL     1      18.526  50.155  34.596  1.00  0.00    -0.646 OA
ENDBRANCH   7  12
ENDBRANCH   5   7
ENDBRANCH   4   5
BRANCH   4  15
HETATM   15  O2  UNL     1      20.269  51.066  37.103  1.00  0.00    -0.346 OA
ATOM     16  H2  UNL     1      19.652  50.451  36.724  1.00  0.00     0.219 HD
ENDBRANCH   4  15
ENDBRANCH   3   4
ENDBRANCH   1   3
BRANCH   1  17
HETATM   17  C9  UNL     1      18.885  54.659  36.709  1.00  0.00     0.052 C 
BRANCH  17  18
HETATM   18  C10 UNL     1      17.507  54.199  37.099  1.00  0.00     0.030 C 
HETATM   19  C12 UNL     1      16.598  55.053  36.157  1.00  0.00     0.018 C 
HETATM   20  C13 UNL     1      15.156  54.877  36.469  1.00  0.00     0.001 C 
HETATM   21  C14 UNL     1      14.947  55.452  37.866  1.00  0.00     0.000 C 
HETATM   22  C15 UNL     1      15.654  54.520  38.797  1.00  0.00     0.001 C 
HETATM   23  C16 UNL     1      17.136  54.442  38.496  1.00  0.00     0.018 C 
BRANCH  18  24
HETATM   24  C11 UNL     1      17.326  52.810  36.598  1.00  0.00     0.144 C 
HETATM   25  N2  UNL     1      17.372  51.730  37.214  1.00  0.00    -0.250 N 
ATOM     26  H2  UNL     1      17.210  50.923  36.612  1.00  0.00     0.196 HD
BRANCH  24  27
HETATM   27  O3  UNL     1      17.064  52.725  35.208  1.00  0.00    -0.348 OA
ATOM     28  H3  UNL     1      17.570  52.060  34.757  1.00  0.00     0.219 HD
ENDBRANCH  24  27
BRANCH  25  29
HETATM   29  O4  UNL     1      17.587  51.391  38.486  1.00  0.00    -0.288 OA
ATOM     30  H4  UNL     1      17.841  50.588  38.925  1.00  0.00     0.244 HD
ENDBRANCH  25  29
ENDBRANCH  18  24
ENDBRANCH  17  18
ENDBRANCH   1  17
TORSDOF 13
ENDMDL
MODEL 2
REMARK VINA RESULT: -7.460944063      4.893      9.683
REMARK  13 active torsions:
REMARK  status: ('A' for Active; 'I' for Inactive)
REMARK    1  A    between atoms: C2_2  and  C3_4 
REMARK    2  A    between atoms: C3_4  and  C4_5 
REMARK    3  A    between atoms: C4_5  and  N1_6 
REMARK    4  A    between atoms: C4_5  and  C17_28 
REMARK    5  A    between atoms: N1_6  and  C5_8 
REMARK    6  A    between atoms: C5_8  and  O2_9 
REMARK    7  A    between atoms: C5_8  and  C6_11 
REMARK    8  A    between atoms: C6_11  and  C7_12 
REMARK    9  A    between atoms: C7_12  and  C9_14 
REMARK   10  A    between atoms: C9_14  and  C10_15 
REMARK   11  A    between atoms: C10_15  and  C11_16 
REMARK   12  A    between atoms: C11_16  and  O3_17 
REMARK   13  A    between atoms: N2_19  and  O4_21 
ROOT
HETATM    1  C7  UNL     1      15.046  55.697  37.891  1.00  0.00    -0.079 C 
HETATM    2  C8  UNL     1      15.132  56.092  39.301  1.00  0.00     0.043 C 
ENDROOT
BRANCH   1   3
HETATM    3  C6  UNL     1      14.723  56.506  36.942  1.00  0.00     0.058 C 
BRANCH   3   4
HETATM    4  C5  UNL     1      13.533  57.148  36.553  1.00  0.00     0.136 C 
BRANCH   4   5
HETATM    5  N1  UNL     1      13.235  58.526  36.538  1.00  0.00    -0.356 N 
ATOM      6  H1  UNL     1      13.753  59.167  35.938  1.00  0.00     0.162 HD
BRANCH   5   7
HETATM    7  C4  UNL     1      12.156  59.013  37.412  1.00  0.00     0.191 C 
BRANCH   7   8
HETATM    8  C3  UNL     1      11.303  60.046  36.736  1.00  0.00     0.114 C 
BRANCH   8   9
HETATM    9  C2  UNL     1      10.004  60.289  37.383  1.00  0.00     0.125 C 
HETATM   10  C1  UNL     1       9.570  61.700  37.596  1.00  0.00     0.091 C 
HETATM   11  O1  UNL     1       9.253  59.412  37.761  1.00  0.00    -0.298 OA
ENDBRANCH   8   9
ENDBRANCH   7   8
BRANCH   7  12
HETATM   12  C17 UNL     1      12.802  59.643  38.611  1.00  0.00     0.197 C 
HETATM   13  O5  UNL     1      13.163  58.921  39.562  1.00  0.00    -0.646 OA
HETATM   14  O6  UNL     1      13.005  61.012  38.681  1.00  0.00    -0.646 OA
ENDBRANCH   7  12
ENDBRANCH   5   7
ENDBRANCH   4   5
BRANCH   4  15
HETATM   15  O2  UNL     1      12.568  56.346  36.148  1.00  0.00    -0.346 OA
ATOM     16  H2  UNL     1      12.267  55.706  36.783  1.00  0.00     0.219 HD
ENDBRANCH   4  15
ENDBRANCH   3   4
ENDBRANCH   1   3
BRANCH   1  17
HETATM   17  C9  UNL     1      15.312  54.282  37.553  1.00  0.00     0.052 C 
BRANCH  17  18
HETATM   18  C10 UNL     1      16.715  53.950  37.121  1.00  0.00     0.030 C 
HETATM   19  C12 UNL     1      17.418  53.664  38.487  1.00  0.00     0.018 C 
HETATM   20  C13 UNL     1      18.880  53.455  38.324  1.00  0.00     0.001 C 
HETATM   21  C14 UNL     1      19.453  54.784  37.842  1.00  0.00     0.000 C 
HETATM   22  C15 UNL     1      18.936  54.966  36.451  1.00  0.00     0.001 C 
HETATM   23  C16 UNL     1      17.424  55.020  36.415  1.00  0.00     0.018 C 
BRANCH  18  24
HETATM   24  C11 UNL     1      16.688  52.620  36.454  1.00  0.00     0.144 C 
HETATM   25  N2  UNL     1      16.346  51.512  36.903  1.00  0.00    -0.250 N 
ATOM     26  H2  UNL     1      16.430  50.763  36.216  1.00  0.00     0.196 HD
BRANCH  24  27
HETATM   27  O3  UNL     1      17.122  52.641  35.105  1.00  0.00    -0.348 OA
ATOM     28  H3  UNL     1      16.448  52.893  34.485  1.00  0.00     0.219 HD
ENDBRANCH  24  27
BRANCH  25  29
HETATM   29  O4  UNL     1      15.893  51.083  38.083  1.00  0.00    -0.288 OA
ATOM     30  H4  UNL     1      15.334  50.367  38.359  1.00  0.00     0.244 HD
ENDBRANCH  25  29
ENDBRANCH  18  24
ENDBRANCH  17  18
ENDBRANCH   1  17
TORSDOF 13
ENDMDL
MODEL 3
REMARK VINA RESULT: -7.344467773      3.388      5.062
REMARK  13 active torsions:
REMARK  status: ('A' for Active; 'I' for Inactive)
REMARK    1  A    between atoms: C2_2  and  C3_4 
REMARK    2  A    between atoms: C3_4  and  C4_5 
REMARK    3  A    between atoms: C4_5  and  N1_6 
REMARK    4  A    between atoms: C4_5  and  C17_28 
REMARK    5  A    between atoms: N1_6  and  C5_8 
REMARK    6  A    between atoms: C5_8  and  O2_9 
REMARK    7  A    between atoms: C5_8  and  C6_11 
REMARK    8  A    between atoms: C6_11  and  C7_12 
REMARK    9  A    between atoms: C7_12  and  C9_14 
REMARK   10  A    between atoms: C9_14  and  C10_15 
REMARK   11  A    between atoms: C10_15  and  C11_16 
REMARK   12  A    between atoms: C11_16  and  O3_17 
REMARK   13  A    between atoms: N2_19  and  O4_21 
ROOT
HETATM    1  C7  UNL     1      20.022  53.892  37.715  1.00  0.00    -0.079 C 
HETATM    2  C8  UNL     1      20.792  52.887  36.975  1.00  0.00     0.043 C 
ENDROOT
BRANCH   1   3
HETATM    3  C6  UNL     1      20.206  54.157  38.962  1.00  0.00     0.058 C 
BRANCH   3   4
HETATM    4  C5  UNL     1      21.256  54.725  39.707  1.00  0.00     0.136 C 
BRANCH   4   5
HETATM    5  N1  UNL     1      22.367  54.090  40.297  1.00  0.00    -0.356 N 
ATOM      6  H1  UNL     1      22.281  53.609  41.192  1.00  0.00     0.162 HD
BRANCH   5   7
HETATM    7  C4  UNL     1      23.655  54.141  39.588  1.00  0.00     0.191 C 
BRANCH   7   8
HETATM    8  C3  UNL     1      24.378  52.826  39.630  1.00  0.00     0.114 C 
BRANCH   8   9
HETATM    9  C2  UNL     1      23.503  51.645  39.674  1.00  0.00     0.125 C 
HETATM   10  C1  UNL     1      23.449  50.757  38.477  1.00  0.00     0.091 C 
HETATM   11  O1  UNL     1      22.812  51.339  40.626  1.00  0.00    -0.298 OA
ENDBRANCH   8   9
ENDBRANCH   7   8
BRANCH   7  12
HETATM   12  C17 UNL     1      24.504  55.170  40.274  1.00  0.00     0.197 C 
HETATM   13  O5  UNL     1      25.675  54.883  40.596  1.00  0.00    -0.646 OA
HETATM   14  O6  UNL     1      24.011  56.434  40.556  1.00  0.00    -0.646 OA
ENDBRANCH   7  12
ENDBRANCH   5   7
ENDBRANCH   4   5
BRANCH   4  15
HETATM   15  O2  UNL     1      21.184  56.032  39.873  1.00  0.00    -0.346 OA
ATOM     16  H2  UNL     1      21.943  56.442  40.269  1.00  0.00     0.219 HD
ENDBRANCH   4  15
ENDBRANCH   3   4
ENDBRANCH   1   3
BRANCH   1  17
HETATM   17  C9  UNL     1      18.952  54.613  36.991  1.00  0.00     0.052 C 
BRANCH  17  18
HETATM   18  C10 UNL     1      17.539  54.191  37.292  1.00  0.00     0.030 C 
HETATM   19  C12 UNL     1      16.720  55.032  36.261  1.00  0.00     0.018 C 
HETATM   20  C13 UNL     1      15.255  54.892  36.472  1.00  0.00     0.001 C 
HETATM   21  C14 UNL     1      14.957  55.513  37.833  1.00  0.00     0.000 C 
HETATM   22  C15 UNL     1      15.575  54.597  38.839  1.00  0.00     0.001 C 
HETATM   23  C16 UNL     1      17.073  54.482  38.650  1.00  0.00     0.018 C 
BRANCH  18  24
HETATM   24  C11 UNL     1      17.367  52.790  36.819  1.00  0.00     0.144 C 
HETATM   25  N2  UNL     1      17.357  51.728  37.466  1.00  0.00    -0.250 N 
ATOM     26  H2  UNL     1      17.219  50.907  36.877  1.00  0.00     0.196 HD
BRANCH  24  27
HETATM   27  O3  UNL     1      17.191  52.670  35.418  1.00  0.00    -0.348 OA
ATOM     28  H3  UNL     1      17.226  53.496  34.951  1.00  0.00     0.219 HD
ENDBRANCH  24  27
BRANCH  25  29
HETATM   29  O4  UNL     1      17.485  51.422  38.758  1.00  0.00    -0.288 OA
ATOM     30  H4  UNL     1      17.640  50.617  39.238  1.00  0.00     0.244 HD
ENDBRANCH  25  29
ENDBRANCH  18  24
ENDBRANCH  17  18
ENDBRANCH   1  17
TORSDOF 13
ENDMDL
MODEL 4
REMARK VINA RESULT: -7.313707986      3.772      8.464
REMARK  13 active torsions:
REMARK  status: ('A' for Active; 'I' for Inactive)
REMARK    1  A    between atoms: C2_2  and  C3_4 
REMARK    2  A    between atoms: C3_4  and  C4_5 
REMARK    3  A    between atoms: C4_5  and  N1_6 
REMARK    4  A    between atoms: C4_5  and  C17_28 
REMARK    5  A    between atoms: N1_6  and  C5_8 
REMARK    6  A    between atoms: C5_8  and  O2_9 
REMARK    7  A    between atoms: C5_8  and  C6_11 
REMARK    8  A    between atoms: C6_11  and  C7_12 
REMARK    9  A    between atoms: C7_12  and  C9_14 
REMARK   10  A    between atoms: C9_14  and  C10_15 
REMARK   11  A    between atoms: C10_15  and  C11_16 
REMARK   12  A    between atoms: C11_16  and  O3_17 
REMARK   13  A    between atoms: N2_19  and  O4_21 
ROOT
HETATM    1  C7  UNL     1      15.756  55.446  36.622  1.00  0.00    -0.079 C 
HETATM    2  C8  UNL     1      16.865  56.406  36.586  1.00  0.00     0.043 C 
ENDROOT
BRANCH   1   3
HETATM    3  C6  UNL     1      14.564  55.719  36.218  1.00  0.00     0.058 C 
BRANCH   3   4
HETATM    4  C5  UNL     1      13.486  56.456  36.744  1.00  0.00     0.136 C 
BRANCH   4   5
HETATM    5  N1  UNL     1      13.317  56.970  38.045  1.00  0.00    -0.356 N 
ATOM      6  H1  UNL     1      12.730  56.489  38.726  1.00  0.00     0.162 HD
BRANCH   5   7
HETATM    7  C4  UNL     1      14.011  58.220  38.395  1.00  0.00     0.191 C 
BRANCH   7   8
HETATM    8  C3  UNL     1      14.565  58.190  39.789  1.00  0.00     0.114 C 
BRANCH   8   9
HETATM    9  C2  UNL     1      14.587  56.858  40.413  1.00  0.00     0.125 C 
HETATM   10  C1  UNL     1      13.795  56.646  41.659  1.00  0.00     0.091 C 
HETATM   11  O1  UNL     1      15.211  55.910  39.982  1.00  0.00    -0.298 OA
ENDBRANCH   8   9
ENDBRANCH   7   8
BRANCH   7  12
HETATM   12  C17 UNL     1      13.004  59.329  38.309  1.00  0.00     0.197 C 
HETATM   13  O5  UNL     1      11.884  59.103  37.808  1.00  0.00    -0.646 OA
HETATM   14  O6  UNL     1      13.296  60.601  38.777  1.00  0.00    -0.646 OA
ENDBRANCH   7  12
ENDBRANCH   5   7
ENDBRANCH   4   5
BRANCH   4  15
HETATM   15  O2  UNL     1      12.502  56.694  35.898  1.00  0.00    -0.346 OA
ATOM     16  H2  UNL     1      12.104  57.554  35.956  1.00  0.00     0.219 HD
ENDBRANCH   4  15
ENDBRANCH   3   4
ENDBRANCH   1   3
BRANCH   1  17
HETATM   17  C9  UNL     1      16.021  54.106  37.188  1.00  0.00     0.052 C 
BRANCH  17  18
HETATM   18  C10 UNL     1      17.450  53.638  37.159  1.00  0.00     0.030 C 
HETATM   19  C12 UNL     1      17.938  53.986  38.603  1.00  0.00     0.018 C 
HETATM   20  C13 UNL     1      19.395  53.747  38.768  1.00  0.00     0.001 C 
HETATM   21  C14 UNL     1      20.100  54.740  37.850  1.00  0.00     0.000 C 
HETATM   22  C15 UNL     1      19.796  54.289  36.457  1.00  0.00     0.001 C 
HETATM   23  C16 UNL     1      18.309  54.302  36.174  1.00  0.00     0.018 C 
BRANCH  18  24
HETATM   24  C11 UNL     1      17.447  52.149  37.138  1.00  0.00     0.144 C 
HETATM   25  N2  UNL     1      17.490  51.368  36.172  1.00  0.00    -0.250 N 
ATOM     26  H2  UNL     1      17.474  50.388  36.454  1.00  0.00     0.196 HD
BRANCH  24  27
HETATM   27  O3  UNL     1      17.385  51.553  38.422  1.00  0.00    -0.348 OA
ATOM     28  H3  UNL     1      17.189  50.624  38.409  1.00  0.00     0.219 HD
ENDBRANCH  24  27
BRANCH  25  29
HETATM   29  O4  UNL     1      17.552  51.524  34.848  1.00  0.00    -0.288 OA
ATOM     30  H4  UNL     1      18.240  51.429  34.200  1.00  0.00     0.244 HD
ENDBRANCH  25  29
ENDBRANCH  18  24
ENDBRANCH  17  18
ENDBRANCH   1  17
TORSDOF 13
ENDMDL
MODEL 5
REMARK VINA RESULT: -7.297816909      4.273      9.110
REMARK  13 active torsions:
REMARK  status: ('A' for Active; 'I' for Inactive)
REMARK    1  A    between atoms: C2_2  and  C3_4 
REMARK    2  A    between atoms: C3_4  and  C4_5 
REMARK    3  A    between atoms: C4_5  and  N1_6 
REMARK    4  A    between atoms: C4_5  and  C17_28 
REMARK    5  A    between atoms: N1_6  and  C5_8 
REMARK    6  A    between atoms: C5_8  and  O2_9 
REMARK    7  A    between atoms: C5_8  and  C6_11 
REMARK    8  A    between atoms: C6_11  and  C7_12 
REMARK    9  A    between atoms: C7_12  and  C9_14 
REMARK   10  A    between atoms: C9_14  and  C10_15 
REMARK   11  A    between atoms: C10_15  and  C11_16 
REMARK   12  A    between atoms: C11_16  and  O3_17 
REMARK   13  A    between atoms: N2_19  and  O4_21 
ROOT
HETATM    1  C7  UNL     1      15.136  55.061  37.944  1.00  0.00    -0.079 C 
HETATM    2  C8  UNL     1      14.910  55.216  39.384  1.00  0.00     0.043 C 
ENDROOT
BRANCH   1   3
HETATM    3  C6  UNL     1      14.954  56.007  37.088  1.00  0.00     0.058 C 
BRANCH   3   4
HETATM    4  C5  UNL     1      13.907  56.909  36.818  1.00  0.00     0.136 C 
BRANCH   4   5
HETATM    5  N1  UNL     1      13.844  58.293  37.074  1.00  0.00    -0.356 N 
ATOM      6  H1  UNL     1      14.263  58.964  36.430  1.00  0.00     0.162 HD
BRANCH   5   7
HETATM    7  C4  UNL     1      13.158  58.745  38.294  1.00  0.00     0.191 C 
BRANCH   7   8
HETATM    8  C3  UNL     1      12.276  59.933  38.042  1.00  0.00     0.114 C 
BRANCH   8   9
HETATM    9  C2  UNL     1      11.278  59.742  36.980  1.00  0.00     0.125 C 
HETATM   10  C1  UNL     1       9.856  60.086  37.272  1.00  0.00     0.091 C 
HETATM   11  O1  UNL     1      11.531  59.318  35.870  1.00  0.00    -0.298 OA
ENDBRANCH   8   9
ENDBRANCH   7   8
BRANCH   7  12
HETATM   12  C17 UNL     1      14.216  59.142  39.282  1.00  0.00     0.197 C 
HETATM   13  O5  UNL     1      14.583  60.333  39.341  1.00  0.00    -0.646 OA
HETATM   14  O6  UNL     1      14.793  58.209  40.129  1.00  0.00    -0.646 OA
ENDBRANCH   7  12
ENDBRANCH   5   7
ENDBRANCH   4   5
BRANCH   4  15
HETATM   15  O2  UNL     1      12.842  56.379  36.250  1.00  0.00    -0.346 OA
ATOM     16  H2  UNL     1      12.674  55.466  36.453  1.00  0.00     0.219 HD
ENDBRANCH   4  15
ENDBRANCH   3   4
ENDBRANCH   1   3
BRANCH   1  17
HETATM   17  C9  UNL     1      15.562  53.734  37.449  1.00  0.00     0.052 C 
BRANCH  17  18
HETATM   18  C10 UNL     1      17.038  53.545  37.228  1.00  0.00     0.030 C 
HETATM   19  C12 UNL     1      17.630  53.938  38.621  1.00  0.00     0.018 C 
HETATM   20  C13 UNL     1      19.116  53.973  38.601  1.00  0.00     0.001 C 
HETATM   21  C14 UNL     1      19.506  55.107  37.659  1.00  0.00     0.000 C 
HETATM   22  C15 UNL     1      19.117  54.647  36.290  1.00  0.00     0.001 C 
HETATM   23  C16 UNL     1      17.630  54.387  36.185  1.00  0.00     0.018 C 
BRANCH  18  24
HETATM   24  C11 UNL     1      17.306  52.085  37.132  1.00  0.00     0.144 C 
HETATM   25  N2  UNL     1      17.483  51.374  36.126  1.00  0.00    -0.250 N 
ATOM     26  H2  UNL     1      17.648  50.394  36.358  1.00  0.00     0.196 HD
BRANCH  24  27
HETATM   27  O3  UNL     1      17.363  51.423  38.383  1.00  0.00    -0.348 OA
ATOM     28  H3  UNL     1      18.218  51.069  38.596  1.00  0.00     0.219 HD
ENDBRANCH  24  27
BRANCH  25  29
HETATM   29  O4  UNL     1      17.505  51.605  34.813  1.00  0.00    -0.288 OA
ATOM     30  H4  UNL     1      17.202  51.129  34.049  1.00  0.00     0.244 HD
ENDBRANCH  25  29
ENDBRANCH  18  24
ENDBRANCH  17  18
ENDBRANCH   1  17
TORSDOF 13
ENDMDL
