MODEL 1
REMARK VINA RESULT: -8.071885377      0.000      0.000
REMARK  10 active torsions:
REMARK  status: ('A' for Active; 'I' for Inactive)
REMARK    1  A    between atoms: C2_2  and  C3_3 
REMARK    2  A    between atoms: C3_3  and  C4_4 
REMARK    3  A    between atoms: C4_4  and  N1_5 
REMARK    4  A    between atoms: C4_4  and  C7_9 
REMARK    5  A    between atoms: N1_5  and  C5_7 
REMARK    6  A    between atoms: C7_9  and  O1_10 
REMARK    7  A    between atoms: C7_9  and  C8_12 
REMARK    8  A    between atoms: C8_12  and  O2_13 
REMARK    9  A    between atoms: C8_12  and  C9_15 
REMARK   10  A    between atoms: C18_25  and  O3_26 
ROOT
HETATM    1  C9  UNL     1      16.813  55.663  37.018  1.00  0.00     0.119 C 
HETATM    2  C10 UNL     1      16.150  56.906  36.519  1.00  0.00     0.028 C 
HETATM    3  C11 UNL     1      14.976  56.851  35.651  1.00  0.00     0.002 C 
HETATM    4  C12 UNL     1      13.628  56.794  36.381  1.00  0.00     0.000 C 
HETATM    5  C13 UNL     1      13.121  58.100  36.832  1.00  0.00     0.000 C 
HETATM    6  C14 UNL     1      13.382  58.548  38.210  1.00  0.00     0.000 C 
HETATM    7  C15 UNL     1      13.316  57.561  39.309  1.00  0.00     0.006 C 
HETATM    8  C16 UNL     1      14.586  57.586  40.156  1.00  0.00     0.060 C 
HETATM    9  C17 UNL     1      14.991  56.175  40.514  1.00  0.00     0.159 C 
HETATM   10  N2  UNL     1      15.266  55.326  39.708  1.00  0.00    -0.382 NA
HETATM   11  C18 UNL     1      15.576  54.368  38.814  1.00  0.00     0.295 C 
HETATM   12  N3  UNL     1      15.958  54.586  37.395  1.00  0.00    -0.333 N 
HETATM   13  C19 UNL     1      15.386  53.594  36.505  1.00  0.00     0.155 C 
ENDROOT
BRANCH   1  14
HETATM   14  C8  UNL     1      18.006  55.289  36.135  1.00  0.00     0.171 C 
BRANCH  14  15
HETATM   15  C7  UNL     1      19.330  55.202  36.735  1.00  0.00     0.171 C 
BRANCH  15  16
HETATM   16  C4  UNL     1      19.622  53.676  37.015  1.00  0.00     0.111 C 
BRANCH  16  17
HETATM   17  C3  UNL     1      19.386  53.529  38.470  1.00  0.00     0.053 C 
BRANCH  17  18
HETATM   18  C2  UNL     1      19.914  54.504  39.399  1.00  0.00    -0.035 C 
HETATM   19  C1  UNL     1      21.198  54.445  39.804  1.00  0.00     0.007 C 
ENDBRANCH  17  18
ENDBRANCH  16  17
BRANCH  16  20
HETATM   20  N1  UNL     1      18.949  52.871  36.113  1.00  0.00    -0.415 N 
ATOM     21  H1  UNL     1      18.309  53.268  35.425  1.00  0.00     0.153 HD
BRANCH  20  22
HETATM   22  C5  UNL     1      19.179  51.487  36.178  1.00  0.00     0.110 C 
HETATM   23  C6  UNL     1      18.382  50.735  35.087  1.00  0.00     0.026 C 
ENDBRANCH  20  22
ENDBRANCH  16  20
ENDBRANCH  15  16
BRANCH  15  24
HETATM   24  O1  UNL     1      20.441  55.537  35.988  1.00  0.00    -0.391 OA
ATOM     25  H1  UNL     1      20.098  56.266  35.485  1.00  0.00     0.210 HD
ENDBRANCH  15  24
ENDBRANCH  14  15
BRANCH  14  26
HETATM   26  O2  UNL     1      17.978  55.830  34.886  1.00  0.00    -0.391 OA
ATOM     27  H2  UNL     1      17.161  55.707  34.416  1.00  0.00     0.210 HD
ENDBRANCH  14  26
ENDBRANCH   1  14
BRANCH  11  28
HETATM   28  O3  UNL     1      15.588  53.061  39.059  1.00  0.00    -0.321 OA
ATOM     29  H3  UNL     1      14.968  52.431  38.713  1.00  0.00     0.222 HD
ENDBRANCH  11  28
TORSDOF 10
ENDMDL
MODEL 2
REMARK VINA RESULT: -7.725362155      2.362      5.078
REMARK  10 active torsions:
REMARK  status: ('A' for Active; 'I' for Inactive)
REMARK    1  A    between atoms: C2_2  and  C3_3 
REMARK    2  A    between atoms: C3_3  and  C4_4 
REMARK    3  A    between atoms: C4_4  and  N1_5 
REMARK    4  A    between atoms: C4_4  and  C7_9 
REMARK    5  A    between atoms: N1_5  and  C5_7 
REMARK    6  A    between atoms: C7_9  and  O1_10 
REMARK    7  A    between atoms: C7_9  and  C8_12 
REMARK    8  A    between atoms: C8_12  and  O2_13 
REMARK    9  A    between atoms: C8_12  and  C9_15 
REMARK   10  A    between atoms: C18_25  and  O3_26 
ROOT
HETATM    1  C9  UNL     1      17.965  53.208  36.517  1.00  0.00     0.119 C 
HETATM    2  C10 UNL     1      16.705  53.101  37.315  1.00  0.00     0.028 C 
HETATM    3  C11 UNL     1      16.682  53.381  38.749  1.00  0.00     0.002 C 
HETATM    4  C12 UNL     1      16.431  54.847  39.123  1.00  0.00     0.000 C 
HETATM    5  C13 UNL     1      15.014  55.247  39.115  1.00  0.00     0.000 C 
HETATM    6  C14 UNL     1      14.444  55.884  37.916  1.00  0.00     0.000 C 
HETATM    7  C15 UNL     1      15.260  56.861  37.166  1.00  0.00     0.006 C 
HETATM    8  C16 UNL     1      15.331  56.505  35.682  1.00  0.00     0.060 C 
HETATM    9  C17 UNL     1      16.732  56.737  35.166  1.00  0.00     0.159 C 
HETATM   10  N2  UNL     1      17.708  56.176  35.586  1.00  0.00    -0.382 NA
HETATM   11  C18 UNL     1      18.809  55.554  36.050  1.00  0.00     0.295 C 
HETATM   12  N3  UNL     1      18.836  54.291  36.834  1.00  0.00    -0.333 N 
HETATM   13  C19 UNL     1      19.828  54.313  37.891  1.00  0.00     0.155 C 
ENDROOT
BRANCH   1  14
HETATM   14  C8  UNL     1      18.633  51.839  36.368  1.00  0.00     0.171 C 
BRANCH  14  15
HETATM   15  C7  UNL     1      18.367  51.050  35.173  1.00  0.00     0.171 C 
BRANCH  15  16
HETATM   16  C4  UNL     1      19.557  50.025  35.010  1.00  0.00     0.111 C 
BRANCH  16  17
HETATM   17  C3  UNL     1      19.107  49.126  33.921  1.00  0.00     0.053 C 
BRANCH  17  18
HETATM   18  C2  UNL     1      19.583  47.761  33.857  1.00  0.00    -0.035 C 
HETATM   19  C1  UNL     1      18.766  46.765  33.460  1.00  0.00     0.007 C 
ENDBRANCH  17  18
ENDBRANCH  16  17
BRANCH  16  20
HETATM   20  N1  UNL     1      20.769  50.687  34.913  1.00  0.00    -0.415 N 
ATOM     21  H1  UNL     1      20.884  51.492  34.298  1.00  0.00     0.153 HD
BRANCH  20  22
HETATM   22  C5  UNL     1      21.835  50.210  35.693  1.00  0.00     0.110 C 
HETATM   23  C6  UNL     1      22.276  51.259  36.740  1.00  0.00     0.026 C 
ENDBRANCH  20  22
ENDBRANCH  16  20
ENDBRANCH  15  16
BRANCH  15  24
HETATM   24  O1  UNL     1      17.289  50.189  35.149  1.00  0.00    -0.391 OA
ATOM     25  H1  UNL     1      17.397  49.754  35.986  1.00  0.00     0.210 HD
ENDBRANCH  15  24
ENDBRANCH  14  15
BRANCH  14  26
HETATM   26  O2  UNL     1      18.716  51.120  37.521  1.00  0.00    -0.391 OA
ATOM     27  H2  UNL     1      18.316  51.532  38.278  1.00  0.00     0.210 HD
ENDBRANCH  14  26
ENDBRANCH   1  14
BRANCH  11  28
HETATM   28  O3  UNL     1      20.059  55.972  35.880  1.00  0.00    -0.321 OA
ATOM     29  H3  UNL     1      20.569  56.455  36.520  1.00  0.00     0.222 HD
ENDBRANCH  11  28
TORSDOF 10
ENDMDL
MODEL 3
REMARK VINA RESULT: -7.697632748      0.972      2.051
REMARK  10 active torsions:
REMARK  status: ('A' for Active; 'I' for Inactive)
REMARK    1  A    between atoms: C2_2  and  C3_3 
REMARK    2  A    between atoms: C3_3  and  C4_4 
REMARK    3  A    between atoms: C4_4  and  N1_5 
REMARK    4  A    between atoms: C4_4  and  C7_9 
REMARK    5  A    between atoms: N1_5  and  C5_7 
REMARK    6  A    between atoms: C7_9  and  O1_10 
REMARK    7  A    between atoms: C7_9  and  C8_12 
REMARK    8  A    between atoms: C8_12  and  O2_13 
REMARK    9  A    between atoms: C8_12  and  C9_15 
REMARK   10  A    between atoms: C18_25  and  O3_26 
ROOT
HETATM    1  C9  UNL     1      16.810  55.669  37.001  1.00  0.00     0.119 C 
HETATM    2  C10 UNL     1      16.139  56.908  36.502  1.00  0.00     0.028 C 
HETATM    3  C11 UNL     1      14.962  56.846  35.639  1.00  0.00     0.002 C 
HETATM    4  C12 UNL     1      13.617  56.785  36.375  1.00  0.00     0.000 C 
HETATM    5  C13 UNL     1      13.106  58.090  36.825  1.00  0.00     0.000 C 
HETATM    6  C14 UNL     1      13.372  58.542  38.201  1.00  0.00     0.000 C 
HETATM    7  C15 UNL     1      13.314  57.558  39.302  1.00  0.00     0.006 C 
HETATM    8  C16 UNL     1      14.588  57.590  40.144  1.00  0.00     0.060 C 
HETATM    9  C17 UNL     1      15.001  56.181  40.503  1.00  0.00     0.159 C 
HETATM   10  N2  UNL     1      15.276  55.332  39.699  1.00  0.00    -0.382 NA
HETATM   11  C18 UNL     1      15.586  54.372  38.805  1.00  0.00     0.295 C 
HETATM   12  N3  UNL     1      15.961  54.589  37.383  1.00  0.00    -0.333 N 
HETATM   13  C19 UNL     1      15.389  53.593  36.499  1.00  0.00     0.155 C 
ENDROOT
BRANCH   1  14
HETATM   14  C8  UNL     1      18.000  55.298  36.113  1.00  0.00     0.171 C 
BRANCH  14  15
HETATM   15  C7  UNL     1      19.299  55.070  36.731  1.00  0.00     0.171 C 
BRANCH  15  16
HETATM   16  C4  UNL     1      19.387  53.535  37.091  1.00  0.00     0.111 C 
BRANCH  16  17
HETATM   17  C3  UNL     1      20.523  53.043  36.277  1.00  0.00     0.053 C 
BRANCH  17  18
HETATM   18  C2  UNL     1      21.216  51.828  36.648  1.00  0.00    -0.035 C 
HETATM   19  C1  UNL     1      22.426  51.879  37.242  1.00  0.00     0.007 C 
ENDBRANCH  17  18
ENDBRANCH  16  17
BRANCH  16  20
HETATM   20  N1  UNL     1      19.377  53.348  38.462  1.00  0.00    -0.415 N 
ATOM     21  H1  UNL     1      19.146  52.442  38.870  1.00  0.00     0.153 HD
BRANCH  20  22
HETATM   22  C5  UNL     1      19.698  54.450  39.271  1.00  0.00     0.110 C 
HETATM   23  C6  UNL     1      21.151  54.358  39.792  1.00  0.00     0.026 C 
ENDBRANCH  20  22
ENDBRANCH  16  20
ENDBRANCH  15  16
BRANCH  15  24
HETATM   24  O1  UNL     1      20.447  55.219  35.981  1.00  0.00    -0.391 OA
ATOM     25  H1  UNL     1      20.298  54.568  35.305  1.00  0.00     0.210 HD
ENDBRANCH  15  24
ENDBRANCH  14  15
BRANCH  14  26
HETATM   26  O2  UNL     1      18.041  55.950  34.919  1.00  0.00    -0.391 OA
ATOM     27  H2  UNL     1      18.049  55.385  34.155  1.00  0.00     0.210 HD
ENDBRANCH  14  26
ENDBRANCH   1  14
BRANCH  11  28
HETATM   28  O3  UNL     1      15.605  53.067  39.053  1.00  0.00    -0.321 OA
ATOM     29  H3  UNL     1      15.495  52.669  39.909  1.00  0.00     0.222 HD
ENDBRANCH  11  28
TORSDOF 10
ENDMDL
MODEL 4
REMARK VINA RESULT: -7.423303903      2.359      4.393
REMARK  10 active torsions:
REMARK  status: ('A' for Active; 'I' for Inactive)
REMARK    1  A    between atoms: C2_2  and  C3_3 
REMARK    2  A    between atoms: C3_3  and  C4_4 
REMARK    3  A    between atoms: C4_4  and  N1_5 
REMARK    4  A    between atoms: C4_4  and  C7_9 
REMARK    5  A    between atoms: N1_5  and  C5_7 
REMARK    6  A    between atoms: C7_9  and  O1_10 
REMARK    7  A    between atoms: C7_9  and  C8_12 
REMARK    8  A    between atoms: C8_12  and  O2_13 
REMARK    9  A    between atoms: C8_12  and  C9_15 
REMARK   10  A    between atoms: C18_25  and  O3_26 
ROOT
HETATM    1  C9  UNL     1      17.930  53.285  36.541  1.00  0.00     0.119 C 
HETATM    2  C10 UNL     1      16.684  53.170  37.358  1.00  0.00     0.028 C 
HETATM    3  C11 UNL     1      16.681  53.453  38.792  1.00  0.00     0.002 C 
HETATM    4  C12 UNL     1      16.424  54.919  39.165  1.00  0.00     0.000 C 
HETATM    5  C13 UNL     1      15.003  55.307  39.178  1.00  0.00     0.000 C 
HETATM    6  C14 UNL     1      14.409  55.935  37.987  1.00  0.00     0.000 C 
HETATM    7  C15 UNL     1      15.205  56.917  37.221  1.00  0.00     0.006 C 
HETATM    8  C16 UNL     1      15.255  56.557  35.737  1.00  0.00     0.060 C 
HETATM    9  C17 UNL     1      16.647  56.799  35.198  1.00  0.00     0.159 C 
HETATM   10  N2  UNL     1      17.634  56.248  35.605  1.00  0.00    -0.382 NA
HETATM   11  C18 UNL     1      18.747  55.636  36.054  1.00  0.00     0.295 C 
HETATM   12  N3  UNL     1      18.797  54.376  36.840  1.00  0.00    -0.333 N 
HETATM   13  C19 UNL     1      19.805  54.410  37.882  1.00  0.00     0.155 C 
ENDROOT
BRANCH   1  14
HETATM   14  C8  UNL     1      18.607  51.921  36.384  1.00  0.00     0.171 C 
BRANCH  14  15
HETATM   15  C7  UNL     1      18.432  51.183  35.141  1.00  0.00     0.171 C 
BRANCH  15  16
HETATM   16  C4  UNL     1      19.791  50.440  34.838  1.00  0.00     0.111 C 
BRANCH  16  17
HETATM   17  C3  UNL     1      20.827  51.463  35.115  1.00  0.00     0.053 C 
BRANCH  17  18
HETATM   18  C2  UNL     1      22.043  51.102  35.811  1.00  0.00    -0.035 C 
HETATM   19  C1  UNL     1      22.303  51.588  37.042  1.00  0.00     0.007 C 
ENDBRANCH  17  18
ENDBRANCH  16  17
BRANCH  16  20
HETATM   20  N1  UNL     1      19.835  49.211  35.473  1.00  0.00    -0.415 N 
ATOM     21  H1  UNL     1      19.490  49.097  36.426  1.00  0.00     0.153 HD
BRANCH  20  22
HETATM   22  C5  UNL     1      20.371  48.128  34.758  1.00  0.00     0.110 C 
HETATM   23  C6  UNL     1      19.383  47.624  33.681  1.00  0.00     0.026 C 
ENDBRANCH  20  22
ENDBRANCH  16  20
ENDBRANCH  15  16
BRANCH  15  24
HETATM   24  O1  UNL     1      17.550  50.122  35.095  1.00  0.00    -0.391 OA
ATOM     25  H1  UNL     1      17.041  50.287  35.880  1.00  0.00     0.210 HD
ENDBRANCH  15  24
ENDBRANCH  14  15
BRANCH  14  26
HETATM   26  O2  UNL     1      18.604  51.154  37.509  1.00  0.00    -0.391 OA
ATOM     27  H2  UNL     1      18.118  50.341  37.437  1.00  0.00     0.210 HD
ENDBRANCH  14  26
ENDBRANCH   1  14
BRANCH  11  28
HETATM   28  O3  UNL     1      19.991  56.065  35.863  1.00  0.00    -0.321 OA
ATOM     29  H3  UNL     1      20.727  55.891  36.438  1.00  0.00     0.222 HD
ENDBRANCH  11  28
TORSDOF 10
ENDMDL
MODEL 5
REMARK VINA RESULT: -7.295517235      1.886      6.856
REMARK  10 active torsions:
REMARK  status: ('A' for Active; 'I' for Inactive)
REMARK    1  A    between atoms: C2_2  and  C3_3 
REMARK    2  A    between atoms: C3_3  and  C4_4 
REMARK    3  A    between atoms: C4_4  and  N1_5 
REMARK    4  A    between atoms: C4_4  and  C7_9 
REMARK    5  A    between atoms: N1_5  and  C5_7 
REMARK    6  A    between atoms: C7_9  and  O1_10 
REMARK    7  A    between atoms: C7_9  and  C8_12 
REMARK    8  A    between atoms: C8_12  and  O2_13 
REMARK    9  A    between atoms: C8_12  and  C9_15 
REMARK   10  A    between atoms: C18_25  and  O3_26 
ROOT
HETATM    1  C9  UNL     1      16.132  55.161  36.620  1.00  0.00     0.119 C 
HETATM    2  C10 UNL     1      17.513  55.369  36.085  1.00  0.00     0.028 C 
HETATM    3  C11 UNL     1      18.617  55.770  36.953  1.00  0.00     0.002 C 
HETATM    4  C12 UNL     1      19.379  54.613  37.614  1.00  0.00     0.000 C 
HETATM    5  C13 UNL     1      20.400  53.985  36.759  1.00  0.00     0.000 C 
HETATM    6  C14 UNL     1      20.061  52.778  35.988  1.00  0.00     0.000 C 
HETATM    7  C15 UNL     1      19.203  51.747  36.609  1.00  0.00     0.006 C 
HETATM    8  C16 UNL     1      18.014  51.400  35.715  1.00  0.00     0.060 C 
HETATM    9  C17 UNL     1      16.769  51.238  36.557  1.00  0.00     0.159 C 
HETATM   10  N2  UNL     1      16.299  52.107  37.241  1.00  0.00    -0.382 NA
HETATM   11  C18 UNL     1      15.764  53.073  38.013  1.00  0.00     0.295 C 
HETATM   12  N3  UNL     1      16.026  54.532  37.894  1.00  0.00    -0.333 N 
HETATM   13  C19 UNL     1      16.131  55.184  39.185  1.00  0.00     0.155 C 
ENDROOT
BRANCH   1  14
HETATM   14  C8  UNL     1      15.277  56.415  36.423  1.00  0.00     0.171 C 
BRANCH  14  15
HETATM   15  C7  UNL     1      13.888  56.398  36.859  1.00  0.00     0.171 C 
BRANCH  15  16
HETATM   16  C4  UNL     1      13.563  57.825  37.454  1.00  0.00     0.111 C 
BRANCH  16  17
HETATM   17  C3  UNL     1      12.326  58.233  36.747  1.00  0.00     0.053 C 
BRANCH  17  18
HETATM   18  C2  UNL     1      12.031  59.634  36.541  1.00  0.00    -0.035 C 
HETATM   19  C1  UNL     1      10.846  60.152  36.924  1.00  0.00     0.007 C 
ENDBRANCH  17  18
ENDBRANCH  16  17
BRANCH  16  20
HETATM   20  N1  UNL     1      13.603  57.804  38.837  1.00  0.00    -0.415 N 
ATOM     21  H1  UNL     1      12.936  57.252  39.376  1.00  0.00     0.153 HD
BRANCH  20  22
HETATM   22  C5  UNL     1      14.596  58.568  39.471  1.00  0.00     0.110 C 
HETATM   23  C6  UNL     1      14.381  60.080  39.223  1.00  0.00     0.026 C 
ENDBRANCH  20  22
ENDBRANCH  16  20
ENDBRANCH  15  16
BRANCH  15  24
HETATM   24  O1  UNL     1      12.880  56.282  35.923  1.00  0.00    -0.391 OA
ATOM     25  H1  UNL     1      12.139  56.594  36.428  1.00  0.00     0.210 HD
ENDBRANCH  15  24
ENDBRANCH  14  15
BRANCH  14  26
HETATM   26  O2  UNL     1      15.502  57.077  35.255  1.00  0.00    -0.391 OA
ATOM     27  H2  UNL     1      14.766  57.089  34.655  1.00  0.00     0.210 HD
ENDBRANCH  14  26
ENDBRANCH   1  14
BRANCH  11  28
HETATM   28  O3  UNL     1      14.910  52.876  39.011  1.00  0.00    -0.321 OA
ATOM     29  H3  UNL     1      14.008  52.592  38.915  1.00  0.00     0.222 HD
ENDBRANCH  11  28
TORSDOF 10
ENDMDL
