MODEL 1
REMARK VINA RESULT: -8.406439890      0.000      0.000
REMARK  15 active torsions:
REMARK  status: ('A' for Active; 'I' for Inactive)
REMARK    1  A    between atoms: C4_4  and  C5_5 
REMARK    2  A    between atoms: C6_6  and  C7_7 
REMARK    3  A    between atoms: C6_6  and  C12_12 
REMARK    4  A    between atoms: C7_7  and  C8_8 
REMARK    5  A    between atoms: C8_8  and  C9_9 
REMARK    6  A    between atoms: C12_12  and  C13_13 
REMARK    7  A    between atoms: C14_14  and  O1_15 
REMARK    8  A    between atoms: C15_17  and  O2_18 
REMARK    9  A    between atoms: C15_17  and  C16_20 
REMARK   10  A    between atoms: C16_20  and  C17_21 
REMARK   11  A    between atoms: C17_21  and  C19_23 
REMARK   12  A    between atoms: C19_23  and  O3_24 
REMARK   13  A    between atoms: C19_23  and  C20_26 
REMARK   14  A    between atoms: C20_26  and  O4_27 
REMARK   15  A    between atoms: C20_26  and  O5_29 
ROOT
HETATM    1  C12 UNL     1      15.593  55.560  37.493  1.00  0.00     0.013 C 
HETATM    2  C15 UNL     1      15.653  54.121  37.462  1.00  0.00     0.055 C 
ENDROOT
BRANCH   1   3
HETATM    3  C6  UNL     1      14.984  56.212  38.716  1.00  0.00     0.030 C 
HETATM    4  C5  UNL     1      15.156  55.849  39.954  1.00  0.00     0.022 C 
BRANCH   4   5
HETATM    5  C4  UNL     1      14.444  56.654  41.002  1.00  0.00     0.003 C 
HETATM    6  C2  UNL     1      13.436  56.165  41.662  1.00  0.00    -0.088 C 
HETATM    7  C1  UNL     1      12.742  56.962  42.691  1.00  0.00     0.043 C 
HETATM    8  C3  UNL     1      12.970  54.791  41.382  1.00  0.00     0.043 C 
ENDBRANCH   4   5
BRANCH   3   9
HETATM    9  C7  UNL     1      14.112  57.367  38.475  1.00  0.00    -0.066 C 
BRANCH   9  10
HETATM   10  C8  UNL     1      13.351  58.321  38.287  1.00  0.00    -0.097 C 
BRANCH  10  11
HETATM   11  C9  UNL     1      12.437  59.438  38.083  1.00  0.00     0.057 C 
HETATM   12  C10 UNL     1      13.084  60.713  38.576  1.00  0.00     0.023 C 
HETATM   13  C11 UNL     1      12.208  59.579  36.596  1.00  0.00     0.023 C 
ENDBRANCH  10  11
ENDBRANCH   9  10
ENDBRANCH   3   9
ENDBRANCH   1   3
BRANCH   1  14
HETATM   14  C13 UNL     1      15.988  56.432  36.612  1.00  0.00     0.039 C 
HETATM   15  C14 UNL     1      16.910  56.546  35.540  1.00  0.00     0.132 C 
BRANCH  15  16
HETATM   16  O1  UNL     1      17.758  55.633  35.079  1.00  0.00    -0.373 OA
ATOM     17  H1  UNL     1      18.560  55.766  34.588  1.00  0.00     0.216 HD
ENDBRANCH  15  16
ENDBRANCH   1  14
BRANCH   2  18
HETATM   18  O2  UNL     1      15.171  53.511  38.510  1.00  0.00    -0.364 OA
ATOM     19  H2  UNL     1      15.718  53.532  39.287  1.00  0.00     0.217 HD
ENDBRANCH   2  18
BRANCH   2  20
HETATM   20  C16 UNL     1      16.151  53.216  36.480  1.00  0.00     0.072 C 
BRANCH  20  21
HETATM   21  C17 UNL     1      17.310  52.334  36.819  1.00  0.00     0.021 C 
HETATM   22  C18 UNL     1      18.333  53.208  37.550  1.00  0.00     0.013 C 
BRANCH  21  23
HETATM   23  C19 UNL     1      17.990  51.645  35.699  1.00  0.00     0.177 C 
BRANCH  23  24
HETATM   24  O3  UNL     1      17.480  50.384  35.414  1.00  0.00    -0.390 OA
ATOM     25  H3  UNL     1      18.074  49.671  35.615  1.00  0.00     0.210 HD
ENDBRANCH  23  24
BRANCH  23  26
HETATM   26  C20 UNL     1      19.466  51.412  36.052  1.00  0.00     0.282 C 
BRANCH  26  27
HETATM   27  O4  UNL     1      19.699  50.140  36.510  1.00  0.00    -0.369 OA
ATOM     28  H4  UNL     1      19.997  49.557  35.822  1.00  0.00     0.212 HD
ENDBRANCH  26  27
BRANCH  26  29
HETATM   29  O5  UNL     1      20.254  51.615  34.919  1.00  0.00    -0.369 OA
ATOM     30  H5  UNL     1      21.079  51.157  35.020  1.00  0.00     0.212 HD
ENDBRANCH  26  29
ENDBRANCH  23  26
ENDBRANCH  21  23
ENDBRANCH  20  21
ENDBRANCH   2  20
TORSDOF 15
ENDMDL
MODEL 2
REMARK VINA RESULT: -8.087113398      1.984      2.410
REMARK  15 active torsions:
REMARK  status: ('A' for Active; 'I' for Inactive)
REMARK    1  A    between atoms: C4_4  and  C5_5 
REMARK    2  A    between atoms: C6_6  and  C7_7 
REMARK    3  A    between atoms: C6_6  and  C12_12 
REMARK    4  A    between atoms: C7_7  and  C8_8 
REMARK    5  A    between atoms: C8_8  and  C9_9 
REMARK    6  A    between atoms: C12_12  and  C13_13 
REMARK    7  A    between atoms: C14_14  and  O1_15 
REMARK    8  A    between atoms: C15_17  and  O2_18 
REMARK    9  A    between atoms: C15_17  and  C16_20 
REMARK   10  A    between atoms: C16_20  and  C17_21 
REMARK   11  A    between atoms: C17_21  and  C19_23 
REMARK   12  A    between atoms: C19_23  and  O3_24 
REMARK   13  A    between atoms: C19_23  and  C20_26 
REMARK   14  A    between atoms: C20_26  and  O4_27 
REMARK   15  A    between atoms: C20_26  and  O5_29 
ROOT
HETATM    1  C12 UNL     1      15.816  56.192  37.580  1.00  0.00     0.013 C 
HETATM    2  C15 UNL     1      16.883  55.224  37.636  1.00  0.00     0.055 C 
ENDROOT
BRANCH   1   3
HETATM    3  C6  UNL     1      15.166  56.596  38.886  1.00  0.00     0.030 C 
HETATM    4  C5  UNL     1      15.132  55.899  39.984  1.00  0.00     0.022 C 
BRANCH   4   5
HETATM    5  C4  UNL     1      14.425  56.513  41.157  1.00  0.00     0.003 C 
HETATM    6  C2  UNL     1      13.399  55.934  41.708  1.00  0.00    -0.088 C 
HETATM    7  C1  UNL     1      12.710  56.544  42.860  1.00  0.00     0.043 C 
HETATM    8  C3  UNL     1      12.909  54.646  41.176  1.00  0.00     0.043 C 
ENDBRANCH   4   5
BRANCH   3   9
HETATM    9  C7  UNL     1      14.509  57.907  38.909  1.00  0.00    -0.066 C 
BRANCH   9  10
HETATM   10  C8  UNL     1      13.925  58.997  38.914  1.00  0.00    -0.097 C 
BRANCH  10  11
HETATM   11  C9  UNL     1      13.223  60.274  38.940  1.00  0.00     0.057 C 
HETATM   12  C10 UNL     1      14.231  61.401  38.905  1.00  0.00     0.023 C 
HETATM   13  C11 UNL     1      12.384  60.363  37.686  1.00  0.00     0.023 C 
ENDBRANCH  10  11
ENDBRANCH   9  10
ENDBRANCH   3   9
ENDBRANCH   1   3
BRANCH   1  14
HETATM   14  C13 UNL     1      15.294  56.801  36.557  1.00  0.00     0.039 C 
HETATM   15  C14 UNL     1      14.058  56.891  35.866  1.00  0.00     0.132 C 
BRANCH  15  16
HETATM   16  O1  UNL     1      12.916  56.268  36.131  1.00  0.00    -0.373 OA
ATOM     17  H1  UNL     1      12.735  55.630  36.812  1.00  0.00     0.216 HD
ENDBRANCH  15  16
ENDBRANCH   1  14
BRANCH   2  18
HETATM   18  O2  UNL     1      17.190  54.788  38.827  1.00  0.00    -0.364 OA
ATOM     19  H2  UNL     1      17.761  55.349  39.338  1.00  0.00     0.217 HD
ENDBRANCH   2  18
BRANCH   2  20
HETATM   20  C16 UNL     1      17.685  54.640  36.613  1.00  0.00     0.072 C 
BRANCH  20  21
HETATM   21  C17 UNL     1      19.157  54.903  36.598  1.00  0.00     0.021 C 
HETATM   22  C18 UNL     1      19.403  55.978  35.534  1.00  0.00     0.013 C 
BRANCH  21  23
HETATM   23  C19 UNL     1      20.050  53.755  36.325  1.00  0.00     0.177 C 
BRANCH  23  24
HETATM   24  O3  UNL     1      19.383  52.592  35.958  1.00  0.00    -0.390 OA
ATOM     25  H3  UNL     1      18.732  52.716  35.278  1.00  0.00     0.210 HD
ENDBRANCH  23  24
BRANCH  23  26
HETATM   26  C20 UNL     1      20.827  53.388  37.598  1.00  0.00     0.282 C 
BRANCH  26  27
HETATM   27  O4  UNL     1      21.734  54.354  37.952  1.00  0.00    -0.369 OA
ATOM     28  H4  UNL     1      22.629  54.036  37.931  1.00  0.00     0.212 HD
ENDBRANCH  26  27
BRANCH  26  29
HETATM   29  O5  UNL     1      19.935  53.222  38.657  1.00  0.00    -0.369 OA
ATOM     30  H5  UNL     1      20.415  53.201  39.476  1.00  0.00     0.212 HD
ENDBRANCH  26  29
ENDBRANCH  23  26
ENDBRANCH  21  23
ENDBRANCH  20  21
ENDBRANCH   2  20
TORSDOF 15
ENDMDL
MODEL 3
REMARK VINA RESULT: -8.023453122      1.589      2.121
REMARK  15 active torsions:
REMARK  status: ('A' for Active; 'I' for Inactive)
REMARK    1  A    between atoms: C4_4  and  C5_5 
REMARK    2  A    between atoms: C6_6  and  C7_7 
REMARK    3  A    between atoms: C6_6  and  C12_12 
REMARK    4  A    between atoms: C7_7  and  C8_8 
REMARK    5  A    between atoms: C8_8  and  C9_9 
REMARK    6  A    between atoms: C12_12  and  C13_13 
REMARK    7  A    between atoms: C14_14  and  O1_15 
REMARK    8  A    between atoms: C15_17  and  O2_18 
REMARK    9  A    between atoms: C15_17  and  C16_20 
REMARK   10  A    between atoms: C16_20  and  C17_21 
REMARK   11  A    between atoms: C17_21  and  C19_23 
REMARK   12  A    between atoms: C19_23  and  O3_24 
REMARK   13  A    between atoms: C19_23  and  C20_26 
REMARK   14  A    between atoms: C20_26  and  O4_27 
REMARK   15  A    between atoms: C20_26  and  O5_29 
ROOT
HETATM    1  C12 UNL     1      15.822  56.145  37.539  1.00  0.00     0.013 C 
HETATM    2  C15 UNL     1      16.882  55.170  37.599  1.00  0.00     0.055 C 
ENDROOT
BRANCH   1   3
HETATM    3  C6  UNL     1      15.186  56.573  38.845  1.00  0.00     0.030 C 
HETATM    4  C5  UNL     1      15.184  55.905  39.961  1.00  0.00     0.022 C 
BRANCH   4   5
HETATM    5  C4  UNL     1      14.486  56.537  41.130  1.00  0.00     0.003 C 
HETATM    6  C2  UNL     1      13.449  55.979  41.682  1.00  0.00    -0.088 C 
HETATM    7  C1  UNL     1      12.768  56.607  42.829  1.00  0.00     0.043 C 
HETATM    8  C3  UNL     1      12.937  54.697  41.155  1.00  0.00     0.043 C 
ENDBRANCH   4   5
BRANCH   3   9
HETATM    9  C7  UNL     1      14.505  57.872  38.844  1.00  0.00    -0.066 C 
BRANCH   9  10
HETATM   10  C8  UNL     1      13.905  58.952  38.863  1.00  0.00    -0.097 C 
BRANCH  10  11
HETATM   11  C9  UNL     1      13.187  60.220  38.908  1.00  0.00     0.057 C 
HETATM   12  C10 UNL     1      14.183  61.358  38.947  1.00  0.00     0.023 C 
HETATM   13  C11 UNL     1      12.391  60.344  37.630  1.00  0.00     0.023 C 
ENDBRANCH  10  11
ENDBRANCH   9  10
ENDBRANCH   3   9
ENDBRANCH   1   3
BRANCH   1  14
HETATM   14  C13 UNL     1      15.296  56.745  36.512  1.00  0.00     0.039 C 
HETATM   15  C14 UNL     1      14.051  56.848  35.839  1.00  0.00     0.132 C 
BRANCH  15  16
HETATM   16  O1  UNL     1      12.900  56.254  36.136  1.00  0.00    -0.373 OA
ATOM     17  H1  UNL     1      12.374  55.680  35.591  1.00  0.00     0.216 HD
ENDBRANCH  15  16
ENDBRANCH   1  14
BRANCH   2  18
HETATM   18  O2  UNL     1      17.196  54.747  38.793  1.00  0.00    -0.364 OA
ATOM     19  H2  UNL     1      17.747  53.974  38.825  1.00  0.00     0.217 HD
ENDBRANCH   2  18
BRANCH   2  20
HETATM   20  C16 UNL     1      17.670  54.566  36.577  1.00  0.00     0.072 C 
BRANCH  20  21
HETATM   21  C17 UNL     1      19.161  54.608  36.682  1.00  0.00     0.021 C 
HETATM   22  C18 UNL     1      19.649  55.616  35.638  1.00  0.00     0.013 C 
BRANCH  21  23
HETATM   23  C19 UNL     1      19.892  53.336  36.489  1.00  0.00     0.177 C 
BRANCH  23  24
HETATM   24  O3  UNL     1      20.660  53.292  35.332  1.00  0.00    -0.390 OA
ATOM     25  H3  UNL     1      21.151  52.486  35.221  1.00  0.00     0.210 HD
ENDBRANCH  23  24
BRANCH  23  26
HETATM   26  C20 UNL     1      18.893  52.178  36.354  1.00  0.00     0.282 C 
BRANCH  26  27
HETATM   27  O4  UNL     1      18.964  51.568  35.127  1.00  0.00    -0.369 OA
ATOM     28  H4  UNL     1      19.737  51.023  35.038  1.00  0.00     0.212 HD
ENDBRANCH  26  27
BRANCH  26  29
HETATM   29  O5  UNL     1      19.158  51.218  37.331  1.00  0.00    -0.369 OA
ATOM     30  H5  UNL     1      19.783  51.566  37.956  1.00  0.00     0.212 HD
ENDBRANCH  26  29
ENDBRANCH  23  26
ENDBRANCH  21  23
ENDBRANCH  20  21
ENDBRANCH   2  20
TORSDOF 15
ENDMDL
MODEL 4
REMARK VINA RESULT: -8.023080211      1.348      1.689
REMARK  15 active torsions:
REMARK  status: ('A' for Active; 'I' for Inactive)
REMARK    1  A    between atoms: C4_4  and  C5_5 
REMARK    2  A    between atoms: C6_6  and  C7_7 
REMARK    3  A    between atoms: C6_6  and  C12_12 
REMARK    4  A    between atoms: C7_7  and  C8_8 
REMARK    5  A    between atoms: C8_8  and  C9_9 
REMARK    6  A    between atoms: C12_12  and  C13_13 
REMARK    7  A    between atoms: C14_14  and  O1_15 
REMARK    8  A    between atoms: C15_17  and  O2_18 
REMARK    9  A    between atoms: C15_17  and  C16_20 
REMARK   10  A    between atoms: C16_20  and  C17_21 
REMARK   11  A    between atoms: C17_21  and  C19_23 
REMARK   12  A    between atoms: C19_23  and  O3_24 
REMARK   13  A    between atoms: C19_23  and  C20_26 
REMARK   14  A    between atoms: C20_26  and  O4_27 
REMARK   15  A    between atoms: C20_26  and  O5_29 
ROOT
HETATM    1  C12 UNL     1      15.519  55.314  37.466  1.00  0.00     0.013 C 
HETATM    2  C15 UNL     1      15.649  53.881  37.542  1.00  0.00     0.055 C 
ENDROOT
BRANCH   1   3
HETATM    3  C6  UNL     1      14.954  56.032  38.673  1.00  0.00     0.030 C 
HETATM    4  C5  UNL     1      15.175  55.742  39.922  1.00  0.00     0.022 C 
BRANCH   4   5
HETATM    5  C4  UNL     1      14.499  56.603  40.949  1.00  0.00     0.003 C 
HETATM    6  C2  UNL     1      13.479  56.171  41.630  1.00  0.00    -0.088 C 
HETATM    7  C1  UNL     1      12.821  57.023  42.637  1.00  0.00     0.043 C 
HETATM    8  C3  UNL     1      12.964  54.806  41.395  1.00  0.00     0.043 C 
ENDBRANCH   4   5
BRANCH   3   9
HETATM    9  C7  UNL     1      14.067  57.169  38.399  1.00  0.00    -0.066 C 
BRANCH   9  10
HETATM   10  C8  UNL     1      13.305  58.121  38.201  1.00  0.00    -0.097 C 
BRANCH  10  11
HETATM   11  C9  UNL     1      12.404  59.247  37.993  1.00  0.00     0.057 C 
HETATM   12  C10 UNL     1      13.039  60.506  38.542  1.00  0.00     0.023 C 
HETATM   13  C11 UNL     1      12.231  59.428  36.503  1.00  0.00     0.023 C 
ENDBRANCH  10  11
ENDBRANCH   9  10
ENDBRANCH   3   9
ENDBRANCH   1   3
BRANCH   1  14
HETATM   14  C13 UNL     1      15.816  56.129  36.498  1.00  0.00     0.039 C 
HETATM   15  C14 UNL     1      16.827  56.329  35.522  1.00  0.00     0.132 C 
BRANCH  15  16
HETATM   16  O1  UNL     1      17.923  55.610  35.309  1.00  0.00    -0.373 OA
ATOM     17  H1  UNL     1      18.602  55.745  34.658  1.00  0.00     0.216 HD
ENDBRANCH  15  16
ENDBRANCH   1  14
BRANCH   2  18
HETATM   18  O2  UNL     1      15.263  53.335  38.663  1.00  0.00    -0.364 OA
ATOM     19  H2  UNL     1      15.328  52.388  38.704  1.00  0.00     0.217 HD
ENDBRANCH   2  18
BRANCH   2  20
HETATM   20  C16 UNL     1      16.131  52.924  36.602  1.00  0.00     0.072 C 
BRANCH  20  21
HETATM   21  C17 UNL     1      17.601  52.666  36.508  1.00  0.00     0.021 C 
HETATM   22  C18 UNL     1      17.789  51.546  35.481  1.00  0.00     0.013 C 
BRANCH  21  23
HETATM   23  C19 UNL     1      18.306  52.290  37.754  1.00  0.00     0.177 C 
BRANCH  23  24
HETATM   24  O3  UNL     1      17.523  51.582  38.658  1.00  0.00    -0.390 OA
ATOM     25  H3  UNL     1      17.994  51.275  39.423  1.00  0.00     0.210 HD
ENDBRANCH  23  24
BRANCH  23  26
HETATM   26  C20 UNL     1      18.744  53.555  38.506  1.00  0.00     0.282 C 
BRANCH  26  27
HETATM   27  O4  UNL     1      19.775  53.313  39.378  1.00  0.00    -0.369 OA
ATOM     28  H4  UNL     1      20.519  53.883  39.224  1.00  0.00     0.212 HD
ENDBRANCH  26  27
BRANCH  26  29
HETATM   29  O5  UNL     1      19.168  54.517  37.590  1.00  0.00    -0.369 OA
ATOM     30  H5  UNL     1      19.178  55.370  38.008  1.00  0.00     0.212 HD
ENDBRANCH  26  29
ENDBRANCH  23  26
ENDBRANCH  21  23
ENDBRANCH  20  21
ENDBRANCH   2  20
TORSDOF 15
ENDMDL
MODEL 5
REMARK VINA RESULT: -8.002811075      1.760      4.299
REMARK  15 active torsions:
REMARK  status: ('A' for Active; 'I' for Inactive)
REMARK    1  A    between atoms: C4_4  and  C5_5 
REMARK    2  A    between atoms: C6_6  and  C7_7 
REMARK    3  A    between atoms: C6_6  and  C12_12 
REMARK    4  A    between atoms: C7_7  and  C8_8 
REMARK    5  A    between atoms: C8_8  and  C9_9 
REMARK    6  A    between atoms: C12_12  and  C13_13 
REMARK    7  A    between atoms: C14_14  and  O1_15 
REMARK    8  A    between atoms: C15_17  and  O2_18 
REMARK    9  A    between atoms: C15_17  and  C16_20 
REMARK   10  A    between atoms: C16_20  and  C17_21 
REMARK   11  A    between atoms: C17_21  and  C19_23 
REMARK   12  A    between atoms: C19_23  and  O3_24 
REMARK   13  A    between atoms: C19_23  and  C20_26 
REMARK   14  A    between atoms: C20_26  and  O4_27 
REMARK   15  A    between atoms: C20_26  and  O5_29 
ROOT
HETATM    1  C12 UNL     1      17.815  53.856  38.086  1.00  0.00     0.013 C 
HETATM    2  C15 UNL     1      18.979  54.526  37.563  1.00  0.00     0.055 C 
ENDROOT
BRANCH   1   3
HETATM    3  C6  UNL     1      16.463  54.475  37.804  1.00  0.00     0.030 C 
HETATM    4  C5  UNL     1      15.801  54.413  36.685  1.00  0.00     0.022 C 
BRANCH   4   5
HETATM    5  C4  UNL     1      14.472  55.108  36.644  1.00  0.00     0.003 C 
HETATM    6  C2  UNL     1      14.364  56.341  36.243  1.00  0.00    -0.088 C 
HETATM    7  C1  UNL     1      13.054  57.017  36.205  1.00  0.00     0.043 C 
HETATM    8  C3  UNL     1      15.569  57.083  35.818  1.00  0.00     0.043 C 
ENDBRANCH   4   5
BRANCH   3   9
HETATM    9  C7  UNL     1      15.842  55.218  38.906  1.00  0.00    -0.066 C 
BRANCH   9  10
HETATM   10  C8  UNL     1      15.303  55.865  39.810  1.00  0.00    -0.097 C 
BRANCH  10  11
HETATM   11  C9  UNL     1      14.675  56.651  40.864  1.00  0.00     0.057 C 
HETATM   12  C10 UNL     1      14.108  57.923  40.272  1.00  0.00     0.023 C 
HETATM   13  C11 UNL     1      13.523  55.843  41.415  1.00  0.00     0.023 C 
ENDBRANCH  10  11
ENDBRANCH   9  10
ENDBRANCH   3   9
ENDBRANCH   1   3
BRANCH   1  14
HETATM   14  C13 UNL     1      17.725  52.766  38.790  1.00  0.00     0.039 C 
HETATM   15  C14 UNL     1      16.982  51.558  38.822  1.00  0.00     0.132 C 
BRANCH  15  16
HETATM   16  O1  UNL     1      16.019  51.157  37.999  1.00  0.00    -0.373 OA
ATOM     17  H1  UNL     1      15.885  51.392  37.088  1.00  0.00     0.216 HD
ENDBRANCH  15  16
ENDBRANCH   1  14
BRANCH   2  18
HETATM   18  O2  UNL     1      18.748  55.616  36.884  1.00  0.00    -0.364 OA
ATOM     19  H2  UNL     1      19.476  55.943  36.368  1.00  0.00     0.217 HD
ENDBRANCH   2  18
BRANCH   2  20
HETATM   20  C16 UNL     1      20.367  54.216  37.650  1.00  0.00     0.072 C 
BRANCH  20  21
HETATM   21  C17 UNL     1      20.816  52.803  37.452  1.00  0.00     0.021 C 
HETATM   22  C18 UNL     1      22.206  52.687  38.084  1.00  0.00     0.013 C 
BRANCH  21  23
HETATM   23  C19 UNL     1      20.884  52.300  36.062  1.00  0.00     0.177 C 
BRANCH  23  24
HETATM   24  O3  UNL     1      20.837  53.297  35.094  1.00  0.00    -0.390 OA
ATOM     25  H3  UNL     1      20.006  53.356  34.638  1.00  0.00     0.210 HD
ENDBRANCH  23  24
BRANCH  23  26
HETATM   26  C20 UNL     1      19.673  51.402  35.773  1.00  0.00     0.282 C 
BRANCH  26  27
HETATM   27  O4  UNL     1      19.684  50.905  34.495  1.00  0.00    -0.369 OA
ATOM     28  H4  UNL     1      19.127  50.141  34.399  1.00  0.00     0.212 HD
ENDBRANCH  26  27
BRANCH  26  29
HETATM   29  O5  UNL     1      19.673  50.323  36.658  1.00  0.00    -0.369 OA
ATOM     30  H5  UNL     1      19.459  49.526  36.186  1.00  0.00     0.212 HD
ENDBRANCH  26  29
ENDBRANCH  23  26
ENDBRANCH  21  23
ENDBRANCH  20  21
ENDBRANCH   2  20
TORSDOF 15
ENDMDL
