MODEL 1
REMARK VINA RESULT: -8.650607473      0.000      0.000
REMARK  9 active torsions:
REMARK  status: ('A' for Active; 'I' for Inactive)
REMARK    1  A    between atoms: C2_2  and  C3_3 
REMARK    2  A    between atoms: C3_3  and  C4_4 
REMARK    3  A    between atoms: C4_4  and  C5_5 
REMARK    4  A    between atoms: C5_5  and  C6_6 
REMARK    5  A    between atoms: C9_11  and  C10_12 
REMARK    6  A    between atoms: C10_12  and  O1_13 
REMARK    7  A    between atoms: C10_12  and  C11_15 
REMARK    8  A    between atoms: C11_15  and  C12_16 
REMARK    9  A    between atoms: C12_16  and  O2_17 
ROOT
HETATM    1  C6  UNL     1      16.105  55.847  38.163  1.00  0.00    -0.002 C 
HETATM    2  C7  UNL     1      15.828  54.393  38.465  1.00  0.00     0.028 C 
HETATM    3  C8  UNL     1      17.034  53.584  38.759  1.00  0.00     0.144 C 
HETATM    4  N1  UNL     1      18.192  54.384  38.747  1.00  0.00    -0.400 N 
ATOM      5  H1  UNL     1      18.374  55.061  39.488  1.00  0.00     0.154 HD
HETATM    6  C9  UNL     1      19.100  54.215  37.662  1.00  0.00     0.139 C 
HETATM    7  C13 UNL     1      19.197  55.484  36.899  1.00  0.00     0.241 A 
HETATM    8  N2  UNL     1      19.353  55.562  35.493  1.00  0.00    -0.060 N 
ATOM      9  H21 UNL     1      19.566  54.908  34.740  1.00  0.00     0.278 HD
ATOM     10  H22 UNL     1      20.042  55.954  34.851  1.00  0.00     0.278 HD
HETATM   11  C14 UNL     1      18.157  56.035  36.158  1.00  0.00     0.223 A 
HETATM   12  C15 UNL     1      16.883  55.451  35.780  1.00  0.00     0.024 C 
HETATM   13  C16 UNL     1      16.807  54.044  35.290  1.00  0.00     0.022 C 
HETATM   14  C17 UNL     1      15.977  53.251  36.292  1.00  0.00     0.054 C 
HETATM   15  S1  UNL     1      16.992  52.318  37.462  1.00  0.00    -0.139 SA
HETATM   16  C18 UNL     1      15.287  54.217  37.144  1.00  0.00     0.011 C 
HETATM   17  C19 UNL     1      15.754  55.601  36.759  1.00  0.00     0.002 C 
ENDROOT
BRANCH   6  18
HETATM   18  C10 UNL     1      20.474  53.934  38.316  1.00  0.00     0.144 C 
BRANCH  18  19
HETATM   19  O1  UNL     1      21.420  54.390  37.400  1.00  0.00    -0.393 OA
ATOM     20  H1  UNL     1      22.239  54.432  37.882  1.00  0.00     0.210 HD
ENDBRANCH  18  19
BRANCH  18  21
HETATM   21  C11 UNL     1      20.632  54.703  39.582  1.00  0.00     0.060 C 
BRANCH  21  22
HETATM   22  C12 UNL     1      21.909  54.270  40.257  1.00  0.00     0.166 C 
BRANCH  22  23
HETATM   23  O2  UNL     1      21.809  52.927  40.663  1.00  0.00    -0.401 OA
ATOM     24  H2  UNL     1      22.242  52.362  40.034  1.00  0.00     0.209 HD
ENDBRANCH  22  23
ENDBRANCH  21  22
ENDBRANCH  18  21
ENDBRANCH   6  18
BRANCH   1  25
HETATM   25  C5  UNL     1      15.137  56.794  38.878  1.00  0.00     0.005 C 
BRANCH  25  26
HETATM   26  C4  UNL     1      14.281  56.095  39.877  1.00  0.00     0.000 C 
BRANCH  26  27
HETATM   27  C3  UNL     1      14.545  56.758  41.236  1.00  0.00    -0.000 C 
BRANCH  27  28
HETATM   28  C2  UNL     1      13.407  56.455  42.202  1.00  0.00    -0.005 C 
HETATM   29  C1  UNL     1      12.761  55.163  41.792  1.00  0.00     0.005 C 
ENDBRANCH  27  28
ENDBRANCH  26  27
ENDBRANCH  25  26
ENDBRANCH   1  25
TORSDOF 9
ENDMDL
MODEL 2
REMARK VINA RESULT: -8.607834817      1.112      1.239
REMARK  9 active torsions:
REMARK  status: ('A' for Active; 'I' for Inactive)
REMARK    1  A    between atoms: C2_2  and  C3_3 
REMARK    2  A    between atoms: C3_3  and  C4_4 
REMARK    3  A    between atoms: C4_4  and  C5_5 
REMARK    4  A    between atoms: C5_5  and  C6_6 
REMARK    5  A    between atoms: C9_11  and  C10_12 
REMARK    6  A    between atoms: C10_12  and  O1_13 
REMARK    7  A    between atoms: C10_12  and  C11_15 
REMARK    8  A    between atoms: C11_15  and  C12_16 
REMARK    9  A    between atoms: C12_16  and  O2_17 
ROOT
HETATM    1  C6  UNL     1      16.469  54.923  38.531  1.00  0.00    -0.002 C 
HETATM    2  C7  UNL     1      16.299  53.435  38.338  1.00  0.00     0.028 C 
HETATM    3  C8  UNL     1      17.557  52.655  38.412  1.00  0.00     0.144 C 
HETATM    4  N1  UNL     1      18.649  53.491  38.711  1.00  0.00    -0.400 N 
ATOM      5  H1  UNL     1      18.761  53.903  39.638  1.00  0.00     0.154 HD
HETATM    6  C9  UNL     1      19.593  53.741  37.673  1.00  0.00     0.139 C 
HETATM    7  C13 UNL     1      19.608  55.193  37.362  1.00  0.00     0.241 A 
HETATM    8  N2  UNL     1      19.790  55.730  36.065  1.00  0.00    -0.060 N 
ATOM      9  H21 UNL     1      20.070  55.371  35.153  1.00  0.00     0.278 HD
ATOM     10  H22 UNL     1      20.461  56.354  35.615  1.00  0.00     0.278 HD
HETATM   11  C14 UNL     1      18.546  55.884  36.790  1.00  0.00     0.223 A 
HETATM   12  C15 UNL     1      17.330  55.371  36.186  1.00  0.00     0.024 C 
HETATM   13  C16 UNL     1      17.375  54.196  35.267  1.00  0.00     0.022 C 
HETATM   14  C17 UNL     1      16.586  53.069  35.923  1.00  0.00     0.054 C 
HETATM   15  S1  UNL     1      17.642  51.877  36.778  1.00  0.00    -0.139 SA
HETATM   16  C18 UNL     1      15.804  53.660  37.006  1.00  0.00     0.011 C 
HETATM   17  C19 UNL     1      16.170  55.122  37.107  1.00  0.00     0.002 C 
ENDROOT
BRANCH   6  18
HETATM   18  C10 UNL     1      20.968  53.356  38.266  1.00  0.00     0.144 C 
BRANCH  18  19
HETATM   19  O1  UNL     1      21.840  53.310  37.180  1.00  0.00    -0.393 OA
ATOM     20  H1  UNL     1      21.387  53.756  36.473  1.00  0.00     0.210 HD
ENDBRANCH  18  19
BRANCH  18  21
HETATM   21  C11 UNL     1      21.453  54.394  39.218  1.00  0.00     0.060 C 
BRANCH  21  22
HETATM   22  C12 UNL     1      22.937  54.216  39.417  1.00  0.00     0.166 C 
BRANCH  22  23
HETATM   23  O2  UNL     1      23.644  55.134  38.621  1.00  0.00    -0.401 OA
ATOM     24  H2  UNL     1      24.510  55.282  38.983  1.00  0.00     0.209 HD
ENDBRANCH  22  23
ENDBRANCH  21  22
ENDBRANCH  18  21
ENDBRANCH   6  18
BRANCH   1  25
HETATM   25  C5  UNL     1      15.415  55.522  39.466  1.00  0.00     0.005 C 
BRANCH  25  26
HETATM   26  C4  UNL     1      14.932  56.856  39.009  1.00  0.00     0.000 C 
BRANCH  26  27
HETATM   27  C3  UNL     1      14.412  57.594  40.250  1.00  0.00    -0.000 C 
BRANCH  27  28
HETATM   28  C2  UNL     1      14.598  56.732  41.493  1.00  0.00    -0.005 C 
HETATM   29  C1  UNL     1      13.259  56.528  42.139  1.00  0.00     0.005 C 
ENDBRANCH  27  28
ENDBRANCH  26  27
ENDBRANCH  25  26
ENDBRANCH   1  25
TORSDOF 9
ENDMDL
MODEL 3
REMARK VINA RESULT: -8.479919523      1.194      1.705
REMARK  9 active torsions:
REMARK  status: ('A' for Active; 'I' for Inactive)
REMARK    1  A    between atoms: C2_2  and  C3_3 
REMARK    2  A    between atoms: C3_3  and  C4_4 
REMARK    3  A    between atoms: C4_4  and  C5_5 
REMARK    4  A    between atoms: C5_5  and  C6_6 
REMARK    5  A    between atoms: C9_11  and  C10_12 
REMARK    6  A    between atoms: C10_12  and  O1_13 
REMARK    7  A    between atoms: C10_12  and  C11_15 
REMARK    8  A    between atoms: C11_15  and  C12_16 
REMARK    9  A    between atoms: C12_16  and  O2_17 
ROOT
HETATM    1  C6  UNL     1      16.084  55.649  38.322  1.00  0.00    -0.002 C 
HETATM    2  C7  UNL     1      15.871  54.177  38.586  1.00  0.00     0.028 C 
HETATM    3  C8  UNL     1      17.115  53.405  38.812  1.00  0.00     0.144 C 
HETATM    4  N1  UNL     1      18.242  54.248  38.787  1.00  0.00    -0.400 N 
ATOM      5  H1  UNL     1      18.425  54.908  39.543  1.00  0.00     0.154 HD
HETATM    6  C9  UNL     1      19.117  54.147  37.667  1.00  0.00     0.139 C 
HETATM    7  C13 UNL     1      19.140  55.442  36.943  1.00  0.00     0.241 A 
HETATM    8  N2  UNL     1      19.244  55.569  35.536  1.00  0.00    -0.060 N 
ATOM      9  H21 UNL     1      19.454  54.948  34.755  1.00  0.00     0.278 HD
ATOM     10  H22 UNL     1      19.895  56.007  34.883  1.00  0.00     0.278 HD
HETATM   11  C14 UNL     1      18.056  55.976  36.256  1.00  0.00     0.223 A 
HETATM   12  C15 UNL     1      16.791  55.357  35.903  1.00  0.00     0.024 C 
HETATM   13  C16 UNL     1      16.750  53.964  35.370  1.00  0.00     0.022 C 
HETATM   14  C17 UNL     1      15.985  53.110  36.374  1.00  0.00     0.054 C 
HETATM   15  S1  UNL     1      17.073  52.180  37.477  1.00  0.00    -0.139 SA
HETATM   16  C18 UNL     1      15.291  54.022  37.279  1.00  0.00     0.011 C 
HETATM   17  C19 UNL     1      15.692  55.434  36.924  1.00  0.00     0.002 C 
ENDROOT
BRANCH   6  18
HETATM   18  C10 UNL     1      20.522  53.898  38.265  1.00  0.00     0.144 C 
BRANCH  18  19
HETATM   19  O1  UNL     1      21.416  54.463  37.357  1.00  0.00    -0.393 OA
ATOM     20  H1  UNL     1      21.406  55.395  37.539  1.00  0.00     0.210 HD
ENDBRANCH  18  19
BRANCH  18  21
HETATM   21  C11 UNL     1      20.678  54.589  39.575  1.00  0.00     0.060 C 
BRANCH  21  22
HETATM   22  C12 UNL     1      21.970  54.141  40.209  1.00  0.00     0.166 C 
BRANCH  22  23
HETATM   23  O2  UNL     1      21.832  52.838  40.719  1.00  0.00    -0.401 OA
ATOM     24  H2  UNL     1      22.446  52.699  41.432  1.00  0.00     0.209 HD
ENDBRANCH  22  23
ENDBRANCH  21  22
ENDBRANCH  18  21
ENDBRANCH   6  18
BRANCH   1  25
HETATM   25  C5  UNL     1      15.107  56.536  39.100  1.00  0.00     0.005 C 
BRANCH  25  26
HETATM   26  C4  UNL     1      14.616  57.692  38.298  1.00  0.00     0.000 C 
BRANCH  26  27
HETATM   27  C3  UNL     1      14.424  58.863  39.271  1.00  0.00    -0.000 C 
BRANCH  27  28
HETATM   28  C2  UNL     1      13.281  59.755  38.804  1.00  0.00    -0.005 C 
HETATM   29  C1  UNL     1      12.636  59.120  37.606  1.00  0.00     0.005 C 
ENDBRANCH  27  28
ENDBRANCH  26  27
ENDBRANCH  25  26
ENDBRANCH   1  25
TORSDOF 9
ENDMDL
MODEL 4
REMARK VINA RESULT: -8.424150741      1.421      1.766
REMARK  9 active torsions:
REMARK  status: ('A' for Active; 'I' for Inactive)
REMARK    1  A    between atoms: C2_2  and  C3_3 
REMARK    2  A    between atoms: C3_3  and  C4_4 
REMARK    3  A    between atoms: C4_4  and  C5_5 
REMARK    4  A    between atoms: C5_5  and  C6_6 
REMARK    5  A    between atoms: C9_11  and  C10_12 
REMARK    6  A    between atoms: C10_12  and  O1_13 
REMARK    7  A    between atoms: C10_12  and  C11_15 
REMARK    8  A    between atoms: C11_15  and  C12_16 
REMARK    9  A    between atoms: C12_16  and  O2_17 
ROOT
HETATM    1  C6  UNL     1      16.439  54.980  38.618  1.00  0.00    -0.002 C 
HETATM    2  C7  UNL     1      16.257  53.491  38.442  1.00  0.00     0.028 C 
HETATM    3  C8  UNL     1      17.511  52.706  38.494  1.00  0.00     0.144 C 
HETATM    4  N1  UNL     1      18.615  53.538  38.761  1.00  0.00    -0.400 N 
ATOM      5  H1  UNL     1      18.750  53.957  39.681  1.00  0.00     0.154 HD
HETATM    6  C9  UNL     1      19.535  53.775  37.700  1.00  0.00     0.139 C 
HETATM    7  C13 UNL     1      19.551  55.223  37.376  1.00  0.00     0.241 A 
HETATM    8  N2  UNL     1      19.706  55.749  36.070  1.00  0.00    -0.060 N 
ATOM      9  H21 UNL     1      19.963  55.380  35.154  1.00  0.00     0.278 HD
ATOM     10  H22 UNL     1      20.369  56.365  35.599  1.00  0.00     0.278 HD
HETATM   11  C14 UNL     1      18.479  55.915  36.822  1.00  0.00     0.223 A 
HETATM   12  C15 UNL     1      17.247  55.403  36.250  1.00  0.00     0.024 C 
HETATM   13  C16 UNL     1      17.265  54.220  35.341  1.00  0.00     0.022 C 
HETATM   14  C17 UNL     1      16.486  53.103  36.025  1.00  0.00     0.054 C 
HETATM   15  S1  UNL     1      17.556  51.913  36.866  1.00  0.00    -0.139 SA
HETATM   16  C18 UNL     1      15.732  53.708  37.121  1.00  0.00     0.011 C 
HETATM   17  C19 UNL     1      16.108  55.168  37.201  1.00  0.00     0.002 C 
ENDROOT
BRANCH   6  18
HETATM   18  C10 UNL     1      20.922  53.387  38.264  1.00  0.00     0.144 C 
BRANCH  18  19
HETATM   19  O1  UNL     1      21.783  53.392  37.168  1.00  0.00    -0.393 OA
ATOM     20  H1  UNL     1      22.591  53.782  37.482  1.00  0.00     0.210 HD
ENDBRANCH  18  19
BRANCH  18  21
HETATM   21  C11 UNL     1      21.404  54.397  39.247  1.00  0.00     0.060 C 
BRANCH  21  22
HETATM   22  C12 UNL     1      22.884  54.204  39.458  1.00  0.00     0.166 C 
BRANCH  22  23
HETATM   23  O2  UNL     1      23.608  55.092  38.643  1.00  0.00    -0.401 OA
ATOM     24  H2  UNL     1      23.276  55.976  38.749  1.00  0.00     0.209 HD
ENDBRANCH  22  23
ENDBRANCH  21  22
ENDBRANCH  18  21
ENDBRANCH   6  18
BRANCH   1  25
HETATM   25  C5  UNL     1      15.409  55.593  39.572  1.00  0.00     0.005 C 
BRANCH  25  26
HETATM   26  C4  UNL     1      14.611  56.679  38.936  1.00  0.00     0.000 C 
BRANCH  26  27
HETATM   27  C3  UNL     1      14.516  57.822  39.956  1.00  0.00    -0.000 C 
BRANCH  27  28
HETATM   28  C2  UNL     1      14.433  59.164  39.240  1.00  0.00    -0.005 C 
HETATM   29  C1  UNL     1      13.014  59.389  38.806  1.00  0.00     0.005 C 
ENDBRANCH  27  28
ENDBRANCH  26  27
ENDBRANCH  25  26
ENDBRANCH   1  25
TORSDOF 9
ENDMDL
MODEL 5
REMARK VINA RESULT: -8.240204060      0.890      1.626
REMARK  9 active torsions:
REMARK  status: ('A' for Active; 'I' for Inactive)
REMARK    1  A    between atoms: C2_2  and  C3_3 
REMARK    2  A    between atoms: C3_3  and  C4_4 
REMARK    3  A    between atoms: C4_4  and  C5_5 
REMARK    4  A    between atoms: C5_5  and  C6_6 
REMARK    5  A    between atoms: C9_11  and  C10_12 
REMARK    6  A    between atoms: C10_12  and  O1_13 
REMARK    7  A    between atoms: C10_12  and  C11_15 
REMARK    8  A    between atoms: C11_15  and  C12_16 
REMARK    9  A    between atoms: C12_16  and  O2_17 
ROOT
HETATM    1  C6  UNL     1      16.097  55.782  38.126  1.00  0.00    -0.002 C 
HETATM    2  C7  UNL     1      15.859  54.325  38.448  1.00  0.00     0.028 C 
HETATM    3  C8  UNL     1      17.082  53.559  38.780  1.00  0.00     0.144 C 
HETATM    4  N1  UNL     1      18.215  54.395  38.778  1.00  0.00    -0.400 N 
ATOM      5  H1  UNL     1      18.360  55.090  39.511  1.00  0.00     0.154 HD
HETATM    6  C9  UNL     1      19.152  54.236  37.716  1.00  0.00     0.139 C 
HETATM    7  C13 UNL     1      19.225  55.495  36.933  1.00  0.00     0.241 A 
HETATM    8  N2  UNL     1      19.408  55.554  35.530  1.00  0.00    -0.060 N 
ATOM      9  H21 UNL     1      19.657  54.895  34.793  1.00  0.00     0.278 HD
ATOM     10  H22 UNL     1      20.098  55.957  34.895  1.00  0.00     0.278 HD
HETATM   11  C14 UNL     1      18.184  56.001  36.161  1.00  0.00     0.223 A 
HETATM   12  C15 UNL     1      16.937  55.371  35.767  1.00  0.00     0.024 C 
HETATM   13  C16 UNL     1      16.916  53.954  35.300  1.00  0.00     0.022 C 
HETATM   14  C17 UNL     1      16.090  53.153  36.298  1.00  0.00     0.054 C 
HETATM   15  S1  UNL     1      17.108  52.272  37.505  1.00  0.00    -0.139 SA
HETATM   16  C18 UNL     1      15.352  54.111  37.119  1.00  0.00     0.011 C 
HETATM   17  C19 UNL     1      15.783  55.502  36.720  1.00  0.00     0.002 C 
ENDROOT
BRANCH   6  18
HETATM   18  C10 UNL     1      20.519  54.010  38.403  1.00  0.00     0.144 C 
BRANCH  18  19
HETATM   19  O1  UNL     1      20.244  53.232  39.527  1.00  0.00    -0.393 OA
ATOM     20  H1  UNL     1      19.422  53.563  39.869  1.00  0.00     0.210 HD
ENDBRANCH  18  19
BRANCH  18  21
HETATM   21  C11 UNL     1      21.445  53.251  37.518  1.00  0.00     0.060 C 
BRANCH  21  22
HETATM   22  C12 UNL     1      20.631  52.426  36.555  1.00  0.00     0.166 C 
BRANCH  22  23
HETATM   23  O2  UNL     1      20.948  52.775  35.231  1.00  0.00    -0.401 OA
ATOM     24  H2  UNL     1      20.188  53.152  34.802  1.00  0.00     0.209 HD
ENDBRANCH  22  23
ENDBRANCH  21  22
ENDBRANCH  18  21
ENDBRANCH   6  18
BRANCH   1  25
HETATM   25  C5  UNL     1      15.085  56.710  38.804  1.00  0.00     0.005 C 
BRANCH  25  26
HETATM   26  C4  UNL     1      14.288  56.021  39.858  1.00  0.00     0.000 C 
BRANCH  26  27
HETATM   27  C3  UNL     1      14.568  56.750  41.180  1.00  0.00    -0.000 C 
BRANCH  27  28
HETATM   28  C2  UNL     1      13.447  56.484  42.176  1.00  0.00    -0.005 C 
HETATM   29  C1  UNL     1      12.775  55.193  41.809  1.00  0.00     0.005 C 
ENDBRANCH  27  28
ENDBRANCH  26  27
ENDBRANCH  25  26
ENDBRANCH   1  25
TORSDOF 9
ENDMDL
