MODEL 1
REMARK VINA RESULT: -10.116393128      0.000      0.000
REMARK  9 active torsions:
REMARK  status: ('A' for Active; 'I' for Inactive)
REMARK    1  A    between atoms: C1_2  and  N2_3 
REMARK    2  A    between atoms: C1_2  and  C2_7 
REMARK    3  A    between atoms: N2_3  and  O1_5 
REMARK    4  A    between atoms: C2_7  and  N3_8 
REMARK    5  A    between atoms: C2_7  and  C8_30 
REMARK    6  A    between atoms: N3_8  and  N4_10 
REMARK    7  A    between atoms: N4_10  and  C3_12 
REMARK    8  A    between atoms: C6_19  and  S1_20 
REMARK    9  A    between atoms: S1_20  and  N7_21 
ROOT
HETATM    1  N4  UNL     1      24.663 -17.790  13.871  1.00  0.00    -0.286 N 
ATOM      2  H4  UNL     1      23.931 -18.452  14.128  1.00  0.00     0.188 HD
ENDROOT
BRANCH   1   3
HETATM    3  N3  UNL     1      25.846 -17.765  14.611  1.00  0.00    -0.317 N 
ATOM      4  H3  UNL     1      26.014 -16.989  15.253  1.00  0.00     0.181 HD
BRANCH   3   5
HETATM    5  C2  UNL     1      26.841 -18.811  14.493  1.00  0.00     0.218 C 
BRANCH   5   6
HETATM    6  C1  UNL     1      28.152 -18.232  14.172  1.00  0.00     0.143 C 
HETATM    7  N1  UNL     1      28.366 -17.575  12.913  1.00  0.00    -0.083 NA
BRANCH   6   8
HETATM    8  N2  UNL     1      29.130 -18.300  15.002  1.00  0.00    -0.257 N 
ATOM      9  H2  UNL     1      28.966 -18.183  16.002  1.00  0.00     0.195 HD
BRANCH   8  10
HETATM   10  O1  UNL     1      30.407 -18.531  14.526  1.00  0.00    -0.289 OA
ATOM     11  H1  UNL     1      30.915 -17.804  14.183  1.00  0.00     0.244 HD
ENDBRANCH   8  10
ENDBRANCH   6   8
ENDBRANCH   5   6
BRANCH   5  12
HETATM   12  C8  UNL     1      26.939 -19.593  15.773  1.00  0.00     0.075 A 
HETATM   13  C9  UNL     1      27.274 -20.934  15.914  1.00  0.00     0.137 A 
HETATM   14  N9  UNL     1      27.251 -21.255  17.226  1.00  0.00    -0.296 N 
HETATM   15  N10 UNL     1      26.913 -20.150  17.868  1.00  0.00    -0.243 N 
ATOM     16  H9  UNL     1      27.453 -22.165  17.638  1.00  0.00     0.187 HD
HETATM   17  N11 UNL     1      26.725 -19.158  17.022  1.00  0.00    -0.287 N 
ATOM     18  H10 UNL     1      26.812 -20.076  18.880  1.00  0.00     0.208 HD
ATOM     19  H11 UNL     1      26.459 -18.208  17.278  1.00  0.00     0.188 HD
ENDBRANCH   5  12
ENDBRANCH   3   5
ENDBRANCH   1   3
BRANCH   1  20
HETATM   20  C3  UNL     1      24.469 -17.001  12.874  1.00  0.00     0.159 A 
HETATM   21  N5  UNL     1      23.824 -15.811  13.049  1.00  0.00    -0.335 N 
HETATM   22  C4  UNL     1      23.618 -14.980  12.013  1.00  0.00     0.182 A 
ATOM     23  H5  UNL     1      23.495 -15.548  13.979  1.00  0.00     0.168 HD
HETATM   24  N6  UNL     1      24.045 -15.312  10.784  1.00  0.00    -0.347 N 
HETATM   25  C5  UNL     1      24.690 -16.473  10.537  1.00  0.00     0.115 A 
ATOM     26  H6  UNL     1      23.877 -14.667  10.012  1.00  0.00     0.167 HD
HETATM   27  C6  UNL     1      25.230 -17.070   9.418  1.00  0.00     0.199 A 
HETATM   28  C7  UNL     1      24.898 -17.318  11.604  1.00  0.00     0.173 A 
HETATM   29  N8  UNL     1      25.735 -18.238   9.851  1.00  0.00    -0.246 N 
HETATM   30  O4  UNL     1      25.526 -18.359  11.143  1.00  0.00    -0.231 OA
ATOM     31  H8  UNL     1      26.209 -18.926   9.266  1.00  0.00     0.196 HD
BRANCH  27  32
HETATM   32  S1  UNL     1      25.238 -16.419   7.797  1.00  0.00     0.276 S 
HETATM   33  O2  UNL     1      24.419 -15.149   7.735  1.00  0.00    -0.199 OA
HETATM   34  O3  UNL     1      24.619 -17.374   6.815  1.00  0.00    -0.199 OA
BRANCH  32  35
HETATM   35  N7  UNL     1      26.822 -16.057   7.251  1.00  0.00    -0.323 N 
ATOM     36  H72 UNL     1      27.278 -15.160   7.424  1.00  0.00     0.169 HD
ATOM     37  H71 UNL     1      27.242 -16.834   6.743  1.00  0.00     0.169 HD
ENDBRANCH  32  35
ENDBRANCH  27  32
ENDBRANCH   1  20
TORSDOF 9
ENDMDL
MODEL 2
REMARK VINA RESULT: -9.414685843      2.849      7.209
REMARK  9 active torsions:
REMARK  status: ('A' for Active; 'I' for Inactive)
REMARK    1  A    between atoms: C1_2  and  N2_3 
REMARK    2  A    between atoms: C1_2  and  C2_7 
REMARK    3  A    between atoms: N2_3  and  O1_5 
REMARK    4  A    between atoms: C2_7  and  N3_8 
REMARK    5  A    between atoms: C2_7  and  C8_30 
REMARK    6  A    between atoms: N3_8  and  N4_10 
REMARK    7  A    between atoms: N4_10  and  C3_12 
REMARK    8  A    between atoms: C6_19  and  S1_20 
REMARK    9  A    between atoms: S1_20  and  N7_21 
ROOT
HETATM    1  N4  UNL     1      24.277 -15.878  12.707  1.00  0.00    -0.286 N 
ATOM      2  H4  UNL     1      23.765 -15.001  12.794  1.00  0.00     0.188 HD
ENDROOT
BRANCH   1   3
HETATM    3  N3  UNL     1      24.829 -16.222  11.471  1.00  0.00    -0.317 N 
ATOM      4  H3  UNL     1      25.821 -16.053  11.307  1.00  0.00     0.181 HD
BRANCH   3   5
HETATM    5  C2  UNL     1      24.029 -16.811  10.417  1.00  0.00     0.218 C 
BRANCH   5   6
HETATM    6  C1  UNL     1      23.155 -15.796   9.813  1.00  0.00     0.143 C 
HETATM    7  N1  UNL     1      23.546 -15.130   8.602  1.00  0.00    -0.083 NA
BRANCH   6   8
HETATM    8  N2  UNL     1      22.031 -15.482  10.350  1.00  0.00    -0.257 N 
ATOM      9  H2  UNL     1      21.165 -15.913  10.022  1.00  0.00     0.195 HD
BRANCH   8  10
HETATM   10  O1  UNL     1      22.005 -14.555  11.374  1.00  0.00    -0.289 OA
ATOM     11  H1  UNL     1      22.818 -14.309  11.800  1.00  0.00     0.244 HD
ENDBRANCH   8  10
ENDBRANCH   6   8
ENDBRANCH   5   6
BRANCH   5  12
HETATM   12  C8  UNL     1      24.910 -17.408   9.356  1.00  0.00     0.075 A 
HETATM   13  C9  UNL     1      25.167 -18.756   9.138  1.00  0.00     0.137 A 
HETATM   14  N9  UNL     1      26.008 -18.876   8.089  1.00  0.00    -0.296 N 
HETATM   15  N10 UNL     1      26.261 -17.646   7.678  1.00  0.00    -0.243 N 
ATOM     16  H9  UNL     1      26.375 -19.742   7.694  1.00  0.00     0.187 HD
HETATM   17  N11 UNL     1      25.619 -16.766   8.417  1.00  0.00    -0.287 N 
ATOM     18  H10 UNL     1      26.871 -17.411   6.895  1.00  0.00     0.208 HD
ATOM     19  H11 UNL     1      25.656 -15.754   8.295  1.00  0.00     0.188 HD
ENDBRANCH   5  12
ENDBRANCH   3   5
ENDBRANCH   1   3
BRANCH   1  20
HETATM   20  C3  UNL     1      24.397 -16.637  13.738  1.00  0.00     0.159 A 
HETATM   21  N5  UNL     1      23.355 -16.791  14.607  1.00  0.00    -0.335 N 
HETATM   22  C4  UNL     1      23.471 -17.582  15.688  1.00  0.00     0.182 A 
ATOM     23  H5  UNL     1      22.478 -16.299  14.435  1.00  0.00     0.168 HD
HETATM   24  N6  UNL     1      24.619 -18.235  15.928  1.00  0.00    -0.347 N 
HETATM   25  C5  UNL     1      25.691 -18.130  15.111  1.00  0.00     0.115 A 
ATOM     26  H6  UNL     1      24.685 -18.830  16.754  1.00  0.00     0.167 HD
HETATM   27  C6  UNL     1      26.962 -18.662  15.097  1.00  0.00     0.199 A 
HETATM   28  C7  UNL     1      25.563 -17.318  14.007  1.00  0.00     0.173 A 
HETATM   29  N8  UNL     1      27.544 -18.153  13.997  1.00  0.00    -0.246 N 
HETATM   30  O4  UNL     1      26.698 -17.365  13.373  1.00  0.00    -0.231 OA
ATOM     31  H8  UNL     1      28.498 -18.350  13.693  1.00  0.00     0.196 HD
BRANCH  27  32
HETATM   32  S1  UNL     1      27.641 -19.759  16.275  1.00  0.00     0.276 S 
HETATM   33  O2  UNL     1      29.116 -19.484  16.462  1.00  0.00    -0.199 OA
HETATM   34  O3  UNL     1      27.525 -21.190  15.829  1.00  0.00    -0.199 OA
BRANCH  32  35
HETATM   35  N7  UNL     1      26.878 -19.622  17.804  1.00  0.00    -0.323 N 
ATOM     36  H72 UNL     1      26.100 -18.986  17.983  1.00  0.00     0.169 HD
ATOM     37  H71 UNL     1      27.291 -20.245  18.498  1.00  0.00     0.169 HD
ENDBRANCH  32  35
ENDBRANCH  27  32
ENDBRANCH   1  20
TORSDOF 9
ENDMDL
MODEL 3
REMARK VINA RESULT: -9.148530204      2.730      7.096
REMARK  9 active torsions:
REMARK  status: ('A' for Active; 'I' for Inactive)
REMARK    1  A    between atoms: C1_2  and  N2_3 
REMARK    2  A    between atoms: C1_2  and  C2_7 
REMARK    3  A    between atoms: N2_3  and  O1_5 
REMARK    4  A    between atoms: C2_7  and  N3_8 
REMARK    5  A    between atoms: C2_7  and  C8_30 
REMARK    6  A    between atoms: N3_8  and  N4_10 
REMARK    7  A    between atoms: N4_10  and  C3_12 
REMARK    8  A    between atoms: C6_19  and  S1_20 
REMARK    9  A    between atoms: S1_20  and  N7_21 
ROOT
HETATM    1  N4  UNL     1      23.519 -17.554  12.214  1.00  0.00    -0.286 N 
ATOM      2  H4  UNL     1      22.527 -17.550  11.979  1.00  0.00     0.188 HD
ENDROOT
BRANCH   1   3
HETATM    3  N3  UNL     1      24.459 -17.426  11.189  1.00  0.00    -0.317 N 
ATOM      4  H3  UNL     1      24.974 -18.252  10.881  1.00  0.00     0.181 HD
BRANCH   3   5
HETATM    5  C2  UNL     1      24.722 -16.152  10.551  1.00  0.00     0.218 C 
BRANCH   5   6
HETATM    6  C1  UNL     1      24.696 -16.299   9.090  1.00  0.00     0.143 C 
HETATM    7  N1  UNL     1      24.035 -15.319   8.274  1.00  0.00    -0.083 NA
BRANCH   6   8
HETATM    8  N2  UNL     1      25.258 -17.299   8.512  1.00  0.00    -0.257 N 
ATOM      9  H2  UNL     1      24.831 -17.726   7.690  1.00  0.00     0.195 HD
BRANCH   8  10
HETATM   10  O1  UNL     1      26.448 -17.790   9.015  1.00  0.00    -0.289 OA
ATOM     11  H1  UNL     1      27.084 -18.170   8.419  1.00  0.00     0.244 HD
ENDBRANCH   8  10
ENDBRANCH   6   8
ENDBRANCH   5   6
BRANCH   5  12
HETATM   12  C8  UNL     1      23.702 -15.131  10.971  1.00  0.00     0.075 A 
HETATM   13  C9  UNL     1      23.913 -14.007  11.759  1.00  0.00     0.137 A 
HETATM   14  N9  UNL     1      22.744 -13.348  11.904  1.00  0.00    -0.296 N 
HETATM   15  N10 UNL     1      21.845 -14.043  11.229  1.00  0.00    -0.243 N 
ATOM     16  H9  UNL     1      22.586 -12.488  12.428  1.00  0.00     0.187 HD
HETATM   17  N11 UNL     1      22.396 -15.101  10.671  1.00  0.00    -0.287 N 
ATOM     18  H10 UNL     1      20.859 -13.793  11.151  1.00  0.00     0.208 HD
ATOM     19  H11 UNL     1      21.906 -15.789  10.100  1.00  0.00     0.188 HD
ENDBRANCH   5  12
ENDBRANCH   3   5
ENDBRANCH   1   3
BRANCH   1  20
HETATM   20  C3  UNL     1      23.870 -17.677  13.445  1.00  0.00     0.159 A 
HETATM   21  N5  UNL     1      23.051 -17.238  14.444  1.00  0.00    -0.335 N 
HETATM   22  C4  UNL     1      23.409 -17.362  15.734  1.00  0.00     0.182 A 
ATOM     23  H5  UNL     1      22.155 -16.809  14.209  1.00  0.00     0.168 HD
HETATM   24  N6  UNL     1      24.585 -17.923  16.057  1.00  0.00    -0.347 N 
HETATM   25  C5  UNL     1      25.446 -18.380  15.121  1.00  0.00     0.115 A 
ATOM     26  H6  UNL     1      24.837 -18.007  17.042  1.00  0.00     0.167 HD
HETATM   27  C6  UNL     1      26.684 -18.984  15.148  1.00  0.00     0.199 A 
HETATM   28  C7  UNL     1      25.071 -18.249  13.803  1.00  0.00     0.173 A 
HETATM   29  N8  UNL     1      27.003 -19.190  13.858  1.00  0.00    -0.246 N 
HETATM   30  O4  UNL     1      26.035 -18.747  13.087  1.00  0.00    -0.231 OA
ATOM     31  H8  UNL     1      27.865 -19.623  13.527  1.00  0.00     0.196 HD
BRANCH  27  32
HETATM   32  S1  UNL     1      27.615 -19.382  16.571  1.00  0.00     0.276 S 
HETATM   33  O2  UNL     1      28.644 -18.309  16.845  1.00  0.00    -0.199 OA
HETATM   34  O3  UNL     1      28.374 -20.667  16.394  1.00  0.00    -0.199 OA
BRANCH  32  35
HETATM   35  N7  UNL     1      26.630 -19.541  17.966  1.00  0.00    -0.323 N 
ATOM     36  H72 UNL     1      25.669 -19.881  17.932  1.00  0.00     0.169 HD
ATOM     37  H71 UNL     1      27.118 -19.259  18.816  1.00  0.00     0.169 HD
ENDBRANCH  32  35
ENDBRANCH  27  32
ENDBRANCH   1  20
TORSDOF 9
ENDMDL
MODEL 4
REMARK VINA RESULT: -9.047865432      1.964      2.707
REMARK  9 active torsions:
REMARK  status: ('A' for Active; 'I' for Inactive)
REMARK    1  A    between atoms: C1_2  and  N2_3 
REMARK    2  A    between atoms: C1_2  and  C2_7 
REMARK    3  A    between atoms: N2_3  and  O1_5 
REMARK    4  A    between atoms: C2_7  and  N3_8 
REMARK    5  A    between atoms: C2_7  and  C8_30 
REMARK    6  A    between atoms: N3_8  and  N4_10 
REMARK    7  A    between atoms: N4_10  and  C3_12 
REMARK    8  A    between atoms: C6_19  and  S1_20 
REMARK    9  A    between atoms: S1_20  and  N7_21 
ROOT
HETATM    1  N4  UNL     1      25.766 -19.403  14.956  1.00  0.00    -0.286 N 
ATOM      2  H4  UNL     1      25.454 -20.017  15.707  1.00  0.00     0.188 HD
ENDROOT
BRANCH   1   3
HETATM    3  N3  UNL     1      27.016 -19.621  14.376  1.00  0.00    -0.317 N 
ATOM      4  H3  UNL     1      27.070 -19.846  13.382  1.00  0.00     0.181 HD
BRANCH   3   5
HETATM    5  C2  UNL     1      28.240 -19.535  15.146  1.00  0.00     0.218 C 
BRANCH   5   6
HETATM    6  C1  UNL     1      29.071 -18.426  14.661  1.00  0.00     0.143 C 
HETATM    7  N1  UNL     1      30.458 -18.345  15.026  1.00  0.00    -0.083 NA
BRANCH   6   8
HETATM    8  N2  UNL     1      28.582 -17.510  13.904  1.00  0.00    -0.257 N 
ATOM      9  H2  UNL     1      28.250 -16.633  14.305  1.00  0.00     0.195 HD
BRANCH   8  10
HETATM   10  O1  UNL     1      28.510 -17.726  12.540  1.00  0.00    -0.289 OA
ATOM     11  H1  UNL     1      29.046 -17.201  11.957  1.00  0.00     0.244 HD
ENDBRANCH   8  10
ENDBRANCH   6   8
ENDBRANCH   5   6
BRANCH   5  12
HETATM   12  C8  UNL     1      27.932 -19.330  16.603  1.00  0.00     0.075 A 
HETATM   13  C9  UNL     1      27.226 -20.184  17.441  1.00  0.00     0.137 A 
HETATM   14  N9  UNL     1      27.169 -19.638  18.675  1.00  0.00    -0.296 N 
HETATM   15  N10 UNL     1      27.817 -18.489  18.598  1.00  0.00    -0.243 N 
ATOM     16  H9  UNL     1      26.718 -20.033  19.499  1.00  0.00     0.187 HD
HETATM   17  N11 UNL     1      28.275 -18.292  17.379  1.00  0.00    -0.287 N 
ATOM     18  H10 UNL     1      27.945 -17.843  19.377  1.00  0.00     0.208 HD
ATOM     19  H11 UNL     1      28.806 -17.478  17.073  1.00  0.00     0.188 HD
ENDBRANCH   5  12
ENDBRANCH   3   5
ENDBRANCH   1   3
BRANCH   1  20
HETATM   20  C3  UNL     1      24.995 -18.448  14.570  1.00  0.00     0.159 A 
HETATM   21  N5  UNL     1      24.080 -17.909  15.428  1.00  0.00    -0.335 N 
HETATM   22  C4  UNL     1      23.270 -16.911  15.034  1.00  0.00     0.182 A 
ATOM     23  H5  UNL     1      24.009 -18.269  16.381  1.00  0.00     0.168 HD
HETATM   24  N6  UNL     1      23.352 -16.428  13.784  1.00  0.00    -0.347 N 
HETATM   25  C5  UNL     1      24.234 -16.913  12.881  1.00  0.00     0.115 A 
ATOM     26  H6  UNL     1      22.727 -15.671  13.506  1.00  0.00     0.167 HD
HETATM   27  C6  UNL     1      24.540 -16.629  11.568  1.00  0.00     0.199 A 
HETATM   28  C7  UNL     1      25.059 -17.935  13.294  1.00  0.00     0.173 A 
HETATM   29  N8  UNL     1      25.527 -17.483  11.245  1.00  0.00    -0.246 N 
HETATM   30  O4  UNL     1      25.813 -18.241  12.280  1.00  0.00    -0.231 OA
ATOM     31  H8  UNL     1      25.985 -17.535  10.335  1.00  0.00     0.196 HD
BRANCH  27  32
HETATM   32  S1  UNL     1      23.787 -15.414  10.566  1.00  0.00     0.276 S 
HETATM   33  O2  UNL     1      24.433 -15.383   9.199  1.00  0.00    -0.199 OA
HETATM   34  O3  UNL     1      23.952 -14.037  11.148  1.00  0.00    -0.199 OA
BRANCH  32  35
HETATM   35  N7  UNL     1      22.109 -15.696  10.354  1.00  0.00    -0.323 N 
ATOM     36  H72 UNL     1      21.510 -16.064  11.093  1.00  0.00     0.169 HD
ATOM     37  H71 UNL     1      21.793 -15.455   9.415  1.00  0.00     0.169 HD
ENDBRANCH  32  35
ENDBRANCH  27  32
ENDBRANCH   1  20
TORSDOF 9
ENDMDL
MODEL 5
REMARK VINA RESULT: -9.046727644      1.666      1.835
REMARK  9 active torsions:
REMARK  status: ('A' for Active; 'I' for Inactive)
REMARK    1  A    between atoms: C1_2  and  N2_3 
REMARK    2  A    between atoms: C1_2  and  C2_7 
REMARK    3  A    between atoms: N2_3  and  O1_5 
REMARK    4  A    between atoms: C2_7  and  N3_8 
REMARK    5  A    between atoms: C2_7  and  C8_30 
REMARK    6  A    between atoms: N3_8  and  N4_10 
REMARK    7  A    between atoms: N4_10  and  C3_12 
REMARK    8  A    between atoms: C6_19  and  S1_20 
REMARK    9  A    between atoms: S1_20  and  N7_21 
ROOT
HETATM    1  N4  UNL     1      25.007 -19.432  12.439  1.00  0.00    -0.286 N 
ATOM      2  H4  UNL     1      24.956 -20.338  11.975  1.00  0.00     0.188 HD
ENDROOT
BRANCH   1   3
HETATM    3  N3  UNL     1      25.360 -19.380  13.789  1.00  0.00    -0.317 N 
ATOM      4  H3  UNL     1      24.623 -19.391  14.495  1.00  0.00     0.181 HD
BRANCH   3   5
HETATM    5  C2  UNL     1      26.743 -19.312  14.213  1.00  0.00     0.218 C 
BRANCH   5   6
HETATM    6  C1  UNL     1      27.259 -17.947  14.051  1.00  0.00     0.143 C 
HETATM    7  N1  UNL     1      28.300 -17.673  13.099  1.00  0.00    -0.083 NA
BRANCH   6   8
HETATM    8  N2  UNL     1      26.796 -16.973  14.749  1.00  0.00    -0.257 N 
ATOM      9  H2  UNL     1      27.425 -16.389  15.301  1.00  0.00     0.195 HD
BRANCH   8  10
HETATM   10  O1  UNL     1      25.436 -16.725  14.746  1.00  0.00    -0.289 OA
ATOM     11  H1  UNL     1      25.126 -15.831  14.838  1.00  0.00     0.244 HD
ENDBRANCH   8  10
ENDBRANCH   6   8
ENDBRANCH   5   6
BRANCH   5  12
HETATM   12  C8  UNL     1      26.876 -19.730  15.651  1.00  0.00     0.075 A 
HETATM   13  C9  UNL     1      27.356 -20.941  16.133  1.00  0.00     0.137 A 
HETATM   14  N9  UNL     1      27.314 -20.922  17.483  1.00  0.00    -0.296 N 
HETATM   15  N10 UNL     1      26.824 -19.741  17.818  1.00  0.00    -0.243 N 
ATOM     16  H9  UNL     1      27.602 -21.668  18.115  1.00  0.00     0.187 HD
HETATM   17  N11 UNL     1      26.560 -19.024  16.746  1.00  0.00    -0.287 N 
ATOM     18  H10 UNL     1      26.672 -19.429  18.777  1.00  0.00     0.208 HD
ATOM     19  H11 UNL     1      26.175 -18.080  16.748  1.00  0.00     0.188 HD
ENDBRANCH   5  12
ENDBRANCH   3   5
ENDBRANCH   1   3
BRANCH   1  20
HETATM   20  C3  UNL     1      24.745 -18.369  11.765  1.00  0.00     0.159 A 
HETATM   21  N5  UNL     1      24.096 -17.321  12.352  1.00  0.00    -0.335 N 
HETATM   22  C4  UNL     1      23.818 -16.206  11.655  1.00  0.00     0.182 A 
ATOM     23  H5  UNL     1      23.817 -17.385  13.331  1.00  0.00     0.168 HD
HETATM   24  N6  UNL     1      24.177 -16.107  10.365  1.00  0.00    -0.347 N 
HETATM   25  C5  UNL     1      24.822 -17.104   9.720  1.00  0.00     0.115 A 
ATOM     26  H6  UNL     1      23.955 -15.252   9.855  1.00  0.00     0.167 HD
HETATM   27  C6  UNL     1      25.303 -17.287   8.441  1.00  0.00     0.199 A 
HETATM   28  C7  UNL     1      25.103 -18.243  10.441  1.00  0.00     0.173 A 
HETATM   29  N8  UNL     1      25.849 -18.516   8.443  1.00  0.00    -0.246 N 
HETATM   30  O4  UNL     1      25.717 -19.056   9.634  1.00  0.00    -0.231 OA
ATOM     31  H8  UNL     1      26.297 -18.962   7.643  1.00  0.00     0.196 HD
BRANCH  27  32
HETATM   32  S1  UNL     1      25.208 -16.146   7.123  1.00  0.00     0.276 S 
HETATM   33  O2  UNL     1      26.582 -15.615   6.784  1.00  0.00    -0.199 OA
HETATM   34  O3  UNL     1      24.366 -14.953   7.484  1.00  0.00    -0.199 OA
BRANCH  32  35
HETATM   35  N7  UNL     1      24.545 -16.846   5.705  1.00  0.00    -0.323 N 
ATOM     36  H72 UNL     1      24.414 -17.852   5.591  1.00  0.00     0.169 HD
ATOM     37  H71 UNL     1      24.303 -16.145   5.006  1.00  0.00     0.169 HD
ENDBRANCH  32  35
ENDBRANCH  27  32
ENDBRANCH   1  20
TORSDOF 9
ENDMDL
