MODEL 1
REMARK VINA RESULT: -7.180627753      0.000      0.000
REMARK  3 active torsions:
REMARK  status: ('A' for Active; 'I' for Inactive)
REMARK    1  A    between atoms: C2_3  and  N2_4 
REMARK    2  A    between atoms: N2_4  and  N3_6 
REMARK    3  A    between atoms: C3_11  and  N5_12 
ROOT
HETATM    1  C1  UNL     1     -15.255  58.115   6.834  1.00  0.00     0.179 C 
HETATM    2  N1  UNL     1     -15.417  58.745   8.135  1.00  0.00    -0.145 N 
HETATM    3  C2  UNL     1     -16.681  58.817   8.575  1.00  0.00     0.715 C 
HETATM    4  N4  UNL     1     -17.085  59.090   9.841  1.00  0.00    -0.021 N 
ATOM      5  H4  UNL     1     -18.092  59.042   9.991  1.00  0.00     0.203 HD
HETATM    6  C3  UNL     1     -16.365  59.413  10.926  1.00  0.00     0.693 C 
HETATM    7  N6  UNL     1     -15.064  59.755  10.979  1.00  0.00    -0.151 N 
ATOM      8  H6  UNL     1     -14.734  60.138  11.865  1.00  0.00     0.188 HD
HETATM    9  C4  UNL     1     -14.135  59.649   9.986  1.00  0.00     0.328 C 
HETATM   10  O1  UNL     1     -12.985  60.056  10.280  1.00  0.00    -0.261 OA
HETATM   11  C5  UNL     1     -14.265  59.164   8.704  1.00  0.00     0.330 C 
HETATM   12  O2  UNL     1     -13.214  59.110   8.016  1.00  0.00    -0.261 OA
ENDROOT
BRANCH   3  13
HETATM   13  N2  UNL     1     -17.613  58.600   7.685  1.00  0.00    -0.138 N 
ATOM     14  H2  UNL     1     -17.369  58.492   6.700  1.00  0.00     0.205 HD
BRANCH  13  15
HETATM   15  N3  UNL     1     -18.946  58.517   8.097  1.00  0.00    -0.331 N 
ATOM     16  H32 UNL     1     -19.158  58.241   9.056  1.00  0.00     0.177 HD
ATOM     17  H31 UNL     1     -19.688  58.734   7.432  1.00  0.00     0.177 HD
ENDBRANCH  13  15
ENDBRANCH   3  13
BRANCH   6  18
HETATM   18  N5  UNL     1     -17.008  59.390  12.040  1.00  0.00    -0.234 N 
ATOM     19  H52 UNL     1     -18.025  59.321  11.986  1.00  0.00     0.174 HD
ATOM     20  H51 UNL     1     -16.430  59.442  12.878  1.00  0.00     0.174 HD
ENDBRANCH   6  18
TORSDOF 3
ENDMDL
MODEL 2
REMARK VINA RESULT: -7.136057600      2.662      4.731
REMARK  3 active torsions:
REMARK  status: ('A' for Active; 'I' for Inactive)
REMARK    1  A    between atoms: C2_3  and  N2_4 
REMARK    2  A    between atoms: N2_4  and  N3_6 
REMARK    3  A    between atoms: C3_11  and  N5_12 
ROOT
HETATM    1  C1  UNL     1     -15.856  59.066   9.242  1.00  0.00     0.179 C 
HETATM    2  N1  UNL     1     -14.582  59.095   8.540  1.00  0.00    -0.145 N 
HETATM    3  C2  UNL     1     -13.526  59.424   9.298  1.00  0.00     0.715 C 
HETATM    4  N4  UNL     1     -12.218  59.260   8.981  1.00  0.00    -0.021 N 
ATOM      5  H4  UNL     1     -11.561  59.520   9.715  1.00  0.00     0.203 HD
HETATM    6  C3  UNL     1     -11.653  58.807   7.850  1.00  0.00     0.693 C 
HETATM    7  N6  UNL     1     -12.247  58.599   6.660  1.00  0.00    -0.151 N 
ATOM      8  H6  UNL     1     -11.626  58.421   5.871  1.00  0.00     0.188 HD
HETATM    9  C4  UNL     1     -13.583  58.597   6.386  1.00  0.00     0.328 C 
HETATM   10  O1  UNL     1     -13.886  58.394   5.184  1.00  0.00    -0.261 OA
HETATM   11  C5  UNL     1     -14.657  58.785   7.227  1.00  0.00     0.330 C 
HETATM   12  O2  UNL     1     -15.798  58.652   6.717  1.00  0.00    -0.261 OA
ENDROOT
BRANCH   3  13
HETATM   13  N2  UNL     1     -13.796  59.958  10.459  1.00  0.00    -0.138 N 
ATOM     14  H2  UNL     1     -14.500  60.693  10.537  1.00  0.00     0.205 HD
BRANCH  13  15
HETATM   15  N3  UNL     1     -13.111  59.512  11.593  1.00  0.00    -0.331 N 
ATOM     16  H32 UNL     1     -12.164  59.845  11.769  1.00  0.00     0.177 HD
ATOM     17  H31 UNL     1     -13.569  58.859  12.228  1.00  0.00     0.177 HD
ENDBRANCH  13  15
ENDBRANCH   3  13
BRANCH   6  18
HETATM   18  N5  UNL     1     -10.396  58.547   7.929  1.00  0.00    -0.234 N 
ATOM     19  H52 UNL     1      -9.802  58.903   7.180  1.00  0.00     0.174 HD
ATOM     20  H51 UNL     1     -10.114  58.004   8.744  1.00  0.00     0.174 HD
ENDBRANCH   6  18
TORSDOF 3
ENDMDL
MODEL 3
REMARK VINA RESULT: -7.063461575      1.296      3.408
REMARK  3 active torsions:
REMARK  status: ('A' for Active; 'I' for Inactive)
REMARK    1  A    between atoms: C2_3  and  N2_4 
REMARK    2  A    between atoms: N2_4  and  N3_6 
REMARK    3  A    between atoms: C3_11  and  N5_12 
ROOT
HETATM    1  C1  UNL     1     -13.600  59.816   9.407  1.00  0.00     0.179 C 
HETATM    2  N1  UNL     1     -14.781  59.138   8.895  1.00  0.00    -0.145 N 
HETATM    3  C2  UNL     1     -15.863  59.215   9.682  1.00  0.00     0.715 C 
HETATM    4  N4  UNL     1     -17.142  58.925   9.335  1.00  0.00    -0.021 N 
ATOM      5  H4  UNL     1     -17.836  59.102  10.060  1.00  0.00     0.203 HD
HETATM    6  C3  UNL     1     -17.635  58.441   8.184  1.00  0.00     0.693 C 
HETATM    7  N6  UNL     1     -16.950  57.921   7.149  1.00  0.00    -0.151 N 
ATOM      8  H6  UNL     1     -17.502  57.444   6.437  1.00  0.00     0.188 HD
HETATM    9  C4  UNL     1     -15.603  57.957   6.941  1.00  0.00     0.328 C 
HETATM   10  O1  UNL     1     -15.203  57.378   5.901  1.00  0.00    -0.261 OA
HETATM   11  C5  UNL     1     -14.607  58.531   7.700  1.00  0.00     0.330 C 
HETATM   12  O2  UNL     1     -13.443  58.481   7.228  1.00  0.00    -0.261 OA
ENDROOT
BRANCH   3  13
HETATM   13  N2  UNL     1     -15.653  59.611  10.910  1.00  0.00    -0.138 N 
ATOM     14  H2  UNL     1     -14.708  59.626  11.292  1.00  0.00     0.205 HD
BRANCH  13  15
HETATM   15  N3  UNL     1     -16.739  60.013  11.693  1.00  0.00    -0.331 N 
ATOM     16  H32 UNL     1     -17.142  60.939  11.554  1.00  0.00     0.177 HD
ATOM     17  H31 UNL     1     -17.114  59.373  12.394  1.00  0.00     0.177 HD
ENDBRANCH  13  15
ENDBRANCH   3  13
BRANCH   6  18
HETATM   18  N5  UNL     1     -18.916  58.487   8.073  1.00  0.00    -0.234 N 
ATOM     19  H52 UNL     1     -19.441  58.797   8.891  1.00  0.00     0.174 HD
ATOM     20  H51 UNL     1     -19.285  58.205   7.165  1.00  0.00     0.174 HD
ENDBRANCH   6  18
TORSDOF 3
ENDMDL
MODEL 4
REMARK VINA RESULT: -6.927916556      2.725      4.151
REMARK  3 active torsions:
REMARK  status: ('A' for Active; 'I' for Inactive)
REMARK    1  A    between atoms: C2_3  and  N2_4 
REMARK    2  A    between atoms: N2_4  and  N3_6 
REMARK    3  A    between atoms: C3_11  and  N5_12 
ROOT
HETATM    1  C1  UNL     1     -13.263  58.544   5.644  1.00  0.00     0.179 C 
HETATM    2  N1  UNL     1     -13.588  58.604   7.061  1.00  0.00    -0.145 N 
HETATM    3  C2  UNL     1     -12.553  58.881   7.867  1.00  0.00     0.715 C 
HETATM    4  N4  UNL     1     -12.616  59.266   9.166  1.00  0.00    -0.021 N 
ATOM      5  H4  UNL     1     -11.717  59.486   9.594  1.00  0.00     0.203 HD
HETATM    6  C3  UNL     1     -13.678  59.403   9.975  1.00  0.00     0.693 C 
HETATM    7  N6  UNL     1     -14.939  58.985   9.755  1.00  0.00    -0.151 N 
ATOM      8  H6  UNL     1     -15.571  59.020  10.556  1.00  0.00     0.188 HD
HETATM    9  C4  UNL     1     -15.471  58.521   8.589  1.00  0.00     0.328 C 
HETATM   10  O1  UNL     1     -16.675  58.173   8.647  1.00  0.00    -0.261 OA
HETATM   11  C5  UNL     1     -14.888  58.373   7.350  1.00  0.00     0.330 C 
HETATM   12  O2  UNL     1     -15.640  57.991   6.419  1.00  0.00    -0.261 OA
ENDROOT
BRANCH   3  13
HETATM   13  N2  UNL     1     -11.364  58.763   7.337  1.00  0.00    -0.138 N 
ATOM     14  H2  UNL     1     -11.231  58.902   6.335  1.00  0.00     0.205 HD
BRANCH  13  15
HETATM   15  N3  UNL     1     -10.278  58.443   8.157  1.00  0.00    -0.331 N 
ATOM     16  H32 UNL     1      -9.516  59.113   8.262  1.00  0.00     0.177 HD
ATOM     17  H31 UNL     1     -10.264  57.545   8.639  1.00  0.00     0.177 HD
ENDBRANCH  13  15
ENDBRANCH   3  13
BRANCH   6  18
HETATM   18  N5  UNL     1     -13.447  60.005  11.087  1.00  0.00    -0.234 N 
ATOM     19  H52 UNL     1     -12.721  59.611  11.686  1.00  0.00     0.174 HD
ATOM     20  H51 UNL     1     -14.021  60.830  11.264  1.00  0.00     0.174 HD
ENDBRANCH   6  18
TORSDOF 3
ENDMDL
MODEL 5
REMARK VINA RESULT: -6.809399237      1.882      3.539
REMARK  3 active torsions:
REMARK  status: ('A' for Active; 'I' for Inactive)
REMARK    1  A    between atoms: C2_3  and  N2_4 
REMARK    2  A    between atoms: N2_4  and  N3_6 
REMARK    3  A    between atoms: C3_11  and  N5_12 
ROOT
HETATM    1  C1  UNL     1     -13.259  59.445   7.717  1.00  0.00     0.179 C 
HETATM    2  N1  UNL     1     -14.384  59.209   8.608  1.00  0.00    -0.145 N 
HETATM    3  C2  UNL     1     -14.113  59.363   9.912  1.00  0.00     0.715 C 
HETATM    4  N4  UNL     1     -15.014  59.480  10.919  1.00  0.00    -0.021 N 
ATOM      5  H4  UNL     1     -14.611  59.649  11.841  1.00  0.00     0.203 HD
HETATM    6  C3  UNL     1     -16.354  59.407  10.892  1.00  0.00     0.693 C 
HETATM    7  N6  UNL     1     -17.135  58.988   9.879  1.00  0.00    -0.151 N 
ATOM      8  H6  UNL     1     -18.119  58.835  10.101  1.00  0.00     0.188 HD
HETATM    9  C4  UNL     1     -16.765  58.743   8.590  1.00  0.00     0.328 C 
HETATM   10  O1  UNL     1     -17.682  58.339   7.834  1.00  0.00    -0.261 OA
HETATM   11  C5  UNL     1     -15.534  58.869   7.985  1.00  0.00     0.330 C 
HETATM   12  O2  UNL     1     -15.491  58.648   6.749  1.00  0.00    -0.261 OA
ENDROOT
BRANCH   3  13
HETATM   13  N2  UNL     1     -12.848  59.405  10.236  1.00  0.00    -0.138 N 
ATOM     14  H2  UNL     1     -12.135  59.518   9.515  1.00  0.00     0.205 HD
BRANCH  13  15
HETATM   15  N3  UNL     1     -12.482  59.291  11.581  1.00  0.00    -0.331 N 
ATOM     16  H32 UNL     1     -13.092  59.679  12.300  1.00  0.00     0.177 HD
ATOM     17  H31 UNL     1     -11.610  58.822  11.822  1.00  0.00     0.177 HD
ENDBRANCH  13  15
ENDBRANCH   3  13
BRANCH   6  18
HETATM   18  N5  UNL     1     -16.947  59.786  11.968  1.00  0.00    -0.234 N 
ATOM     19  H52 UNL     1     -16.532  60.567  12.476  1.00  0.00     0.174 HD
ATOM     20  H51 UNL     1     -17.787  59.260  12.211  1.00  0.00     0.174 HD
ENDBRANCH   6  18
TORSDOF 3
ENDMDL
