MODEL 1
REMARK VINA RESULT: -7.093825102      0.000      0.000
REMARK  2 active torsions:
REMARK  status: ('A' for Active; 'I' for Inactive)
REMARK    1  A    between atoms: N1_1  and  N2_4 
REMARK    2  A    between atoms: N2_4  and  N3_6 
ROOT
HETATM    1  N3  UNL     1     -15.450  59.028  11.206  1.00  0.00    -0.171 N 
HETATM    2  C1  UNL     1     -14.340  59.106  11.978  1.00  0.00     0.350 A 
HETATM    3  O1  UNL     1     -14.327  58.919  13.216  1.00  0.00    -0.244 OA
HETATM    4  N4  UNL     1     -13.266  59.405  11.266  1.00  0.00    -0.290 N 
ATOM      5  H4  UNL     1     -12.319  59.518  11.626  1.00  0.00     0.172 HD
HETATM    6  C2  UNL     1     -13.646  59.535   9.980  1.00  0.00     0.159 A 
HETATM    7  N5  UNL     1     -12.991  59.836   8.833  1.00  0.00    -0.305 N 
ATOM      8  H5  UNL     1     -11.986  60.012   8.842  1.00  0.00     0.170 HD
HETATM    9  C3  UNL     1     -13.679  59.898   7.690  1.00  0.00     0.262 A 
HETATM   10  O2  UNL     1     -13.086  60.180   6.632  1.00  0.00    -0.267 OA
HETATM   11  C4  UNL     1     -15.053  59.660   7.635  1.00  0.00     0.164 A 
HETATM   12  N6  UNL     1     -15.673  59.365   8.783  1.00  0.00    -0.342 N 
ATOM     13  H6  UNL     1     -16.678  59.188   8.768  1.00  0.00     0.167 HD
HETATM   14  C5  UNL     1     -15.027  59.293   9.952  1.00  0.00     0.178 A 
ENDROOT
BRANCH   1  15
HETATM   15  N2  UNL     1     -16.747  58.746  11.635  1.00  0.00    -0.237 N 
ATOM     16  H2  UNL     1     -17.233  57.961  11.202  1.00  0.00     0.208 HD
BRANCH  15  17
HETATM   17  N1  UNL     1     -17.418  59.465  12.613  1.00  0.00    -0.330 N 
ATOM     18  H12 UNL     1     -17.072  60.403  12.814  1.00  0.00     0.178 HD
ATOM     19  H11 UNL     1     -18.223  59.113  13.131  1.00  0.00     0.178 HD
ENDBRANCH  15  17
ENDBRANCH   1  15
TORSDOF 2
ENDMDL
MODEL 2
REMARK VINA RESULT: -7.032303058      1.527      4.111
REMARK  2 active torsions:
REMARK  status: ('A' for Active; 'I' for Inactive)
REMARK    1  A    between atoms: N1_1  and  N2_4 
REMARK    2  A    between atoms: N2_4  and  N3_6 
ROOT
HETATM    1  N3  UNL     1     -16.399  58.974   9.238  1.00  0.00    -0.171 N 
HETATM    2  C1  UNL     1     -15.414  59.360   8.393  1.00  0.00     0.350 A 
HETATM    3  O1  UNL     1     -15.587  59.617   7.180  1.00  0.00    -0.244 OA
HETATM    4  N4  UNL     1     -14.243  59.434   9.004  1.00  0.00    -0.290 N 
ATOM      5  H4  UNL     1     -13.358  59.702   8.575  1.00  0.00     0.172 HD
HETATM    6  C2  UNL     1     -14.427  59.093  10.294  1.00  0.00     0.159 A 
HETATM    7  N5  UNL     1     -13.603  58.983  11.363  1.00  0.00    -0.305 N 
ATOM      8  H5  UNL     1     -12.609  59.191  11.273  1.00  0.00     0.170 HD
HETATM    9  C3  UNL     1     -14.112  58.598  12.537  1.00  0.00     0.262 A 
HETATM   10  O2  UNL     1     -13.360  58.489  13.524  1.00  0.00    -0.267 OA
HETATM   11  C4  UNL     1     -15.467  58.309  12.703  1.00  0.00     0.164 A 
HETATM   12  N6  UNL     1     -16.257  58.426  11.629  1.00  0.00    -0.342 N 
ATOM     13  H6  UNL     1     -17.251  58.218  11.725  1.00  0.00     0.167 HD
HETATM   14  C5  UNL     1     -15.793  58.805  10.432  1.00  0.00     0.178 A 
ENDROOT
BRANCH   1  15
HETATM   15  N2  UNL     1     -17.744  58.785   8.922  1.00  0.00    -0.237 N 
ATOM     16  H2  UNL     1     -18.443  59.160   9.563  1.00  0.00     0.208 HD
BRANCH  15  17
HETATM   17  N1  UNL     1     -18.192  58.119   7.791  1.00  0.00    -0.330 N 
ATOM     18  H12 UNL     1     -17.689  57.273   7.525  1.00  0.00     0.178 HD
ATOM     19  H11 UNL     1     -18.982  58.424   7.222  1.00  0.00     0.178 HD
ENDBRANCH  15  17
ENDBRANCH   1  15
TORSDOF 2
ENDMDL
MODEL 3
REMARK VINA RESULT: -6.887968368      2.297      3.813
REMARK  2 active torsions:
REMARK  status: ('A' for Active; 'I' for Inactive)
REMARK    1  A    between atoms: N1_1  and  N2_4 
REMARK    2  A    between atoms: N2_4  and  N3_6 
ROOT
HETATM    1  N3  UNL     1     -13.492  59.301   9.179  1.00  0.00    -0.171 N 
HETATM    2  C1  UNL     1     -13.675  59.574  10.493  1.00  0.00     0.350 A 
HETATM    3  O1  UNL     1     -12.760  59.909  11.277  1.00  0.00    -0.244 OA
HETATM    4  N4  UNL     1     -14.942  59.443  10.850  1.00  0.00    -0.290 N 
ATOM      5  H4  UNL     1     -15.321  59.595  11.784  1.00  0.00     0.172 HD
HETATM    6  C2  UNL     1     -15.644  59.074   9.760  1.00  0.00     0.159 A 
HETATM    7  N5  UNL     1     -16.949  58.793   9.534  1.00  0.00    -0.305 N 
ATOM      8  H5  UNL     1     -17.630  58.854  10.292  1.00  0.00     0.170 HD
HETATM    9  C3  UNL     1     -17.332  58.436   8.306  1.00  0.00     0.262 A 
HETATM   10  O2  UNL     1     -18.530  58.170   8.090  1.00  0.00    -0.267 OA
HETATM   11  C4  UNL     1     -16.433  58.346   7.242  1.00  0.00     0.164 A 
HETATM   12  N6  UNL     1     -15.150  58.629   7.495  1.00  0.00    -0.342 N 
ATOM     13  H6  UNL     1     -14.475  58.568   6.734  1.00  0.00     0.167 HD
HETATM   14  C5  UNL     1     -14.719  58.989   8.710  1.00  0.00     0.178 A 
ENDROOT
BRANCH   1  15
HETATM   15  N2  UNL     1     -12.286  59.330   8.481  1.00  0.00    -0.237 N 
ATOM     16  H2  UNL     1     -11.793  60.221   8.415  1.00  0.00     0.208 HD
BRANCH  15  17
HETATM   17  N1  UNL     1     -11.711  58.225   7.871  1.00  0.00    -0.330 N 
ATOM     18  H12 UNL     1     -12.152  57.891   7.014  1.00  0.00     0.178 HD
ATOM     19  H11 UNL     1     -10.888  57.737   8.225  1.00  0.00     0.178 HD
ENDBRANCH  15  17
ENDBRANCH   1  15
TORSDOF 2
ENDMDL
MODEL 4
REMARK VINA RESULT: -6.858908432      2.444      2.886
REMARK  2 active torsions:
REMARK  status: ('A' for Active; 'I' for Inactive)
REMARK    1  A    between atoms: N1_1  and  N2_4 
REMARK    2  A    between atoms: N2_4  and  N3_6 
ROOT
HETATM    1  N3  UNL     1     -15.626  59.455  10.313  1.00  0.00    -0.171 N 
HETATM    2  C1  UNL     1     -14.309  59.355  10.012  1.00  0.00     0.350 A 
HETATM    3  O1  UNL     1     -13.386  59.814  10.721  1.00  0.00    -0.244 OA
HETATM    4  N4  UNL     1     -14.114  58.710   8.873  1.00  0.00    -0.290 N 
ATOM      5  H4  UNL     1     -13.211  58.513   8.442  1.00  0.00     0.172 HD
HETATM    6  C2  UNL     1     -15.319  58.360   8.383  1.00  0.00     0.159 A 
HETATM    7  N5  UNL     1     -15.727  57.707   7.269  1.00  0.00    -0.305 N 
ATOM      8  H5  UNL     1     -15.045  57.357   6.596  1.00  0.00     0.170 HD
HETATM    9  C3  UNL     1     -17.035  57.527   7.065  1.00  0.00     0.262 A 
HETATM   10  O2  UNL     1     -17.419  56.932   6.040  1.00  0.00    -0.267 OA
HETATM   11  C4  UNL     1     -17.999  57.985   7.964  1.00  0.00     0.164 A 
HETATM   12  N6  UNL     1     -17.566  58.627   9.055  1.00  0.00    -0.342 N 
ATOM     13  H6  UNL     1     -18.253  58.973   9.726  1.00  0.00     0.167 HD
HETATM   14  C5  UNL     1     -16.268  58.834   9.301  1.00  0.00     0.178 A 
ENDROOT
BRANCH   1  15
HETATM   15  N2  UNL     1     -16.180  60.080  11.429  1.00  0.00    -0.237 N 
ATOM     16  H2  UNL     1     -15.941  61.058  11.597  1.00  0.00     0.208 HD
BRANCH  15  17
HETATM   17  N1  UNL     1     -17.037  59.460  12.326  1.00  0.00    -0.330 N 
ATOM     18  H12 UNL     1     -16.699  59.345  13.281  1.00  0.00     0.178 HD
ATOM     19  H11 UNL     1     -17.968  59.119  12.087  1.00  0.00     0.178 HD
ENDBRANCH  15  17
ENDBRANCH   1  15
TORSDOF 2
ENDMDL
MODEL 5
REMARK VINA RESULT: -6.857026359      2.696      3.925
REMARK  2 active torsions:
REMARK  status: ('A' for Active; 'I' for Inactive)
REMARK    1  A    between atoms: N1_1  and  N2_4 
REMARK    2  A    between atoms: N2_4  and  N3_6 
ROOT
HETATM    1  N3  UNL     1     -16.667  58.344   8.021  1.00  0.00    -0.171 N 
HETATM    2  C1  UNL     1     -16.580  57.513   6.955  1.00  0.00     0.350 A 
HETATM    3  O1  UNL     1     -17.559  56.944   6.423  1.00  0.00    -0.244 OA
HETATM    4  N4  UNL     1     -15.331  57.374   6.542  1.00  0.00    -0.290 N 
ATOM      5  H4  UNL     1     -15.019  56.800   5.759  1.00  0.00     0.172 HD
HETATM    6  C2  UNL     1     -14.545  58.125   7.338  1.00  0.00     0.159 A 
HETATM    7  N5  UNL     1     -13.212  58.357   7.392  1.00  0.00    -0.305 N 
ATOM      8  H5  UNL     1     -12.583  57.919   6.719  1.00  0.00     0.170 HD
HETATM    9  C3  UNL     1     -12.733  59.168   8.338  1.00  0.00     0.262 A 
HETATM   10  O2  UNL     1     -11.508  59.383   8.399  1.00  0.00    -0.267 OA
HETATM   11  C4  UNL     1     -13.560  59.790   9.274  1.00  0.00     0.164 A 
HETATM   12  N6  UNL     1     -14.873  59.542   9.197  1.00  0.00    -0.342 N 
ATOM     13  H6  UNL     1     -15.497  59.984   9.871  1.00  0.00     0.167 HD
HETATM   14  C5  UNL     1     -15.398  58.735   8.268  1.00  0.00     0.178 A 
ENDROOT
BRANCH   1  15
HETATM   15  N2  UNL     1     -17.826  58.699   8.710  1.00  0.00    -0.237 N 
ATOM     16  H2  UNL     1     -17.727  59.053   9.662  1.00  0.00     0.208 HD
BRANCH  15  17
HETATM   17  N1  UNL     1     -19.106  58.603   8.185  1.00  0.00    -0.330 N 
ATOM     18  H12 UNL     1     -19.786  58.070   8.726  1.00  0.00     0.178 HD
ATOM     19  H11 UNL     1     -19.398  59.027   7.304  1.00  0.00     0.178 HD
ENDBRANCH  15  17
ENDBRANCH   1  15
TORSDOF 2
ENDMDL
