MODEL 1
REMARK VINA RESULT: -6.884425449      0.000      0.000
REMARK  4 active torsions:
REMARK  status: ('A' for Active; 'I' for Inactive)
REMARK    1  A    between atoms: N1_1  and  N2_4 
REMARK       I    between atoms: N2_4  and  C1_6 
REMARK       I    between atoms: C1_6  and  N3_8 
REMARK    2  A    between atoms: N3_8  and  N4_10 
REMARK    3  A    between atoms: N4_10  and  C2_12 
REMARK    4  A    between atoms: N7_18  and  N8_19 
ROOT
HETATM    1  N4  UNL     1     -13.201  59.102   9.856  1.00  0.00    -0.125 N 
ATOM      2  H4  UNL     1     -12.747  58.276  10.244  1.00  0.00     0.206 HD
ENDROOT
BRANCH   1   3
HETATM    3  N3  UNL     1     -14.124  59.831  10.611  1.00  0.00    -0.236 N 
HETATM    4  C1  UNL     1     -15.290  59.202  11.116  1.00  0.00     0.353 C 
HETATM    5  N2  UNL     1     -16.213  59.962  11.882  1.00  0.00    -0.257 N 
HETATM    6  O1  UNL     1     -15.458  57.984  10.862  1.00  0.00    -0.244 OA
ATOM      7  H2  UNL     1     -16.015  60.948  12.052  1.00  0.00     0.191 HD
ATOM      8  H3  UNL     1     -13.957  60.820  10.801  1.00  0.00     0.192 HD
BRANCH   5   9
HETATM    9  N1  UNL     1     -17.378  59.413  12.411  1.00  0.00    -0.341 N 
ATOM     10  H12 UNL     1     -17.983  58.888  11.779  1.00  0.00     0.177 HD
ATOM     11  H11 UNL     1     -17.639  59.519  13.392  1.00  0.00     0.177 HD
ENDBRANCH   5   9
ENDBRANCH   1   3
BRANCH   1  12
HETATM   12  C2  UNL     1     -12.940  59.496   8.663  1.00  0.00     0.733 A 
HETATM   13  N5  UNL     1     -13.747  60.205   7.859  1.00  0.00    -0.128 N 
HETATM   14  N6  UNL     1     -13.138  60.435   6.684  1.00  0.00    -0.279 N 
ATOM     15  H5  UNL     1     -14.685  60.522   8.104  1.00  0.00     0.205 HD
HETATM   16  C3  UNL     1     -11.938  59.861   6.763  1.00  0.00     0.241 A 
ATOM     17  H6  UNL     1     -13.520  60.948   5.890  1.00  0.00     0.188 HD
HETATM   18  N7  UNL     1     -11.805  59.282   7.973  1.00  0.00    -0.085 N 
BRANCH  18  19
HETATM   19  N8  UNL     1     -10.667  58.571   8.433  1.00  0.00    -0.323 N 
ATOM     20  H82 UNL     1     -10.283  57.723   8.017  1.00  0.00     0.178 HD
ATOM     21  H81 UNL     1     -10.089  58.817   9.238  1.00  0.00     0.178 HD
ENDBRANCH  18  19
ENDBRANCH   1  12
TORSDOF 4
ENDMDL
MODEL 2
REMARK VINA RESULT: -6.763762055      2.120      5.249
REMARK  4 active torsions:
REMARK  status: ('A' for Active; 'I' for Inactive)
REMARK    1  A    between atoms: N1_1  and  N2_4 
REMARK       I    between atoms: N2_4  and  C1_6 
REMARK       I    between atoms: C1_6  and  N3_8 
REMARK    2  A    between atoms: N3_8  and  N4_10 
REMARK    3  A    between atoms: N4_10  and  C2_12 
REMARK    4  A    between atoms: N7_18  and  N8_19 
ROOT
HETATM    1  N4  UNL     1     -13.572  59.229  10.235  1.00  0.00    -0.125 N 
ATOM      2  H4  UNL     1     -12.686  59.616  10.558  1.00  0.00     0.206 HD
ENDROOT
BRANCH   1   3
HETATM    3  N3  UNL     1     -13.704  58.733   8.935  1.00  0.00    -0.236 N 
HETATM    4  C1  UNL     1     -12.625  58.829   8.021  1.00  0.00     0.353 C 
HETATM    5  N2  UNL     1     -12.781  58.318   6.705  1.00  0.00    -0.257 N 
HETATM    6  O1  UNL     1     -11.563  59.369   8.418  1.00  0.00    -0.244 OA
ATOM      7  H2  UNL     1     -13.671  57.891   6.447  1.00  0.00     0.191 HD
ATOM      8  H3  UNL     1     -14.581  58.300   8.643  1.00  0.00     0.192 HD
BRANCH   5   9
HETATM    9  N1  UNL     1     -11.767  58.376   5.754  1.00  0.00    -0.341 N 
ATOM     10  H12 UNL     1     -11.011  57.695   5.825  1.00  0.00     0.177 HD
ATOM     11  H11 UNL     1     -11.758  59.066   5.002  1.00  0.00     0.177 HD
ENDBRANCH   5   9
ENDBRANCH   1   3
BRANCH   1  12
HETATM   12  C2  UNL     1     -14.591  59.187  11.013  1.00  0.00     0.733 A 
HETATM   13  N5  UNL     1     -15.741  59.864  10.863  1.00  0.00    -0.128 N 
HETATM   14  N6  UNL     1     -16.581  59.571  11.869  1.00  0.00    -0.279 N 
ATOM     15  H5  UNL     1     -15.946  60.506  10.098  1.00  0.00     0.205 HD
HETATM   16  C3  UNL     1     -15.943  58.700  12.652  1.00  0.00     0.241 A 
ATOM     17  H6  UNL     1     -17.521  59.941  12.007  1.00  0.00     0.188 HD
HETATM   18  N7  UNL     1     -14.721  58.457  12.136  1.00  0.00    -0.085 N 
BRANCH  18  19
HETATM   19  N8  UNL     1     -13.746  57.585  12.684  1.00  0.00    -0.323 N 
ATOM     20  H82 UNL     1     -12.738  57.657  12.550  1.00  0.00     0.178 HD
ATOM     21  H81 UNL     1     -13.929  56.776  13.279  1.00  0.00     0.178 HD
ENDBRANCH  18  19
ENDBRANCH   1  12
TORSDOF 4
ENDMDL
MODEL 3
REMARK VINA RESULT: -6.701840033      1.886      5.404
REMARK  4 active torsions:
REMARK  status: ('A' for Active; 'I' for Inactive)
REMARK    1  A    between atoms: N1_1  and  N2_4 
REMARK       I    between atoms: N2_4  and  C1_6 
REMARK       I    between atoms: C1_6  and  N3_8 
REMARK    2  A    between atoms: N3_8  and  N4_10 
REMARK    3  A    between atoms: N4_10  and  C2_12 
REMARK    4  A    between atoms: N7_18  and  N8_19 
ROOT
HETATM    1  N4  UNL     1     -13.832  59.791  10.297  1.00  0.00    -0.125 N 
ATOM      2  H4  UNL     1     -14.214  60.712  10.083  1.00  0.00     0.206 HD
ENDROOT
BRANCH   1   3
HETATM    3  N3  UNL     1     -12.817  59.239   9.511  1.00  0.00    -0.236 N 
HETATM    4  C1  UNL     1     -12.998  59.087   8.113  1.00  0.00     0.353 C 
HETATM    5  N2  UNL     1     -11.953  58.524   7.334  1.00  0.00    -0.257 N 
HETATM    6  O1  UNL     1     -14.089  59.462   7.617  1.00  0.00    -0.244 OA
ATOM      7  H2  UNL     1     -11.091  58.241   7.801  1.00  0.00     0.191 HD
ATOM      8  H3  UNL     1     -11.941  58.945   9.945  1.00  0.00     0.192 HD
BRANCH   5   9
HETATM    9  N1  UNL     1     -12.057  58.344   5.958  1.00  0.00    -0.341 N 
ATOM     10  H12 UNL     1     -11.816  59.133   5.357  1.00  0.00     0.177 HD
ATOM     11  H11 UNL     1     -12.363  57.464   5.541  1.00  0.00     0.177 HD
ENDBRANCH   5   9
ENDBRANCH   1   3
BRANCH   1  12
HETATM   12  C2  UNL     1     -14.272  59.113  11.293  1.00  0.00     0.733 A 
HETATM   13  N5  UNL     1     -13.573  58.249  12.044  1.00  0.00    -0.128 N 
HETATM   14  N6  UNL     1     -14.361  57.727  12.998  1.00  0.00    -0.279 N 
ATOM     15  H5  UNL     1     -12.588  58.021  11.910  1.00  0.00     0.205 HD
HETATM   16  C3  UNL     1     -15.565  58.277  12.836  1.00  0.00     0.241 A 
ATOM     17  H6  UNL     1     -14.092  57.045  13.707  1.00  0.00     0.188 HD
HETATM   18  N7  UNL     1     -15.522  59.130  11.793  1.00  0.00    -0.085 N 
BRANCH  18  19
HETATM   19  N8  UNL     1     -16.606  59.906  11.308  1.00  0.00    -0.323 N 
ATOM     20  H82 UNL     1     -16.533  60.707  10.681  1.00  0.00     0.178 HD
ATOM     21  H81 UNL     1     -17.592  59.764  11.526  1.00  0.00     0.178 HD
ENDBRANCH  18  19
ENDBRANCH   1  12
TORSDOF 4
ENDMDL
MODEL 4
REMARK VINA RESULT: -6.683623379      1.333      1.744
REMARK  4 active torsions:
REMARK  status: ('A' for Active; 'I' for Inactive)
REMARK    1  A    between atoms: N1_1  and  N2_4 
REMARK       I    between atoms: N2_4  and  C1_6 
REMARK       I    between atoms: C1_6  and  N3_8 
REMARK    2  A    between atoms: N3_8  and  N4_10 
REMARK    3  A    between atoms: N4_10  and  C2_12 
REMARK    4  A    between atoms: N7_18  and  N8_19 
ROOT
HETATM    1  N4  UNL     1     -13.513  59.132   9.656  1.00  0.00    -0.125 N 
ATOM      2  H4  UNL     1     -12.817  58.549  10.121  1.00  0.00     0.206 HD
ENDROOT
BRANCH   1   3
HETATM    3  N3  UNL     1     -14.446  59.861  10.398  1.00  0.00    -0.236 N 
HETATM    4  C1  UNL     1     -15.526  59.200  11.035  1.00  0.00     0.353 C 
HETATM    5  N2  UNL     1     -16.462  59.961  11.784  1.00  0.00    -0.257 N 
HETATM    6  O1  UNL     1     -15.610  57.953  10.907  1.00  0.00    -0.244 OA
ATOM      7  H2  UNL     1     -16.335  60.971  11.847  1.00  0.00     0.191 HD
ATOM      8  H3  UNL     1     -14.348  60.873  10.482  1.00  0.00     0.192 HD
BRANCH   5   9
HETATM    9  N1  UNL     1     -17.547  59.382  12.436  1.00  0.00    -0.341 N 
ATOM     10  H12 UNL     1     -17.409  58.467  12.864  1.00  0.00     0.177 HD
ATOM     11  H11 UNL     1     -18.458  59.838  12.498  1.00  0.00     0.177 HD
ENDBRANCH   5   9
ENDBRANCH   1   3
BRANCH   1  12
HETATM   12  C2  UNL     1     -13.551  59.212   8.376  1.00  0.00     0.733 A 
HETATM   13  N5  UNL     1     -12.878  60.083   7.608  1.00  0.00    -0.128 N 
HETATM   14  N6  UNL     1     -13.164  59.870   6.313  1.00  0.00    -0.279 N 
ATOM     15  H5  UNL     1     -12.244  60.801   7.957  1.00  0.00     0.205 HD
HETATM   16  C3  UNL     1     -14.024  58.852   6.279  1.00  0.00     0.241 A 
ATOM     17  H6  UNL     1     -12.795  60.385   5.514  1.00  0.00     0.188 HD
HETATM   18  N7  UNL     1     -14.268  58.440   7.539  1.00  0.00    -0.085 N 
BRANCH  18  19
HETATM   19  N8  UNL     1     -15.132  57.379   7.914  1.00  0.00    -0.323 N 
ATOM     20  H82 UNL     1     -15.452  57.176   8.860  1.00  0.00     0.178 HD
ATOM     21  H81 UNL     1     -15.540  56.686   7.286  1.00  0.00     0.178 HD
ENDBRANCH  18  19
ENDBRANCH   1  12
TORSDOF 4
ENDMDL
MODEL 5
REMARK VINA RESULT: -6.583596349      2.008      5.469
REMARK  4 active torsions:
REMARK  status: ('A' for Active; 'I' for Inactive)
REMARK    1  A    between atoms: N1_1  and  N2_4 
REMARK       I    between atoms: N2_4  and  C1_6 
REMARK       I    between atoms: C1_6  and  N3_8 
REMARK    2  A    between atoms: N3_8  and  N4_10 
REMARK    3  A    between atoms: N4_10  and  C2_12 
REMARK    4  A    between atoms: N7_18  and  N8_19 
ROOT
HETATM    1  N4  UNL     1     -14.273  59.649   9.521  1.00  0.00    -0.125 N 
ATOM      2  H4  UNL     1     -14.657  60.208   8.760  1.00  0.00     0.206 HD
ENDROOT
BRANCH   1   3
HETATM    3  N3  UNL     1     -12.989  59.106   9.430  1.00  0.00    -0.236 N 
HETATM    4  C1  UNL     1     -12.224  59.273   8.248  1.00  0.00     0.353 C 
HETATM    5  N2  UNL     1     -10.921  58.714   8.178  1.00  0.00    -0.257 N 
HETATM    6  O1  UNL     1     -12.739  59.918   7.301  1.00  0.00    -0.244 OA
ATOM      7  H2  UNL     1     -10.563  58.202   8.985  1.00  0.00     0.191 HD
ATOM      8  H3  UNL     1     -12.599  58.588  10.219  1.00  0.00     0.192 HD
BRANCH   5   9
HETATM    9  N1  UNL     1     -10.112  58.837   7.052  1.00  0.00    -0.341 N 
ATOM     10  H12 UNL     1      -9.374  59.541   7.074  1.00  0.00     0.177 HD
ATOM     11  H11 UNL     1     -10.233  58.255   6.223  1.00  0.00     0.177 HD
ENDBRANCH   5   9
ENDBRANCH   1   3
BRANCH   1  12
HETATM   12  C2  UNL     1     -14.957  59.428  10.584  1.00  0.00     0.733 A 
HETATM   13  N5  UNL     1     -14.518  59.505  11.849  1.00  0.00    -0.128 N 
HETATM   14  N6  UNL     1     -15.514  59.208  12.700  1.00  0.00    -0.279 N 
ATOM     15  H5  UNL     1     -13.568  59.752  12.124  1.00  0.00     0.205 HD
HETATM   16  C3  UNL     1     -16.584  58.944  11.950  1.00  0.00     0.241 A 
ATOM     17  H6  UNL     1     -15.461  59.188  13.718  1.00  0.00     0.188 HD
HETATM   18  N7  UNL     1     -16.255  59.077  10.650  1.00  0.00    -0.085 N 
BRANCH  18  19
HETATM   19  N8  UNL     1     -17.125  58.879   9.548  1.00  0.00    -0.323 N 
ATOM     20  H82 UNL     1     -17.855  59.522   9.240  1.00  0.00     0.178 HD
ATOM     21  H81 UNL     1     -17.133  58.071   8.925  1.00  0.00     0.178 HD
ENDBRANCH  18  19
ENDBRANCH   1  12
TORSDOF 4
ENDMDL
