MODEL 1
REMARK VINA RESULT: -7.063603185      0.000      0.000
REMARK  3 active torsions:
REMARK  status: ('A' for Active; 'I' for Inactive)
REMARK    1  A    between atoms: O1_2  and  N1_3 
REMARK    2  A    between atoms: C4_14  and  N5_15 
REMARK    3  A    between atoms: C5_18  and  N6_19 
ROOT
HETATM    1  N1  UNL     1     -14.054  58.822   6.622  1.00  0.00    -0.150 N 
HETATM    2  C2  UNL     1     -14.785  59.350   7.622  1.00  0.00     0.366 C 
HETATM    3  O2  UNL     1     -15.991  59.551   7.323  1.00  0.00    -0.244 OA
HETATM    4  N2  UNL     1     -14.409  59.691   8.890  1.00  0.00    -0.139 N 
ATOM      5  H2  UNL     1     -15.117  60.166   9.449  1.00  0.00     0.189 HD
HETATM    6  C3  UNL     1     -13.218  59.481   9.502  1.00  0.00     0.681 C 
HETATM    7  N3  UNL     1     -13.263  59.647  10.769  1.00  0.00    -0.234 N 
ATOM      8  H31 UNL     1     -12.367  59.489  11.230  1.00  0.00     0.174 HD
ATOM      9  H32 UNL     1     -14.157  59.911  11.182  1.00  0.00     0.174 HD
HETATM   10  N4  UNL     1     -12.038  59.132   8.957  1.00  0.00    -0.173 N 
ATOM     11  H4  UNL     1     -11.241  59.057   9.590  1.00  0.00     0.186 HD
HETATM   12  C4  UNL     1     -11.808  58.873   7.659  1.00  0.00     0.161 C 
HETATM   13  C5  UNL     1     -12.722  58.631   6.633  1.00  0.00     0.176 C 
ENDROOT
BRANCH  12  14
HETATM   14  N5  UNL     1     -10.586  58.843   7.303  1.00  0.00    -0.382 N 
ATOM     15  H52 UNL     1      -9.922  58.713   8.066  1.00  0.00     0.157 HD
ATOM     16  H51 UNL     1     -10.408  58.952   6.305  1.00  0.00     0.157 HD
ENDBRANCH  12  14
BRANCH   1  17
HETATM   17  O1  UNL     1     -14.768  58.458   5.505  1.00  0.00    -0.273 OA
HETATM   18  C1  UNL     1     -15.444  57.230   5.375  1.00  0.00     0.238 C 
ENDBRANCH   1  17
BRANCH  13  19
HETATM   19  N6  UNL     1     -12.241  58.155   5.529  1.00  0.00    -0.380 N 
ATOM     20  H62 UNL     1     -12.790  57.430   5.067  1.00  0.00     0.157 HD
ATOM     21  H61 UNL     1     -11.353  58.569   5.246  1.00  0.00     0.157 HD
ENDBRANCH  13  19
TORSDOF 3
ENDMDL
MODEL 2
REMARK VINA RESULT: -6.844426502      2.740      4.240
REMARK  3 active torsions:
REMARK  status: ('A' for Active; 'I' for Inactive)
REMARK    1  A    between atoms: O1_2  and  N1_3 
REMARK    2  A    between atoms: C4_14  and  N5_15 
REMARK    3  A    between atoms: C5_18  and  N6_19 
ROOT
HETATM    1  N1  UNL     1     -14.092  59.636   9.281  1.00  0.00    -0.150 N 
HETATM    2  C2  UNL     1     -14.019  59.605  10.626  1.00  0.00     0.366 C 
HETATM    3  O2  UNL     1     -12.863  59.810  11.080  1.00  0.00    -0.244 OA
HETATM    4  N2  UNL     1     -15.003  59.388  11.547  1.00  0.00    -0.139 N 
ATOM      5  H2  UNL     1     -14.694  59.317  12.517  1.00  0.00     0.189 HD
HETATM    6  C3  UNL     1     -16.336  59.255  11.343  1.00  0.00     0.681 C 
HETATM    7  N3  UNL     1     -17.026  59.352  12.414  1.00  0.00    -0.234 N 
ATOM      8  H31 UNL     1     -18.029  59.252  12.260  1.00  0.00     0.174 HD
ATOM      9  H32 UNL     1     -16.526  59.514  13.288  1.00  0.00     0.174 HD
HETATM   10  N4  UNL     1     -16.996  59.041  10.189  1.00  0.00    -0.173 N 
ATOM     11  H4  UNL     1     -18.009  58.933  10.250  1.00  0.00     0.186 HD
HETATM   12  C4  UNL     1     -16.449  58.955   8.965  1.00  0.00     0.161 C 
HETATM   13  C5  UNL     1     -15.172  59.324   8.543  1.00  0.00     0.176 C 
ENDROOT
BRANCH  12  14
HETATM   14  N5  UNL     1     -17.194  58.469   8.054  1.00  0.00    -0.382 N 
ATOM     15  H52 UNL     1     -17.797  57.705   8.357  1.00  0.00     0.157 HD
ATOM     16  H51 UNL     1     -17.105  58.894   7.130  1.00  0.00     0.157 HD
ENDBRANCH  12  14
BRANCH   1  17
HETATM   17  O1  UNL     1     -12.939  60.025   8.642  1.00  0.00    -0.273 OA
HETATM   18  C1  UNL     1     -11.985  59.124   8.133  1.00  0.00     0.238 C 
ENDBRANCH   1  17
BRANCH  13  19
HETATM   19  N6  UNL     1     -14.978  59.379   7.264  1.00  0.00    -0.380 N 
ATOM     20  H62 UNL     1     -15.351  58.607   6.712  1.00  0.00     0.157 HD
ATOM     21  H61 UNL     1     -14.466  60.204   6.952  1.00  0.00     0.157 HD
ENDBRANCH  13  19
TORSDOF 3
ENDMDL
MODEL 3
REMARK VINA RESULT: -6.734870930      2.561      3.895
REMARK  3 active torsions:
REMARK  status: ('A' for Active; 'I' for Inactive)
REMARK    1  A    between atoms: O1_2  and  N1_3 
REMARK    2  A    between atoms: C4_14  and  N5_15 
REMARK    3  A    between atoms: C5_18  and  N6_19 
ROOT
HETATM    1  N1  UNL     1     -14.243  59.132   8.417  1.00  0.00    -0.150 N 
HETATM    2  C2  UNL     1     -13.998  59.500   9.689  1.00  0.00     0.366 C 
HETATM    3  O2  UNL     1     -12.792  59.780   9.917  1.00  0.00    -0.244 OA
HETATM    4  N2  UNL     1     -14.856  59.611  10.745  1.00  0.00    -0.139 N 
ATOM      5  H2  UNL     1     -14.426  59.818  11.646  1.00  0.00     0.189 HD
HETATM    6  C3  UNL     1     -16.205  59.482  10.753  1.00  0.00     0.681 C 
HETATM    7  N3  UNL     1     -16.751  59.924  11.821  1.00  0.00    -0.234 N 
ATOM      8  H31 UNL     1     -17.767  59.827  11.827  1.00  0.00     0.174 HD
ATOM      9  H32 UNL     1     -16.142  60.317  12.537  1.00  0.00     0.174 HD
HETATM   10  N4  UNL     1     -17.010  58.962   9.807  1.00  0.00    -0.173 N 
ATOM     11  H4  UNL     1     -18.007  58.922  10.019  1.00  0.00     0.186 HD
HETATM   12  C4  UNL     1     -16.626  58.492   8.608  1.00  0.00     0.161 C 
HETATM   13  C5  UNL     1     -15.411  58.661   7.943  1.00  0.00     0.176 C 
ENDROOT
BRANCH  12  14
HETATM   14  N5  UNL     1     -17.484  57.789   7.983  1.00  0.00    -0.382 N 
ATOM     15  H52 UNL     1     -17.786  56.947   8.473  1.00  0.00     0.157 HD
ATOM     16  H51 UNL     1     -17.771  58.143   7.070  1.00  0.00     0.157 HD
ENDBRANCH  12  14
BRANCH   1  17
HETATM   17  O1  UNL     1     -13.180  59.262   7.555  1.00  0.00    -0.273 OA
HETATM   18  C1  UNL     1     -12.964  60.393   6.746  1.00  0.00     0.238 C 
ENDBRANCH   1  17
BRANCH  13  19
HETATM   19  N6  UNL     1     -15.384  58.324   6.693  1.00  0.00    -0.380 N 
ATOM     20  H62 UNL     1     -16.242  58.471   6.162  1.00  0.00     0.157 HD
ATOM     21  H61 UNL     1     -14.490  57.944   6.380  1.00  0.00     0.157 HD
ENDBRANCH  13  19
TORSDOF 3
ENDMDL
MODEL 4
REMARK VINA RESULT: -6.724210156      1.688      3.292
REMARK  3 active torsions:
REMARK  status: ('A' for Active; 'I' for Inactive)
REMARK    1  A    between atoms: O1_2  and  N1_3 
REMARK    2  A    between atoms: C4_14  and  N5_15 
REMARK    3  A    between atoms: C5_18  and  N6_19 
ROOT
HETATM    1  N1  UNL     1     -14.295  59.178   8.027  1.00  0.00    -0.150 N 
HETATM    2  C2  UNL     1     -13.152  59.607   8.597  1.00  0.00     0.366 C 
HETATM    3  O2  UNL     1     -13.316  60.169   9.712  1.00  0.00    -0.244 OA
HETATM    4  N2  UNL     1     -11.867  59.521   8.144  1.00  0.00    -0.139 N 
ATOM      5  H2  UNL     1     -11.166  60.004   8.705  1.00  0.00     0.189 HD
HETATM    6  C3  UNL     1     -11.400  58.878   7.046  1.00  0.00     0.681 C 
HETATM    7  N3  UNL     1     -10.131  58.732   7.044  1.00  0.00    -0.234 N 
ATOM      8  H31 UNL     1      -9.779  58.248   6.219  1.00  0.00     0.174 HD
ATOM      9  H32 UNL     1      -9.610  59.099   7.840  1.00  0.00     0.174 HD
HETATM   10  N4  UNL     1     -12.088  58.392   5.995  1.00  0.00    -0.173 N 
ATOM     11  H4  UNL     1     -11.544  57.968   5.244  1.00  0.00     0.186 HD
HETATM   12  C4  UNL     1     -13.423  58.413   5.842  1.00  0.00     0.161 C 
HETATM   13  C5  UNL     1     -14.415  58.665   6.789  1.00  0.00     0.176 C 
ENDROOT
BRANCH  12  14
HETATM   14  N5  UNL     1     -13.853  58.169   4.669  1.00  0.00    -0.382 N 
ATOM     15  H52 UNL     1     -14.523  58.849   4.309  1.00  0.00     0.157 HD
ATOM     16  H51 UNL     1     -13.485  57.329   4.223  1.00  0.00     0.157 HD
ENDBRANCH  12  14
BRANCH   1  17
HETATM   17  O1  UNL     1     -15.417  59.290   8.813  1.00  0.00    -0.273 OA
HETATM   18  C1  UNL     1     -15.880  58.269   9.664  1.00  0.00     0.238 C 
ENDBRANCH   1  17
BRANCH  13  19
HETATM   19  N6  UNL     1     -15.629  58.373   6.448  1.00  0.00    -0.380 N 
ATOM     20  H62 UNL     1     -16.009  58.869   5.641  1.00  0.00     0.157 HD
ATOM     21  H61 UNL     1     -16.073  57.667   7.036  1.00  0.00     0.157 HD
ENDBRANCH  13  19
TORSDOF 3
ENDMDL
MODEL 5
REMARK VINA RESULT: -6.671291988      2.410      4.501
REMARK  3 active torsions:
REMARK  status: ('A' for Active; 'I' for Inactive)
REMARK    1  A    between atoms: O1_2  and  N1_3 
REMARK    2  A    between atoms: C4_14  and  N5_15 
REMARK    3  A    between atoms: C5_18  and  N6_19 
ROOT
HETATM    1  N1  UNL     1     -14.239  59.693   8.786  1.00  0.00    -0.150 N 
HETATM    2  C2  UNL     1     -14.891  59.515   7.621  1.00  0.00     0.366 C 
HETATM    3  O2  UNL     1     -14.187  59.739   6.601  1.00  0.00    -0.244 OA
HETATM    4  N2  UNL     1     -16.183  59.135   7.395  1.00  0.00    -0.139 N 
ATOM      5  H2  UNL     1     -16.488  59.158   6.422  1.00  0.00     0.189 HD
HETATM    6  C3  UNL     1     -17.113  58.730   8.293  1.00  0.00     0.681 C 
HETATM    7  N3  UNL     1     -18.127  58.166   7.756  1.00  0.00    -0.234 N 
ATOM      8  H31 UNL     1     -18.826  57.861   8.432  1.00  0.00     0.174 HD
ATOM      9  H32 UNL     1     -18.137  58.079   6.740  1.00  0.00     0.174 HD
HETATM   10  N4  UNL     1     -17.098  58.845   9.635  1.00  0.00    -0.173 N 
ATOM     11  H4  UNL     1     -17.919  58.506  10.136  1.00  0.00     0.186 HD
HETATM   12  C4  UNL     1     -16.106  59.366  10.376  1.00  0.00     0.161 C 
HETATM   13  C5  UNL     1     -14.789  59.647  10.013  1.00  0.00     0.176 C 
ENDROOT
BRANCH  12  14
HETATM   14  N5  UNL     1     -16.398  59.645  11.583  1.00  0.00    -0.382 N 
ATOM     15  H52 UNL     1     -15.596  59.816  12.189  1.00  0.00     0.157 HD
ATOM     16  H51 UNL     1     -17.393  59.668  11.808  1.00  0.00     0.157 HD
ENDBRANCH  12  14
BRANCH   1  17
HETATM   17  O1  UNL     1     -12.892  59.941   8.669  1.00  0.00    -0.273 OA
HETATM   18  C1  UNL     1     -11.964  59.003   8.179  1.00  0.00     0.238 C 
ENDBRANCH   1  17
BRANCH  13  19
HETATM   19  N6  UNL     1     -13.964  59.902  10.977  1.00  0.00    -0.380 N 
ATOM     20  H62 UNL     1     -12.992  60.066  10.715  1.00  0.00     0.157 HD
ATOM     21  H61 UNL     1     -14.390  59.910  11.904  1.00  0.00     0.157 HD
ENDBRANCH  13  19
TORSDOF 3
ENDMDL
