MODEL 1
REMARK VINA RESULT: -8.292097245      0.000      0.000
REMARK  16 active torsions:
REMARK  status: ('A' for Active; 'I' for Inactive)
REMARK    1  A    between atoms: N1_2  and  C2_3 
REMARK    2  A    between atoms: N1_2  and  C21_29 
REMARK    3  A    between atoms: C2_3  and  C3_4 
REMARK    4  A    between atoms: C3_4  and  C4_5 
REMARK    5  A    between atoms: C5_6  and  C6_7 
REMARK    6  A    between atoms: C9_10  and  C10_11 
REMARK    7  A    between atoms: C10_11  and  N2_12 
REMARK    8  A    between atoms: C13_15  and  C14_16 
REMARK    9  A    between atoms: C14_16  and  N3_17 
REMARK   10  A    between atoms: N3_17  and  O1_18 
REMARK   11  A    between atoms: O1_18  and  C15_19 
REMARK   12  A    between atoms: C15_19  and  C16_20 
REMARK   13  A    between atoms: C16_20  and  N4_21 
REMARK   14  A    between atoms: C21_29  and  C22_30 
REMARK   15  A    between atoms: C25_33  and  C26_34 
REMARK   16  A    between atoms: C31_45  and  O2_46 
ROOT
HETATM    1  C3  UNL     1      15.909  19.737  18.133  1.00  0.00     0.124 C 
ENDROOT
BRANCH   1   2
HETATM    2  C2  UNL     1      14.537  20.193  17.921  1.00  0.00     0.284 C 
BRANCH   2   3
HETATM    3  N1  UNL     1      14.146  20.341  16.565  1.00  0.00     0.089 N 
HETATM    4  C1  UNL     1      12.787  19.686  16.523  1.00  0.00     0.310 C 
BRANCH   3   5
HETATM    5  C21 UNL     1      13.870  21.681  16.102  1.00  0.00     0.310 C 
BRANCH   5   6
HETATM    6  C22 UNL     1      15.170  22.414  16.014  1.00  0.00    -0.030 A 
HETATM    7  C23 UNL     1      16.119  22.101  15.085  1.00  0.00     0.010 A 
HETATM    8  C24 UNL     1      17.301  22.841  15.071  1.00  0.00     0.013 A 
HETATM    9  C25 UNL     1      17.564  23.871  15.942  1.00  0.00    -0.023 A 
HETATM   10  C32 UNL     1      16.579  24.168  16.877  1.00  0.00     0.013 A 
HETATM   11  C33 UNL     1      15.416  23.449  16.902  1.00  0.00     0.010 A 
BRANCH   9  12
HETATM   12  C26 UNL     1      18.805  24.635  15.901  1.00  0.00     0.010 A 
HETATM   13  C27 UNL     1      19.715  24.471  16.957  1.00  0.00     0.017 A 
HETATM   14  C28 UNL     1      20.921  25.132  17.010  1.00  0.00     0.034 A 
HETATM   15  C29 UNL     1      21.276  25.992  16.003  1.00  0.00     0.080 A 
HETATM   16  N5  UNL     1      22.380  26.751  15.813  1.00  0.00    -0.284 N 
HETATM   17  C30 UNL     1      20.408  26.174  14.956  1.00  0.00     0.111 A 
HETATM   18  N6  UNL     1      22.188  27.382  14.673  1.00  0.00    -0.242 N 
ATOM     19  H5  UNL     1      23.193  26.819  16.425  1.00  0.00     0.188 HD
HETATM   20  N7  UNL     1      21.014  27.054  14.138  1.00  0.00    -0.281 N 
ATOM     21  H6  UNL     1      22.851  28.035  14.254  1.00  0.00     0.208 HD
ATOM     22  H7  UNL     1      20.639  27.409  13.259  1.00  0.00     0.188 HD
HETATM   23  C31 UNL     1      19.176  25.496  14.906  1.00  0.00     0.107 A 
BRANCH  23  24
HETATM   24  O2  UNL     1      18.342  25.717  13.836  1.00  0.00    -0.357 OA
ATOM     25  H2  UNL     1      18.695  25.750  12.955  1.00  0.00     0.217 HD
ENDBRANCH  23  24
ENDBRANCH   9  12
ENDBRANCH   5   6
ENDBRANCH   3   5
ENDBRANCH   2   3
ENDBRANCH   1   2
BRANCH   1  26
HETATM   26  C4  UNL     1      16.867  20.637  18.689  1.00  0.00    -0.099 C 
HETATM   27  C5  UNL     1      17.636  21.409  19.198  1.00  0.00    -0.067 C 
BRANCH  27  28
HETATM   28  C6  UNL     1      18.535  22.360  19.829  1.00  0.00     0.017 A 
HETATM   29  C7  UNL     1      19.871  22.114  20.033  1.00  0.00     0.021 A 
HETATM   30  C8  UNL     1      20.696  23.070  20.610  1.00  0.00     0.010 A 
HETATM   31  C9  UNL     1      20.183  24.271  20.982  1.00  0.00    -0.040 A 
HETATM   32  C19 UNL     1      18.845  24.545  20.792  1.00  0.00     0.010 A 
HETATM   33  C20 UNL     1      18.024  23.600  20.221  1.00  0.00     0.021 A 
BRANCH  31  34
HETATM   34  C10 UNL     1      21.016  25.370  21.566  1.00  0.00     0.166 C 
BRANCH  34  35
HETATM   35  N2  UNL     1      22.183  25.569  20.674  1.00  0.00    -0.362 N 
HETATM   36  C11 UNL     1      23.098  24.602  20.517  1.00  0.00     0.091 A 
HETATM   37  C12 UNL     1      24.167  24.730  19.645  1.00  0.00     0.031 A 
HETATM   38  C13 UNL     1      24.323  25.870  18.903  1.00  0.00    -0.002 A 
HETATM   39  C17 UNL     1      23.375  26.860  19.076  1.00  0.00     0.031 A 
HETATM   40  C18 UNL     1      22.317  26.698  19.961  1.00  0.00     0.091 A 
BRANCH  38  41
HETATM   41  C14 UNL     1      25.441  26.032  17.955  1.00  0.00     0.229 C 
BRANCH  41  42
HETATM   42  N3  UNL     1      25.284  26.379  16.831  1.00  0.00    -0.293 NA
BRANCH  42  43
HETATM   43  O1  UNL     1      25.231  26.838  15.665  1.00  0.00    -0.208 OA
BRANCH  43  44
HETATM   44  C15 UNL     1      26.070  27.798  15.067  1.00  0.00     0.245 C 
BRANCH  44  45
HETATM   45  C16 UNL     1      26.209  28.983  16.009  1.00  0.00     0.259 C 
BRANCH  45  46
HETATM   46  N4  UNL     1      24.907  29.368  16.479  1.00  0.00    -0.077 N 
ATOM     47  H43 UNL     1      24.933  30.224  17.032  1.00  0.00     0.274 HD
ATOM     48  H42 UNL     1      24.307  29.702  15.725  1.00  0.00     0.274 HD
ATOM     49  H41 UNL     1      24.492  28.590  16.989  1.00  0.00     0.274 HD
ENDBRANCH  45  46
ENDBRANCH  44  45
ENDBRANCH  43  44
ENDBRANCH  42  43
ENDBRANCH  41  42
ENDBRANCH  38  41
ENDBRANCH  34  35
ENDBRANCH  31  34
ENDBRANCH  27  28
ENDBRANCH   1  26
TORSDOF 16
ENDMDL
MODEL 2
REMARK VINA RESULT: -8.019623449      2.017      4.868
REMARK  16 active torsions:
REMARK  status: ('A' for Active; 'I' for Inactive)
REMARK    1  A    between atoms: N1_2  and  C2_3 
REMARK    2  A    between atoms: N1_2  and  C21_29 
REMARK    3  A    between atoms: C2_3  and  C3_4 
REMARK    4  A    between atoms: C3_4  and  C4_5 
REMARK    5  A    between atoms: C5_6  and  C6_7 
REMARK    6  A    between atoms: C9_10  and  C10_11 
REMARK    7  A    between atoms: C10_11  and  N2_12 
REMARK    8  A    between atoms: C13_15  and  C14_16 
REMARK    9  A    between atoms: C14_16  and  N3_17 
REMARK   10  A    between atoms: N3_17  and  O1_18 
REMARK   11  A    between atoms: O1_18  and  C15_19 
REMARK   12  A    between atoms: C15_19  and  C16_20 
REMARK   13  A    between atoms: C16_20  and  N4_21 
REMARK   14  A    between atoms: C21_29  and  C22_30 
REMARK   15  A    between atoms: C25_33  and  C26_34 
REMARK   16  A    between atoms: C31_45  and  O2_46 
ROOT
HETATM    1  C3  UNL     1      13.960  22.409  16.082  1.00  0.00     0.124 C 
ENDROOT
BRANCH   1   2
HETATM    2  C2  UNL     1      13.753  20.964  16.018  1.00  0.00     0.284 C 
BRANCH   2   3
HETATM    3  N1  UNL     1      13.426  20.340  17.250  1.00  0.00     0.089 N 
HETATM    4  C1  UNL     1      12.290  19.417  16.880  1.00  0.00     0.310 C 
BRANCH   3   5
HETATM    5  C21 UNL     1      14.403  19.437  17.812  1.00  0.00     0.310 C 
BRANCH   5   6
HETATM    6  C22 UNL     1      15.501  20.260  18.406  1.00  0.00    -0.030 A 
HETATM    7  C23 UNL     1      15.309  21.041  19.507  1.00  0.00     0.010 A 
HETATM    8  C24 UNL     1      16.390  21.772  19.999  1.00  0.00     0.013 A 
HETATM    9  C25 UNL     1      17.643  21.748  19.434  1.00  0.00    -0.023 A 
HETATM   10  C32 UNL     1      17.810  20.943  18.313  1.00  0.00     0.013 A 
HETATM   11  C33 UNL     1      16.757  20.223  17.821  1.00  0.00     0.010 A 
BRANCH   9  12
HETATM   12  C26 UNL     1      18.760  22.515  19.972  1.00  0.00     0.010 A 
HETATM   13  C27 UNL     1      19.932  21.822  20.312  1.00  0.00     0.017 A 
HETATM   14  C28 UNL     1      21.050  22.449  20.813  1.00  0.00     0.034 A 
HETATM   15  C29 UNL     1      21.047  23.807  21.000  1.00  0.00     0.080 A 
HETATM   16  N5  UNL     1      21.993  24.655  21.466  1.00  0.00    -0.284 N 
HETATM   17  C30 UNL     1      19.916  24.514  20.677  1.00  0.00     0.111 A 
HETATM   18  N6  UNL     1      21.448  25.854  21.429  1.00  0.00    -0.242 N 
ATOM     19  H5  UNL     1      22.933  24.415  21.782  1.00  0.00     0.188 HD
HETATM   20  N7  UNL     1      20.204  25.798  20.960  1.00  0.00    -0.281 N 
ATOM     21  H6  UNL     1      21.917  26.711  21.720  1.00  0.00     0.208 HD
ATOM     22  H7  UNL     1      19.577  26.592  20.836  1.00  0.00     0.188 HD
HETATM   23  C31 UNL     1      18.776  23.868  20.165  1.00  0.00     0.107 A 
BRANCH  23  24
HETATM   24  O2  UNL     1      17.668  24.622  19.861  1.00  0.00    -0.357 OA
ATOM     25  H2  UNL     1      17.297  25.209  20.511  1.00  0.00     0.217 HD
ENDBRANCH  23  24
ENDBRANCH   9  12
ENDBRANCH   5   6
ENDBRANCH   3   5
ENDBRANCH   2   3
ENDBRANCH   1   2
BRANCH   1  26
HETATM   26  C4  UNL     1      15.272  22.937  15.889  1.00  0.00    -0.099 C 
HETATM   27  C5  UNL     1      16.354  23.433  15.714  1.00  0.00    -0.067 C 
BRANCH  27  28
HETATM   28  C6  UNL     1      17.643  24.060  15.482  1.00  0.00     0.017 A 
HETATM   29  C7  UNL     1      18.792  23.687  16.136  1.00  0.00     0.021 A 
HETATM   30  C8  UNL     1      20.008  24.294  15.854  1.00  0.00     0.010 A 
HETATM   31  C9  UNL     1      20.073  25.274  14.916  1.00  0.00    -0.040 A 
HETATM   32  C19 UNL     1      18.936  25.671  14.245  1.00  0.00     0.010 A 
HETATM   33  C20 UNL     1      17.729  25.072  14.522  1.00  0.00     0.021 A 
BRANCH  31  34
HETATM   34  C10 UNL     1      21.354  25.943  14.521  1.00  0.00     0.166 C 
BRANCH  34  35
HETATM   35  N2  UNL     1      22.068  26.313  15.765  1.00  0.00    -0.362 N 
HETATM   36  C11 UNL     1      21.391  26.680  16.861  1.00  0.00     0.091 A 
HETATM   37  C12 UNL     1      22.024  26.973  18.059  1.00  0.00     0.031 A 
HETATM   38  C13 UNL     1      23.387  26.893  18.159  1.00  0.00    -0.002 A 
HETATM   39  C17 UNL     1      24.074  26.515  17.022  1.00  0.00     0.031 A 
HETATM   40  C18 UNL     1      23.406  26.231  15.837  1.00  0.00     0.091 A 
BRANCH  38  41
HETATM   41  C14 UNL     1      24.089  27.183  19.422  1.00  0.00     0.229 C 
BRANCH  41  42
HETATM   42  N3  UNL     1      24.329  26.346  20.230  1.00  0.00    -0.293 NA
BRANCH  42  43
HETATM   43  O1  UNL     1      24.641  25.570  21.164  1.00  0.00    -0.208 OA
BRANCH  43  44
HETATM   44  C15 UNL     1      25.645  24.583  21.179  1.00  0.00     0.245 C 
BRANCH  44  45
HETATM   45  C16 UNL     1      25.697  23.915  19.814  1.00  0.00     0.259 C 
BRANCH  45  46
HETATM   46  N4  UNL     1      24.458  23.229  19.576  1.00  0.00    -0.077 N 
ATOM     47  H43 UNL     1      24.581  22.219  19.515  1.00  0.00     0.274 HD
ATOM     48  H42 UNL     1      23.841  23.250  20.388  1.00  0.00     0.274 HD
ATOM     49  H41 UNL     1      24.015  23.616  18.743  1.00  0.00     0.274 HD
ENDBRANCH  45  46
ENDBRANCH  44  45
ENDBRANCH  43  44
ENDBRANCH  42  43
ENDBRANCH  41  42
ENDBRANCH  38  41
ENDBRANCH  34  35
ENDBRANCH  31  34
ENDBRANCH  27  28
ENDBRANCH   1  26
TORSDOF 16
ENDMDL
MODEL 3
REMARK VINA RESULT: -8.011779867      4.959     12.923
REMARK  16 active torsions:
REMARK  status: ('A' for Active; 'I' for Inactive)
REMARK    1  A    between atoms: N1_2  and  C2_3 
REMARK    2  A    between atoms: N1_2  and  C21_29 
REMARK    3  A    between atoms: C2_3  and  C3_4 
REMARK    4  A    between atoms: C3_4  and  C4_5 
REMARK    5  A    between atoms: C5_6  and  C6_7 
REMARK    6  A    between atoms: C9_10  and  C10_11 
REMARK    7  A    between atoms: C10_11  and  N2_12 
REMARK    8  A    between atoms: C13_15  and  C14_16 
REMARK    9  A    between atoms: C14_16  and  N3_17 
REMARK   10  A    between atoms: N3_17  and  O1_18 
REMARK   11  A    between atoms: O1_18  and  C15_19 
REMARK   12  A    between atoms: C15_19  and  C16_20 
REMARK   13  A    between atoms: C16_20  and  N4_21 
REMARK   14  A    between atoms: C21_29  and  C22_30 
REMARK   15  A    between atoms: C25_33  and  C26_34 
REMARK   16  A    between atoms: C31_45  and  O2_46 
ROOT
HETATM    1  C3  UNL     1      17.638  23.102  15.158  1.00  0.00     0.124 C 
ENDROOT
BRANCH   1   2
HETATM    2  C2  UNL     1      17.683  24.277  16.026  1.00  0.00     0.284 C 
BRANCH   2   3
HETATM    3  N1  UNL     1      18.504  24.152  17.177  1.00  0.00     0.089 N 
HETATM    4  C1  UNL     1      19.411  25.355  17.087  1.00  0.00     0.310 C 
BRANCH   3   5
HETATM    5  C21 UNL     1      17.867  24.326  18.462  1.00  0.00     0.310 C 
BRANCH   5   6
HETATM    6  C22 UNL     1      16.937  23.175  18.674  1.00  0.00    -0.030 A 
HETATM    7  C23 UNL     1      17.386  21.930  19.005  1.00  0.00     0.010 A 
HETATM    8  C24 UNL     1      16.448  20.915  19.190  1.00  0.00     0.013 A 
HETATM    9  C25 UNL     1      15.093  21.099  19.057  1.00  0.00    -0.023 A 
HETATM   10  C32 UNL     1      14.664  22.378  18.719  1.00  0.00     0.013 A 
HETATM   11  C33 UNL     1      15.574  23.381  18.534  1.00  0.00     0.010 A 
BRANCH   9  12
HETATM   12  C26 UNL     1      14.132  20.023  19.264  1.00  0.00     0.010 A 
HETATM   13  C27 UNL     1      13.341  19.627  18.174  1.00  0.00     0.017 A 
HETATM   14  C28 UNL     1      12.414  18.612  18.255  1.00  0.00     0.034 A 
HETATM   15  C29 UNL     1      12.234  17.943  19.438  1.00  0.00     0.080 A 
HETATM   16  N5  UNL     1      11.408  16.927  19.782  1.00  0.00    -0.284 N 
HETATM   17  C30 UNL     1      12.992  18.306  20.523  1.00  0.00     0.111 A 
HETATM   18  N6  UNL     1      11.658  16.678  21.051  1.00  0.00    -0.242 N 
ATOM     19  H5  UNL     1      10.732  16.454  19.183  1.00  0.00     0.188 HD
HETATM   20  N7  UNL     1      12.603  17.489  21.519  1.00  0.00    -0.281 N 
ATOM     21  H6  UNL     1      11.190  15.958  21.602  1.00  0.00     0.208 HD
ATOM     22  H7  UNL     1      12.970  17.492  22.471  1.00  0.00     0.188 HD
HETATM   23  C31 UNL     1      13.938  19.343  20.434  1.00  0.00     0.107 A 
BRANCH  23  24
HETATM   24  O2  UNL     1      14.668  19.670  21.552  1.00  0.00    -0.357 OA
ATOM     25  H2  UNL     1      14.429  19.314  22.400  1.00  0.00     0.217 HD
ENDBRANCH  23  24
ENDBRANCH   9  12
ENDBRANCH   5   6
ENDBRANCH   3   5
ENDBRANCH   2   3
ENDBRANCH   1   2
BRANCH   1  26
HETATM   26  C4  UNL     1      16.423  22.360  15.047  1.00  0.00    -0.099 C 
HETATM   27  C5  UNL     1      15.402  21.743  14.897  1.00  0.00    -0.067 C 
BRANCH  27  28
HETATM   28  C6  UNL     1      14.163  21.015  14.682  1.00  0.00     0.017 A 
HETATM   29  C7  UNL     1      12.951  21.427  15.179  1.00  0.00     0.021 A 
HETATM   30  C8  UNL     1      11.789  20.714  14.915  1.00  0.00     0.010 A 
HETATM   31  C9  UNL     1      11.841  19.590  14.155  1.00  0.00    -0.040 A 
HETATM   32  C19 UNL     1      13.045  19.151  13.645  1.00  0.00     0.010 A 
HETATM   33  C20 UNL     1      14.199  19.855  13.904  1.00  0.00     0.021 A 
BRANCH  31  34
HETATM   34  C10 UNL     1      10.627  18.794  13.787  1.00  0.00     0.166 C 
BRANCH  34  35
HETATM   35  N2  UNL     1      10.709  17.497  14.497  1.00  0.00    -0.362 N 
HETATM   36  C11 UNL     1      10.387  17.404  15.794  1.00  0.00     0.091 A 
HETATM   37  C12 UNL     1      10.392  16.196  16.474  1.00  0.00     0.031 A 
HETATM   38  C13 UNL     1      10.733  15.039  15.827  1.00  0.00    -0.002 A 
HETATM   39  C17 UNL     1      11.065  15.148  14.490  1.00  0.00     0.031 A 
HETATM   40  C18 UNL     1      11.050  16.376  13.842  1.00  0.00     0.091 A 
BRANCH  38  41
HETATM   41  C14 UNL     1      10.734  13.736  16.517  1.00  0.00     0.229 C 
BRANCH  41  42
HETATM   42  N3  UNL     1      10.019  13.495  17.433  1.00  0.00    -0.293 NA
BRANCH  42  43
HETATM   43  O1  UNL     1       9.161  13.319  18.331  1.00  0.00    -0.208 OA
BRANCH  43  44
HETATM   44  C15 UNL     1       7.758  13.324  18.210  1.00  0.00     0.245 C 
BRANCH  44  45
HETATM   45  C16 UNL     1       7.212  14.570  18.891  1.00  0.00     0.259 C 
BRANCH  45  46
HETATM   46  N4  UNL     1       8.308  15.361  19.377  1.00  0.00    -0.077 N 
ATOM     47  H43 UNL     1       8.673  15.995  18.667  1.00  0.00     0.274 HD
ATOM     48  H42 UNL     1       8.010  16.061  20.056  1.00  0.00     0.274 HD
ATOM     49  H41 UNL     1       9.028  14.742  19.749  1.00  0.00     0.274 HD
ENDBRANCH  45  46
ENDBRANCH  44  45
ENDBRANCH  43  44
ENDBRANCH  42  43
ENDBRANCH  41  42
ENDBRANCH  38  41
ENDBRANCH  34  35
ENDBRANCH  31  34
ENDBRANCH  27  28
ENDBRANCH   1  26
TORSDOF 16
ENDMDL
MODEL 4
REMARK VINA RESULT: -7.809610222      4.769     12.622
REMARK  16 active torsions:
REMARK  status: ('A' for Active; 'I' for Inactive)
REMARK    1  A    between atoms: N1_2  and  C2_3 
REMARK    2  A    between atoms: N1_2  and  C21_29 
REMARK    3  A    between atoms: C2_3  and  C3_4 
REMARK    4  A    between atoms: C3_4  and  C4_5 
REMARK    5  A    between atoms: C5_6  and  C6_7 
REMARK    6  A    between atoms: C9_10  and  C10_11 
REMARK    7  A    between atoms: C10_11  and  N2_12 
REMARK    8  A    between atoms: C13_15  and  C14_16 
REMARK    9  A    between atoms: C14_16  and  N3_17 
REMARK   10  A    between atoms: N3_17  and  O1_18 
REMARK   11  A    between atoms: O1_18  and  C15_19 
REMARK   12  A    between atoms: C15_19  and  C16_20 
REMARK   13  A    between atoms: C16_20  and  N4_21 
REMARK   14  A    between atoms: C21_29  and  C22_30 
REMARK   15  A    between atoms: C25_33  and  C26_34 
REMARK   16  A    between atoms: C31_45  and  O2_46 
ROOT
HETATM    1  C3  UNL     1      18.083  23.515  15.206  1.00  0.00     0.124 C 
ENDROOT
BRANCH   1   2
HETATM    2  C2  UNL     1      18.280  24.533  16.236  1.00  0.00     0.284 C 
BRANCH   2   3
HETATM    3  N1  UNL     1      18.725  24.049  17.494  1.00  0.00     0.089 N 
HETATM    4  C1  UNL     1      19.951  24.884  17.772  1.00  0.00     0.310 C 
BRANCH   3   5
HETATM    5  C21 UNL     1      17.886  24.321  18.638  1.00  0.00     0.310 C 
BRANCH   5   6
HETATM    6  C22 UNL     1      16.923  23.185  18.781  1.00  0.00    -0.030 A 
HETATM    7  C23 UNL     1      17.324  21.935  19.150  1.00  0.00     0.010 A 
HETATM    8  C24 UNL     1      16.357  20.937  19.266  1.00  0.00     0.013 A 
HETATM    9  C25 UNL     1      15.019  21.143  19.028  1.00  0.00    -0.023 A 
HETATM   10  C32 UNL     1      14.640  22.427  18.654  1.00  0.00     0.013 A 
HETATM   11  C33 UNL     1      15.578  23.414  18.536  1.00  0.00     0.010 A 
BRANCH   9  12
HETATM   12  C26 UNL     1      14.027  20.084  19.164  1.00  0.00     0.010 A 
HETATM   13  C27 UNL     1      13.212  19.798  18.057  1.00  0.00     0.017 A 
HETATM   14  C28 UNL     1      12.255  18.809  18.072  1.00  0.00     0.034 A 
HETATM   15  C29 UNL     1      12.066  18.056  19.202  1.00  0.00     0.080 A 
HETATM   16  N5  UNL     1      11.213  17.042  19.477  1.00  0.00    -0.284 N 
HETATM   17  C30 UNL     1      12.847  18.310  20.301  1.00  0.00     0.111 A 
HETATM   18  N6  UNL     1      11.469  16.687  20.719  1.00  0.00    -0.242 N 
ATOM     19  H5  UNL     1      10.516  16.637  18.852  1.00  0.00     0.188 HD
HETATM   20  N7  UNL     1      12.445  17.430  21.236  1.00  0.00    -0.281 N 
ATOM     21  H6  UNL     1      10.985  15.941  21.219  1.00  0.00     0.208 HD
ATOM     22  H7  UNL     1      12.822  17.347  22.180  1.00  0.00     0.188 HD
HETATM   23  C31 UNL     1      13.825  19.321  20.280  1.00  0.00     0.107 A 
BRANCH  23  24
HETATM   24  O2  UNL     1      14.578  19.537  21.410  1.00  0.00    -0.357 OA
ATOM     25  H2  UNL     1      14.152  19.705  22.243  1.00  0.00     0.217 HD
ENDBRANCH  23  24
ENDBRANCH   9  12
ENDBRANCH   5   6
ENDBRANCH   3   5
ENDBRANCH   2   3
ENDBRANCH   1   2
BRANCH   1  26
HETATM   26  C4  UNL     1      16.833  22.830  15.130  1.00  0.00    -0.099 C 
HETATM   27  C5  UNL     1      15.775  22.270  15.012  1.00  0.00    -0.067 C 
BRANCH  27  28
HETATM   28  C6  UNL     1      14.489  21.619  14.840  1.00  0.00     0.017 A 
HETATM   29  C7  UNL     1      14.353  20.299  14.484  1.00  0.00     0.021 A 
HETATM   30  C8  UNL     1      13.100  19.713  14.366  1.00  0.00     0.010 A 
HETATM   31  C9  UNL     1      11.983  20.449  14.604  1.00  0.00    -0.040 A 
HETATM   32  C19 UNL     1      12.088  21.777  14.961  1.00  0.00     0.010 A 
HETATM   33  C20 UNL     1      13.328  22.361  15.079  1.00  0.00     0.021 A 
BRANCH  31  34
HETATM   34  C10 UNL     1      10.600  19.877  14.545  1.00  0.00     0.166 C 
BRANCH  34  35
HETATM   35  N2  UNL     1      10.728  18.412  14.368  1.00  0.00    -0.362 N 
HETATM   36  C11 UNL     1      10.992  17.887  13.164  1.00  0.00     0.091 A 
HETATM   37  C12 UNL     1      11.179  16.527  12.974  1.00  0.00     0.031 A 
HETATM   38  C13 UNL     1      11.100  15.663  14.033  1.00  0.00    -0.002 A 
HETATM   39  C17 UNL     1      10.825  16.216  15.269  1.00  0.00     0.031 A 
HETATM   40  C18 UNL     1      10.642  17.584  15.421  1.00  0.00     0.091 A 
BRANCH  38  41
HETATM   41  C14 UNL     1      11.309  14.213  13.867  1.00  0.00     0.229 C 
BRANCH  41  42
HETATM   42  N3  UNL     1      11.307  13.456  14.781  1.00  0.00    -0.293 NA
BRANCH  42  43
HETATM   43  O1  UNL     1      11.222  12.568  15.663  1.00  0.00    -0.208 OA
BRANCH  43  44
HETATM   44  C15 UNL     1      10.084  11.840  16.061  1.00  0.00     0.245 C 
BRANCH  44  45
HETATM   45  C16 UNL     1       9.303  12.665  17.072  1.00  0.00     0.259 C 
BRANCH  45  46
HETATM   46  N4  UNL     1      10.210  13.518  17.787  1.00  0.00    -0.077 N 
ATOM     47  H43 UNL     1      11.155  13.487  17.404  1.00  0.00     0.274 HD
ATOM     48  H42 UNL     1      10.022  14.507  17.626  1.00  0.00     0.274 HD
ATOM     49  H41 UNL     1      10.188  13.275  18.777  1.00  0.00     0.274 HD
ENDBRANCH  45  46
ENDBRANCH  44  45
ENDBRANCH  43  44
ENDBRANCH  42  43
ENDBRANCH  41  42
ENDBRANCH  38  41
ENDBRANCH  34  35
ENDBRANCH  31  34
ENDBRANCH  27  28
ENDBRANCH   1  26
TORSDOF 16
ENDMDL
MODEL 5
REMARK VINA RESULT: -7.804147357      3.514     10.531
REMARK  16 active torsions:
REMARK  status: ('A' for Active; 'I' for Inactive)
REMARK    1  A    between atoms: N1_2  and  C2_3 
REMARK    2  A    between atoms: N1_2  and  C21_29 
REMARK    3  A    between atoms: C2_3  and  C3_4 
REMARK    4  A    between atoms: C3_4  and  C4_5 
REMARK    5  A    between atoms: C5_6  and  C6_7 
REMARK    6  A    between atoms: C9_10  and  C10_11 
REMARK    7  A    between atoms: C10_11  and  N2_12 
REMARK    8  A    between atoms: C13_15  and  C14_16 
REMARK    9  A    between atoms: C14_16  and  N3_17 
REMARK   10  A    between atoms: N3_17  and  O1_18 
REMARK   11  A    between atoms: O1_18  and  C15_19 
REMARK   12  A    between atoms: C15_19  and  C16_20 
REMARK   13  A    between atoms: C16_20  and  N4_21 
REMARK   14  A    between atoms: C21_29  and  C22_30 
REMARK   15  A    between atoms: C25_33  and  C26_34 
REMARK   16  A    between atoms: C31_45  and  O2_46 
ROOT
HETATM    1  C3  UNL     1      21.173  23.622  21.152  1.00  0.00     0.124 C 
ENDROOT
BRANCH   1   2
HETATM    2  C2  UNL     1      21.862  24.630  20.349  1.00  0.00     0.284 C 
BRANCH   2   3
HETATM    3  N1  UNL     1      21.018  25.538  19.656  1.00  0.00     0.089 N 
HETATM    4  C1  UNL     1      21.472  26.886  20.160  1.00  0.00     0.310 C 
BRANCH   3   5
HETATM    5  C21 UNL     1      21.204  25.650  18.228  1.00  0.00     0.310 C 
BRANCH   5   6
HETATM    6  C22 UNL     1      20.036  24.996  17.560  1.00  0.00    -0.030 A 
HETATM    7  C23 UNL     1      20.179  24.201  16.462  1.00  0.00     0.010 A 
HETATM    8  C24 UNL     1      19.037  23.627  15.906  1.00  0.00     0.013 A 
HETATM    9  C25 UNL     1      17.770  23.818  16.405  1.00  0.00    -0.023 A 
HETATM   10  C32 UNL     1      17.654  24.634  17.525  1.00  0.00     0.013 A 
HETATM   11  C33 UNL     1      18.767  25.203  18.078  1.00  0.00     0.010 A 
BRANCH   9  12
HETATM   12  C26 UNL     1      16.592  23.200  15.810  1.00  0.00     0.010 A 
HETATM   13  C27 UNL     1      16.760  22.468  14.624  1.00  0.00     0.017 A 
HETATM   14  C28 UNL     1      15.718  21.831  13.987  1.00  0.00     0.034 A 
HETATM   15  C29 UNL     1      14.452  21.898  14.511  1.00  0.00     0.080 A 
HETATM   16  N5  UNL     1      13.276  21.374  14.094  1.00  0.00    -0.284 N 
HETATM   17  C30 UNL     1      14.256  22.606  15.669  1.00  0.00     0.111 A 
HETATM   18  N6  UNL     1      12.381  21.756  14.982  1.00  0.00    -0.242 N 
ATOM     19  H5  UNL     1      13.116  20.802  13.265  1.00  0.00     0.188 HD
HETATM   20  N7  UNL     1      12.941  22.495  15.937  1.00  0.00    -0.281 N 
ATOM     21  H6  UNL     1      11.390  21.517  14.944  1.00  0.00     0.208 HD
ATOM     22  H7  UNL     1      12.457  22.907  16.734  1.00  0.00     0.188 HD
HETATM   23  C31 UNL     1      15.323  23.254  16.316  1.00  0.00     0.107 A 
BRANCH  23  24
HETATM   24  O2  UNL     1      15.071  23.954  17.473  1.00  0.00    -0.357 OA
ATOM     25  H2  UNL     1      14.520  24.728  17.452  1.00  0.00     0.217 HD
ENDBRANCH  23  24
ENDBRANCH   9  12
ENDBRANCH   5   6
ENDBRANCH   3   5
ENDBRANCH   2   3
ENDBRANCH   1   2
BRANCH   1  26
HETATM   26  C4  UNL     1      20.082  22.899  20.582  1.00  0.00    -0.099 C 
HETATM   27  C5  UNL     1      19.178  22.311  20.051  1.00  0.00    -0.067 C 
BRANCH  27  28
HETATM   28  C6  UNL     1      18.088  21.625  19.378  1.00  0.00     0.017 A 
HETATM   29  C7  UNL     1      16.787  21.666  19.815  1.00  0.00     0.021 A 
HETATM   30  C8  UNL     1      15.775  21.021  19.117  1.00  0.00     0.010 A 
HETATM   31  C9  UNL     1      16.066  20.334  17.982  1.00  0.00    -0.040 A 
HETATM   32  C19 UNL     1      17.364  20.273  17.521  1.00  0.00     0.010 A 
HETATM   33  C20 UNL     1      18.370  20.911  18.210  1.00  0.00     0.021 A 
BRANCH  31  34
HETATM   34  C10 UNL     1      15.025  19.654  17.149  1.00  0.00     0.166 C 
BRANCH  34  35
HETATM   35  N2  UNL     1      14.051  19.028  18.072  1.00  0.00    -0.362 N 
HETATM   36  C11 UNL     1      12.770  19.421  18.087  1.00  0.00     0.091 A 
HETATM   37  C12 UNL     1      11.819  18.815  18.893  1.00  0.00     0.031 A 
HETATM   38  C13 UNL     1      12.167  17.776  19.713  1.00  0.00    -0.002 A 
HETATM   39  C17 UNL     1      13.490  17.381  19.691  1.00  0.00     0.031 A 
HETATM   40  C18 UNL     1      14.417  18.013  18.871  1.00  0.00     0.091 A 
BRANCH  38  41
HETATM   41  C14 UNL     1      11.176  17.101  20.572  1.00  0.00     0.229 C 
BRANCH  41  42
HETATM   42  N3  UNL     1      10.250  16.501  20.133  1.00  0.00    -0.293 NA
BRANCH  42  43
HETATM   43  O1  UNL     1       9.347  15.746  19.701  1.00  0.00    -0.208 OA
BRANCH  43  44
HETATM   44  C15 UNL     1       9.437  14.770  18.689  1.00  0.00     0.245 C 
BRANCH  44  45
HETATM   45  C16 UNL     1       8.912  15.363  17.390  1.00  0.00     0.259 C 
BRANCH  45  46
HETATM   46  N4  UNL     1       9.579  16.609  17.137  1.00  0.00    -0.077 N 
ATOM     47  H43 UNL     1       9.103  17.398  17.573  1.00  0.00     0.274 HD
ATOM     48  H42 UNL     1      10.466  16.683  17.635  1.00  0.00     0.274 HD
ATOM     49  H41 UNL     1       9.689  16.733  16.131  1.00  0.00     0.274 HD
ENDBRANCH  45  46
ENDBRANCH  44  45
ENDBRANCH  43  44
ENDBRANCH  42  43
ENDBRANCH  41  42
ENDBRANCH  38  41
ENDBRANCH  34  35
ENDBRANCH  31  34
ENDBRANCH  27  28
ENDBRANCH   1  26
TORSDOF 16
ENDMDL
