MODEL 1
REMARK VINA RESULT: -7.223454747      0.000      0.000
REMARK  14 active torsions:
REMARK  status: ('A' for Active; 'I' for Inactive)
REMARK    1  A    between atoms: C2_2  and  C3_3 
REMARK    2  A    between atoms: C3_3  and  C4_4 
REMARK    3  A    between atoms: C4_4  and  C5_5 
REMARK    4  A    between atoms: C5_5  and  O1_6 
REMARK    5  A    between atoms: O1_6  and  C6_7 
REMARK       I    between atoms: C6_7  and  N1_9 
REMARK    6  A    between atoms: C10_13  and  C11_14 
REMARK    7  A    between atoms: C11_14  and  C12_15 
REMARK    8  A    between atoms: C12_15  and  C14_17 
REMARK    9  A    between atoms: C14_17  and  N2_18 
REMARK   10  A    between atoms: N2_18  and  C15_21 
REMARK   11  A    between atoms: C21_30  and  C22_31 
REMARK   12  A    between atoms: C22_31  and  C23_32 
REMARK   13  A    between atoms: C23_32  and  C24_33 
REMARK   14  A    between atoms: C24_33  and  N4_34 
ROOT
HETATM    1  C6  UNL     1      13.222  19.345  13.407  1.00  0.00     0.362 C 
HETATM    2  O2  UNL     1      14.355  19.782  13.087  1.00  0.00    -0.238 OA
HETATM    3  N1  UNL     1      12.420  19.875  14.445  1.00  0.00    -0.327 N 
HETATM    4  C7  UNL     1      11.123  19.282  14.697  1.00  0.00     0.128 C 
HETATM    5  C8  UNL     1      11.146  18.178  15.732  1.00  0.00     0.022 C 
HETATM    6  C9  UNL     1      10.452  18.690  16.951  1.00  0.00     0.034 C 
HETATM    7  C10 UNL     1      10.486  17.785  18.148  1.00  0.00     0.134 C 
HETATM    8  O3  UNL     1      10.868  18.543  19.235  1.00  0.00    -0.298 OA
HETATM    9  C19 UNL     1      11.904  18.536  20.088  1.00  0.00     0.363 C 
HETATM   10  O4  UNL     1      11.663  18.346  21.345  1.00  0.00    -0.238 OA
HETATM   11  N3  UNL     1      13.302  18.720  19.768  1.00  0.00    -0.319 N 
HETATM   12  C20 UNL     1      14.221  17.794  20.386  1.00  0.00     0.156 C 
HETATM   13  C21 UNL     1      13.771  19.774  18.882  1.00  0.00     0.181 C 
HETATM   14  C26 UNL     1      14.674  19.309  17.818  1.00  0.00     0.240 C 
HETATM   15  O5  UNL     1      15.682  18.597  18.125  1.00  0.00    -0.271 OA
HETATM   16  N7  UNL     1      14.537  19.579  16.431  1.00  0.00    -0.358 N 
ATOM     17  H7  UNL     1      14.669  18.793  15.794  1.00  0.00     0.162 HD
HETATM   18  C27 UNL     1      14.231  20.846  15.839  1.00  0.00     0.142 C 
HETATM   19  C28 UNL     1      12.890  20.988  15.217  1.00  0.00     0.147 C 
ENDROOT
BRANCH   7  20
HETATM   20  C11 UNL     1      11.234  16.531  17.883  1.00  0.00     0.038 C 
BRANCH  20  21
HETATM   21  C12 UNL     1      10.510  15.259  18.102  1.00  0.00     0.009 C 
HETATM   22  C13 UNL     1      10.306  14.617  16.720  1.00  0.00     0.011 C 
BRANCH  21  23
HETATM   23  C14 UNL     1       9.115  15.440  18.659  1.00  0.00     0.237 C 
BRANCH  23  24
HETATM   24  N2  UNL     1       8.147  15.137  17.608  1.00  0.00    -0.067 N 
ATOM     25  H22 UNL     1       7.920  15.970  17.063  1.00  0.00     0.278 HD
ATOM     26  H21 UNL     1       8.567  14.572  16.870  1.00  0.00     0.278 HD
BRANCH  24  27
HETATM   27  C15 UNL     1       6.965  14.518  18.126  1.00  0.00     0.115 C 
HETATM   28  C16 UNL     1       5.763  14.714  17.220  1.00  0.00     0.045 C 
HETATM   29  C17 UNL     1       6.634  14.934  19.527  1.00  0.00     0.045 C 
HETATM   30  C18 UNL     1       7.244  13.011  18.157  1.00  0.00     0.045 C 
ENDBRANCH  24  27
ENDBRANCH  23  24
ENDBRANCH  21  23
ENDBRANCH  20  21
ENDBRANCH   7  20
BRANCH  13  31
HETATM   31  C22 UNL     1      14.255  20.981  19.632  1.00  0.00     0.037 C 
BRANCH  31  32
HETATM   32  C23 UNL     1      14.606  22.166  18.804  1.00  0.00     0.022 C 
BRANCH  32  33
HETATM   33  C24 UNL     1      16.076  22.569  19.049  1.00  0.00     0.122 C 
BRANCH  33  34
HETATM   34  N4  UNL     1      16.960  21.515  18.604  1.00  0.00    -0.367 N 
HETATM   35  C25 UNL     1      17.593  21.589  17.483  1.00  0.00     0.196 C 
HETATM   36  N5  UNL     1      18.455  20.546  17.061  1.00  0.00    -0.067 NA
HETATM   37  N6  UNL     1      17.434  22.725  16.651  1.00  0.00    -0.067 NA
ATOM     38  H4  UNL     1      17.087  20.690  19.192  1.00  0.00     0.161 HD
ENDBRANCH  33  34
ENDBRANCH  32  33
ENDBRANCH  31  32
ENDBRANCH  13  31
BRANCH   1  39
HETATM   39  O1  UNL     1      12.783  18.251  12.636  1.00  0.00    -0.304 OA
BRANCH  39  40
HETATM   40  C5  UNL     1      13.499  17.030  12.590  1.00  0.00     0.180 C 
BRANCH  40  41
HETATM   41  C4  UNL     1      12.518  15.969  12.144  1.00  0.00     0.027 C 
BRANCH  41  42
HETATM   42  C3  UNL     1      11.842  15.322  13.335  1.00  0.00     0.002 C 
BRANCH  42  43
HETATM   43  C2  UNL     1      10.411  14.975  13.000  1.00  0.00    -0.004 C 
HETATM   44  C1  UNL     1       9.525  16.204  13.034  1.00  0.00     0.005 C 
ENDBRANCH  42  43
ENDBRANCH  41  42
ENDBRANCH  40  41
ENDBRANCH  39  40
ENDBRANCH   1  39
TORSDOF 14
ENDMDL
MODEL 2
REMARK VINA RESULT: -7.162244758      1.269      1.757
REMARK  14 active torsions:
REMARK  status: ('A' for Active; 'I' for Inactive)
REMARK    1  A    between atoms: C2_2  and  C3_3 
REMARK    2  A    between atoms: C3_3  and  C4_4 
REMARK    3  A    between atoms: C4_4  and  C5_5 
REMARK    4  A    between atoms: C5_5  and  O1_6 
REMARK    5  A    between atoms: O1_6  and  C6_7 
REMARK       I    between atoms: C6_7  and  N1_9 
REMARK    6  A    between atoms: C10_13  and  C11_14 
REMARK    7  A    between atoms: C11_14  and  C12_15 
REMARK    8  A    between atoms: C12_15  and  C14_17 
REMARK    9  A    between atoms: C14_17  and  N2_18 
REMARK   10  A    between atoms: N2_18  and  C15_21 
REMARK   11  A    between atoms: C21_30  and  C22_31 
REMARK   12  A    between atoms: C22_31  and  C23_32 
REMARK   13  A    between atoms: C23_32  and  C24_33 
REMARK   14  A    between atoms: C24_33  and  N4_34 
ROOT
HETATM    1  C6  UNL     1      13.745  20.011  13.618  1.00  0.00     0.362 C 
HETATM    2  O2  UNL     1      14.950  20.311  13.433  1.00  0.00    -0.238 OA
HETATM    3  N1  UNL     1      12.948  20.503  14.678  1.00  0.00    -0.327 N 
HETATM    4  C7  UNL     1      11.564  20.086  14.763  1.00  0.00     0.128 C 
HETATM    5  C8  UNL     1      11.349  18.855  15.617  1.00  0.00     0.022 C 
HETATM    6  C9  UNL     1      10.642  19.288  16.859  1.00  0.00     0.034 C 
HETATM    7  C10 UNL     1      10.453  18.227  17.905  1.00  0.00     0.134 C 
HETATM    8  O3  UNL     1      10.853  18.754  19.114  1.00  0.00    -0.298 OA
HETATM    9  C19 UNL     1      11.808  18.468  20.013  1.00  0.00     0.363 C 
HETATM   10  O4  UNL     1      11.444  18.140  21.210  1.00  0.00    -0.238 OA
HETATM   11  N3  UNL     1      13.238  18.481  19.803  1.00  0.00    -0.319 N 
HETATM   12  C20 UNL     1      13.964  17.347  20.323  1.00  0.00     0.156 C 
HETATM   13  C21 UNL     1      13.920  19.566  19.116  1.00  0.00     0.181 C 
HETATM   14  C26 UNL     1      14.828  19.125  18.046  1.00  0.00     0.240 C 
HETATM   15  O5  UNL     1      15.697  18.231  18.296  1.00  0.00    -0.271 OA
HETATM   16  N7  UNL     1      14.839  19.608  16.711  1.00  0.00    -0.358 N 
ATOM     17  H7  UNL     1      14.908  18.910  15.970  1.00  0.00     0.162 HD
HETATM   18  C27 UNL     1      14.764  20.978  16.303  1.00  0.00     0.142 C 
HETATM   19  C28 UNL     1      13.511  21.410  15.635  1.00  0.00     0.147 C 
ENDROOT
BRANCH   7  20
HETATM   20  C11 UNL     1      11.032  16.924  17.493  1.00  0.00     0.038 C 
BRANCH  20  21
HETATM   21  C12 UNL     1      10.135  15.748  17.531  1.00  0.00     0.009 C 
HETATM   22  C13 UNL     1       9.718  15.552  18.998  1.00  0.00     0.011 C 
BRANCH  21  23
HETATM   23  C14 UNL     1      10.812  14.453  17.141  1.00  0.00     0.237 C 
BRANCH  23  24
HETATM   24  N2  UNL     1       9.996  13.336  17.610  1.00  0.00    -0.067 N 
ATOM     25  H22 UNL     1      10.498  12.775  18.299  1.00  0.00     0.278 HD
ATOM     26  H21 UNL     1       9.227  13.661  18.196  1.00  0.00     0.278 HD
BRANCH  24  27
HETATM   27  C15 UNL     1       9.520  12.526  16.530  1.00  0.00     0.115 C 
HETATM   28  C16 UNL     1      10.645  12.017  15.646  1.00  0.00     0.045 C 
HETATM   29  C17 UNL     1       8.465  13.192  15.699  1.00  0.00     0.045 C 
HETATM   30  C18 UNL     1       8.876  11.289  17.169  1.00  0.00     0.045 C 
ENDBRANCH  24  27
ENDBRANCH  23  24
ENDBRANCH  21  23
ENDBRANCH  20  21
ENDBRANCH   7  20
BRANCH  13  31
HETATM   31  C22 UNL     1      14.512  20.566  20.068  1.00  0.00     0.037 C 
BRANCH  31  32
HETATM   32  C23 UNL     1      15.230  21.711  19.446  1.00  0.00     0.022 C 
BRANCH  32  33
HETATM   33  C24 UNL     1      16.756  21.497  19.545  1.00  0.00     0.122 C 
BRANCH  33  34
HETATM   34  N4  UNL     1      17.443  22.394  18.643  1.00  0.00    -0.367 N 
HETATM   35  C25 UNL     1      18.084  21.959  17.613  1.00  0.00     0.196 C 
HETATM   36  N5  UNL     1      18.754  22.852  16.739  1.00  0.00    -0.067 NA
HETATM   37  N6  UNL     1      18.128  20.570  17.336  1.00  0.00    -0.067 NA
ATOM     38  H4  UNL     1      17.420  23.397  18.827  1.00  0.00     0.161 HD
ENDBRANCH  33  34
ENDBRANCH  32  33
ENDBRANCH  31  32
ENDBRANCH  13  31
BRANCH   1  39
HETATM   39  O1  UNL     1      13.216  19.117  12.665  1.00  0.00    -0.304 OA
BRANCH  39  40
HETATM   40  C5  UNL     1      13.446  17.722  12.736  1.00  0.00     0.180 C 
BRANCH  40  41
HETATM   41  C4  UNL     1      12.147  17.048  12.356  1.00  0.00     0.027 C 
BRANCH  41  42
HETATM   42  C3  UNL     1      12.280  15.541  12.425  1.00  0.00     0.002 C 
BRANCH  42  43
HETATM   43  C2  UNL     1      11.459  14.995  13.569  1.00  0.00    -0.004 C 
HETATM   44  C1  UNL     1      10.208  15.820  13.791  1.00  0.00     0.005 C 
ENDBRANCH  42  43
ENDBRANCH  41  42
ENDBRANCH  40  41
ENDBRANCH  39  40
ENDBRANCH   1  39
TORSDOF 14
ENDMDL
MODEL 3
REMARK VINA RESULT: -6.965315226      1.467      2.210
REMARK  14 active torsions:
REMARK  status: ('A' for Active; 'I' for Inactive)
REMARK    1  A    between atoms: C2_2  and  C3_3 
REMARK    2  A    between atoms: C3_3  and  C4_4 
REMARK    3  A    between atoms: C4_4  and  C5_5 
REMARK    4  A    between atoms: C5_5  and  O1_6 
REMARK    5  A    between atoms: O1_6  and  C6_7 
REMARK       I    between atoms: C6_7  and  N1_9 
REMARK    6  A    between atoms: C10_13  and  C11_14 
REMARK    7  A    between atoms: C11_14  and  C12_15 
REMARK    8  A    between atoms: C12_15  and  C14_17 
REMARK    9  A    between atoms: C14_17  and  N2_18 
REMARK   10  A    between atoms: N2_18  and  C15_21 
REMARK   11  A    between atoms: C21_30  and  C22_31 
REMARK   12  A    between atoms: C22_31  and  C23_32 
REMARK   13  A    between atoms: C23_32  and  C24_33 
REMARK   14  A    between atoms: C24_33  and  N4_34 
ROOT
HETATM    1  C6  UNL     1      13.769  20.097  13.611  1.00  0.00     0.362 C 
HETATM    2  O2  UNL     1      14.976  20.387  13.425  1.00  0.00    -0.238 OA
HETATM    3  N1  UNL     1      12.980  20.584  14.680  1.00  0.00    -0.327 N 
HETATM    4  C7  UNL     1      11.592  20.180  14.764  1.00  0.00     0.128 C 
HETATM    5  C8  UNL     1      11.367  18.941  15.603  1.00  0.00     0.022 C 
HETATM    6  C9  UNL     1      10.669  19.365  16.853  1.00  0.00     0.034 C 
HETATM    7  C10 UNL     1      10.471  18.293  17.885  1.00  0.00     0.134 C 
HETATM    8  O3  UNL     1      10.881  18.800  19.100  1.00  0.00    -0.298 OA
HETATM    9  C19 UNL     1      11.836  18.493  19.992  1.00  0.00     0.363 C 
HETATM   10  O4  UNL     1      11.473  18.153  21.186  1.00  0.00    -0.238 OA
HETATM   11  N3  UNL     1      13.265  18.493  19.777  1.00  0.00    -0.319 N 
HETATM   12  C20 UNL     1      13.981  17.344  20.280  1.00  0.00     0.156 C 
HETATM   13  C21 UNL     1      13.957  19.580  19.103  1.00  0.00     0.181 C 
HETATM   14  C26 UNL     1      14.856  19.143  18.024  1.00  0.00     0.240 C 
HETATM   15  O5  UNL     1      15.716  18.236  18.259  1.00  0.00    -0.271 OA
HETATM   16  N7  UNL     1      14.869  19.642  16.695  1.00  0.00    -0.358 N 
ATOM     17  H7  UNL     1      14.927  18.954  15.945  1.00  0.00     0.162 HD
HETATM   18  C27 UNL     1      14.807  21.018  16.305  1.00  0.00     0.142 C 
HETATM   19  C28 UNL     1      13.556  21.472  15.647  1.00  0.00     0.147 C 
ENDROOT
BRANCH   7  20
HETATM   20  C11 UNL     1      11.036  16.989  17.455  1.00  0.00     0.038 C 
BRANCH  20  21
HETATM   21  C12 UNL     1      10.098  15.847  17.369  1.00  0.00     0.009 C 
HETATM   22  C13 UNL     1       9.630  15.544  18.801  1.00  0.00     0.011 C 
BRANCH  21  23
HETATM   23  C14 UNL     1      10.743  14.566  16.888  1.00  0.00     0.237 C 
BRANCH  23  24
HETATM   24  N2  UNL     1      10.629  14.499  15.433  1.00  0.00    -0.067 N 
ATOM     25  H22 UNL     1      10.085  15.281  15.069  1.00  0.00     0.278 HD
ATOM     26  H21 UNL     1      11.522  14.701  14.983  1.00  0.00     0.278 HD
BRANCH  24  27
HETATM   27  C15 UNL     1      10.096  13.246  14.992  1.00  0.00     0.115 C 
HETATM   28  C16 UNL     1      10.276  13.034  13.499  1.00  0.00     0.045 C 
HETATM   29  C17 UNL     1       8.664  13.032  15.379  1.00  0.00     0.045 C 
HETATM   30  C18 UNL     1      10.920  12.156  15.688  1.00  0.00     0.045 C 
ENDBRANCH  24  27
ENDBRANCH  23  24
ENDBRANCH  21  23
ENDBRANCH  20  21
ENDBRANCH   7  20
BRANCH  13  31
HETATM   31  C22 UNL     1      14.562  20.560  20.065  1.00  0.00     0.037 C 
BRANCH  31  32
HETATM   32  C23 UNL     1      15.317  21.689  19.456  1.00  0.00     0.022 C 
BRANCH  32  33
HETATM   33  C24 UNL     1      16.834  21.423  19.548  1.00  0.00     0.122 C 
BRANCH  33  34
HETATM   34  N4  UNL     1      17.551  22.331  18.681  1.00  0.00    -0.367 N 
HETATM   35  C25 UNL     1      18.163  21.919  17.624  1.00  0.00     0.196 C 
HETATM   36  N5  UNL     1      18.862  22.823  16.786  1.00  0.00    -0.067 NA
HETATM   37  N6  UNL     1      18.143  20.544  17.282  1.00  0.00    -0.067 NA
ATOM     38  H4  UNL     1      17.574  23.325  18.912  1.00  0.00     0.161 HD
ENDBRANCH  33  34
ENDBRANCH  32  33
ENDBRANCH  31  32
ENDBRANCH  13  31
BRANCH   1  39
HETATM   39  O1  UNL     1      13.227  19.221  12.649  1.00  0.00    -0.304 OA
BRANCH  39  40
HETATM   40  C5  UNL     1      13.419  17.820  12.717  1.00  0.00     0.180 C 
BRANCH  40  41
HETATM   41  C4  UNL     1      12.060  17.186  12.521  1.00  0.00     0.027 C 
BRANCH  41  42
HETATM   42  C3  UNL     1      12.195  15.737  12.102  1.00  0.00     0.002 C 
BRANCH  42  43
HETATM   43  C2  UNL     1      13.510  15.517  11.392  1.00  0.00    -0.004 C 
HETATM   44  C1  UNL     1      13.295  14.995   9.986  1.00  0.00     0.005 C 
ENDBRANCH  42  43
ENDBRANCH  41  42
ENDBRANCH  40  41
ENDBRANCH  39  40
ENDBRANCH   1  39
TORSDOF 14
ENDMDL
MODEL 4
REMARK VINA RESULT: -6.961560831      2.303      8.815
REMARK  14 active torsions:
REMARK  status: ('A' for Active; 'I' for Inactive)
REMARK    1  A    between atoms: C2_2  and  C3_3 
REMARK    2  A    between atoms: C3_3  and  C4_4 
REMARK    3  A    between atoms: C4_4  and  C5_5 
REMARK    4  A    between atoms: C5_5  and  O1_6 
REMARK    5  A    between atoms: O1_6  and  C6_7 
REMARK       I    between atoms: C6_7  and  N1_9 
REMARK    6  A    between atoms: C10_13  and  C11_14 
REMARK    7  A    between atoms: C11_14  and  C12_15 
REMARK    8  A    between atoms: C12_15  and  C14_17 
REMARK    9  A    between atoms: C14_17  and  N2_18 
REMARK   10  A    between atoms: N2_18  and  C15_21 
REMARK   11  A    between atoms: C21_30  and  C22_31 
REMARK   12  A    between atoms: C22_31  and  C23_32 
REMARK   13  A    between atoms: C23_32  and  C24_33 
REMARK   14  A    between atoms: C24_33  and  N4_34 
ROOT
HETATM    1  C6  UNL     1      11.915  17.380  19.791  1.00  0.00     0.362 C 
HETATM    2  O2  UNL     1      11.986  16.419  20.596  1.00  0.00    -0.238 OA
HETATM    3  N1  UNL     1      10.803  17.652  18.960  1.00  0.00    -0.327 N 
HETATM    4  C7  UNL     1      10.849  18.808  18.089  1.00  0.00     0.128 C 
HETATM    5  C8  UNL     1      11.385  18.507  16.706  1.00  0.00     0.022 C 
HETATM    6  C9  UNL     1      10.244  18.613  15.749  1.00  0.00     0.034 C 
HETATM    7  C10 UNL     1      10.543  18.219  14.331  1.00  0.00     0.134 C 
HETATM    8  O3  UNL     1       9.545  17.363  13.914  1.00  0.00    -0.298 OA
HETATM    9  C19 UNL     1       9.490  16.085  13.509  1.00  0.00     0.363 C 
HETATM   10  O4  UNL     1       9.068  15.840  12.311  1.00  0.00    -0.238 OA
HETATM   11  N3  UNL     1       9.854  14.910  14.268  1.00  0.00    -0.319 N 
HETATM   12  C20 UNL     1      10.660  13.933  13.575  1.00  0.00     0.156 C 
HETATM   13  C21 UNL     1       9.438  14.707  15.646  1.00  0.00     0.181 C 
HETATM   14  C26 UNL     1      10.533  14.345  16.559  1.00  0.00     0.240 C 
HETATM   15  O5  UNL     1      11.307  13.383  16.252  1.00  0.00    -0.271 OA
HETATM   16  N7  UNL     1      10.834  14.978  17.794  1.00  0.00    -0.358 N 
ATOM     17  H7  UNL     1      11.814  15.192  17.975  1.00  0.00     0.162 HD
HETATM   18  C27 UNL     1       9.893  15.346  18.809  1.00  0.00     0.142 C 
HETATM   19  C28 UNL     1       9.652  16.798  19.002  1.00  0.00     0.147 C 
ENDROOT
BRANCH   7  20
HETATM   20  C11 UNL     1      11.950  17.777  14.156  1.00  0.00     0.038 C 
BRANCH  20  21
HETATM   21  C12 UNL     1      12.591  18.075  12.857  1.00  0.00     0.009 C 
HETATM   22  C13 UNL     1      12.965  16.726  12.223  1.00  0.00     0.011 C 
BRANCH  21  23
HETATM   23  C14 UNL     1      13.899  18.825  12.981  1.00  0.00     0.237 C 
BRANCH  23  24
HETATM   24  N2  UNL     1      13.971  19.427  14.310  1.00  0.00    -0.067 N 
ATOM     25  H22 UNL     1      13.075  19.362  14.794  1.00  0.00     0.278 HD
ATOM     26  H21 UNL     1      14.537  18.861  14.942  1.00  0.00     0.278 HD
BRANCH  24  27
HETATM   27  C15 UNL     1      14.439  20.780  14.264  1.00  0.00     0.115 C 
HETATM   28  C16 UNL     1      15.178  21.093  12.976  1.00  0.00     0.045 C 
HETATM   29  C17 UNL     1      15.270  21.168  15.449  1.00  0.00     0.045 C 
HETATM   30  C18 UNL     1      13.191  21.670  14.277  1.00  0.00     0.045 C 
ENDBRANCH  24  27
ENDBRANCH  23  24
ENDBRANCH  21  23
ENDBRANCH  20  21
ENDBRANCH   7  20
BRANCH  13  31
HETATM   31  C22 UNL     1       8.218  13.838  15.756  1.00  0.00     0.037 C 
BRANCH  31  32
HETATM   32  C23 UNL     1       6.913  14.514  15.524  1.00  0.00     0.022 C 
BRANCH  32  33
HETATM   33  C24 UNL     1       5.926  14.165  16.658  1.00  0.00     0.122 C 
BRANCH  33  34
HETATM   34  N4  UNL     1       6.240  14.932  17.843  1.00  0.00    -0.367 N 
HETATM   35  C25 UNL     1       6.203  14.406  19.020  1.00  0.00     0.196 C 
HETATM   36  N5  UNL     1       6.512  15.173  20.172  1.00  0.00    -0.067 NA
HETATM   37  N6  UNL     1       5.850  13.043  19.179  1.00  0.00    -0.067 NA
ATOM     38  H4  UNL     1       6.497  15.914  17.746  1.00  0.00     0.161 HD
ENDBRANCH  33  34
ENDBRANCH  32  33
ENDBRANCH  31  32
ENDBRANCH  13  31
BRANCH   1  39
HETATM   39  O1  UNL     1      13.059  18.202  19.767  1.00  0.00    -0.304 OA
BRANCH  39  40
HETATM   40  C5  UNL     1      14.261  17.797  19.139  1.00  0.00     0.180 C 
BRANCH  40  41
HETATM   41  C4  UNL     1      14.851  19.032  18.494  1.00  0.00     0.027 C 
BRANCH  41  42
HETATM   42  C3  UNL     1      14.257  20.290  19.092  1.00  0.00     0.002 C 
BRANCH  42  43
HETATM   43  C2  UNL     1      15.255  20.956  20.009  1.00  0.00    -0.004 C 
HETATM   44  C1  UNL     1      16.592  21.146  19.321  1.00  0.00     0.005 C 
ENDBRANCH  42  43
ENDBRANCH  41  42
ENDBRANCH  40  41
ENDBRANCH  39  40
ENDBRANCH   1  39
TORSDOF 14
ENDMDL
MODEL 5
REMARK VINA RESULT: -6.867390490      2.623      8.756
REMARK  14 active torsions:
REMARK  status: ('A' for Active; 'I' for Inactive)
REMARK    1  A    between atoms: C2_2  and  C3_3 
REMARK    2  A    between atoms: C3_3  and  C4_4 
REMARK    3  A    between atoms: C4_4  and  C5_5 
REMARK    4  A    between atoms: C5_5  and  O1_6 
REMARK    5  A    between atoms: O1_6  and  C6_7 
REMARK       I    between atoms: C6_7  and  N1_9 
REMARK    6  A    between atoms: C10_13  and  C11_14 
REMARK    7  A    between atoms: C11_14  and  C12_15 
REMARK    8  A    between atoms: C12_15  and  C14_17 
REMARK    9  A    between atoms: C14_17  and  N2_18 
REMARK   10  A    between atoms: N2_18  and  C15_21 
REMARK   11  A    between atoms: C21_30  and  C22_31 
REMARK   12  A    between atoms: C22_31  and  C23_32 
REMARK   13  A    between atoms: C23_32  and  C24_33 
REMARK   14  A    between atoms: C24_33  and  N4_34 
ROOT
HETATM    1  C6  UNL     1      12.108  17.596  19.843  1.00  0.00     0.362 C 
HETATM    2  O2  UNL     1      12.194  16.654  20.668  1.00  0.00    -0.238 OA
HETATM    3  N1  UNL     1      10.974  17.863  19.041  1.00  0.00    -0.327 N 
HETATM    4  C7  UNL     1      11.005  18.997  18.142  1.00  0.00     0.128 C 
HETATM    5  C8  UNL     1      11.494  18.658  16.750  1.00  0.00     0.022 C 
HETATM    6  C9  UNL     1      10.324  18.755  15.827  1.00  0.00     0.034 C 
HETATM    7  C10 UNL     1      10.574  18.324  14.410  1.00  0.00     0.134 C 
HETATM    8  O3  UNL     1       9.554  17.471  14.045  1.00  0.00    -0.298 OA
HETATM    9  C19 UNL     1       9.471  16.184  13.672  1.00  0.00     0.363 C 
HETATM   10  O4  UNL     1       9.010  15.916  12.494  1.00  0.00    -0.238 OA
HETATM   11  N3  UNL     1       9.846  15.023  14.447  1.00  0.00    -0.319 N 
HETATM   12  C20 UNL     1      10.619  14.020  13.753  1.00  0.00     0.156 C 
HETATM   13  C21 UNL     1       9.471  14.857  15.843  1.00  0.00     0.181 C 
HETATM   14  C26 UNL     1      10.591  14.503  16.729  1.00  0.00     0.240 C 
HETATM   15  O5  UNL     1      11.344  13.526  16.421  1.00  0.00    -0.271 OA
HETATM   16  N7  UNL     1      10.938  15.162  17.938  1.00  0.00    -0.358 N 
ATOM     17  H7  UNL     1      11.925  15.368  18.083  1.00  0.00     0.162 HD
HETATM   18  C27 UNL     1      10.034  15.565  18.973  1.00  0.00     0.142 C 
HETATM   19  C28 UNL     1       9.815  17.024  19.139  1.00  0.00     0.147 C 
ENDROOT
BRANCH   7  20
HETATM   20  C11 UNL     1      11.969  17.861  14.202  1.00  0.00     0.038 C 
BRANCH  20  21
HETATM   21  C12 UNL     1      12.562  18.094  12.867  1.00  0.00     0.009 C 
HETATM   22  C13 UNL     1      12.974  16.720  12.315  1.00  0.00     0.011 C 
BRANCH  21  23
HETATM   23  C14 UNL     1      13.840  18.902  12.900  1.00  0.00     0.237 C 
BRANCH  23  24
HETATM   24  N2  UNL     1      14.014  19.450  14.243  1.00  0.00    -0.067 N 
ATOM     25  H22 UNL     1      13.214  19.234  14.837  1.00  0.00     0.278 HD
ATOM     26  H21 UNL     1      14.737  18.946  14.757  1.00  0.00     0.278 HD
BRANCH  24  27
HETATM   27  C15 UNL     1      14.279  20.857  14.220  1.00  0.00     0.115 C 
HETATM   28  C16 UNL     1      15.399  21.252  15.166  1.00  0.00     0.045 C 
HETATM   29  C17 UNL     1      13.065  21.701  14.470  1.00  0.00     0.045 C 
HETATM   30  C18 UNL     1      14.771  21.182  12.805  1.00  0.00     0.045 C 
ENDBRANCH  24  27
ENDBRANCH  23  24
ENDBRANCH  21  23
ENDBRANCH  20  21
ENDBRANCH   7  20
BRANCH  13  31
HETATM   31  C22 UNL     1       8.246  14.006  16.011  1.00  0.00     0.037 C 
BRANCH  31  32
HETATM   32  C23 UNL     1       8.317  12.963  17.070  1.00  0.00     0.022 C 
BRANCH  32  33
HETATM   33  C24 UNL     1       8.272  11.557  16.434  1.00  0.00     0.122 C 
BRANCH  33  34
HETATM   34  N4  UNL     1       9.606  11.004  16.358  1.00  0.00    -0.367 N 
HETATM   35  C25 UNL     1      10.070  10.504  15.264  1.00  0.00     0.196 C 
HETATM   36  N5  UNL     1      11.380   9.964  15.206  1.00  0.00    -0.067 NA
HETATM   37  N6  UNL     1       9.271  10.488  14.094  1.00  0.00    -0.067 NA
ATOM     38  H4  UNL     1      10.195  11.009  17.191  1.00  0.00     0.161 HD
ENDBRANCH  33  34
ENDBRANCH  32  33
ENDBRANCH  31  32
ENDBRANCH  13  31
BRANCH   1  39
HETATM   39  O1  UNL     1      13.260  18.405  19.764  1.00  0.00    -0.304 OA
BRANCH  39  40
HETATM   40  C5  UNL     1      14.416  17.996  19.055  1.00  0.00     0.180 C 
BRANCH  40  41
HETATM   41  C4  UNL     1      14.877  19.191  18.251  1.00  0.00     0.027 C 
BRANCH  41  42
HETATM   42  C3  UNL     1      14.520  20.485  18.952  1.00  0.00     0.002 C 
BRANCH  42  43
HETATM   43  C2  UNL     1      15.716  21.019  19.706  1.00  0.00    -0.004 C 
HETATM   44  C1  UNL     1      16.976  20.937  18.867  1.00  0.00     0.005 C 
ENDBRANCH  42  43
ENDBRANCH  41  42
ENDBRANCH  40  41
ENDBRANCH  39  40
ENDBRANCH   1  39
TORSDOF 14
ENDMDL
