MODEL 1
REMARK VINA RESULT: -9.979600837      0.000      0.000
REMARK  12 active torsions:
REMARK  status: ('A' for Active; 'I' for Inactive)
REMARK    1  A    between atoms: C2_2  and  C3_3 
REMARK    2  A    between atoms: C3_3  and  C4_4 
REMARK    3  A    between atoms: C9_9  and  C10_10 
REMARK    4  A    between atoms: C10_10  and  C11_11 
REMARK    5  A    between atoms: N1_13  and  S1_14 
REMARK    6  A    between atoms: S1_14  and  C13_17 
REMARK    7  A    between atoms: C13_17  and  C14_18 
REMARK    8  A    between atoms: C21_27  and  N3_28 
REMARK    9  A    between atoms: N3_28  and  C22_30 
REMARK   10  A    between atoms: C22_30  and  C23_31 
REMARK   11  A    between atoms: C26_36  and  N5_37 
REMARK   12  A    between atoms: N5_37  and  C27_39 
ROOT
HETATM    1  C11 UNL     1      21.741  25.770  21.774  1.00  0.00     0.054 C 
HETATM    2  C12 UNL     1      22.324  26.646  20.591  1.00  0.00     0.145 C 
HETATM    3  N1  UNL     1      22.474  25.939  19.410  1.00  0.00    -0.310 N 
HETATM    4  C19 UNL     1      22.908  24.591  19.450  1.00  0.00     0.140 C 
HETATM    5  C20 UNL     1      22.066  23.696  20.356  1.00  0.00     0.073 C 
HETATM    6  C21 UNL     1      21.109  24.630  21.072  1.00  0.00    -0.006 C 
ENDROOT
BRANCH   6   7
HETATM    7  N3  UNL     1      19.907  24.069  21.518  1.00  0.00    -0.370 N 
ATOM      8  H3  UNL     1      19.561  24.376  22.428  1.00  0.00     0.165 HD
BRANCH   7   9
HETATM    9  C22 UNL     1      19.146  23.141  20.840  1.00  0.00     0.117 C 
BRANCH   9  10
HETATM   10  C23 UNL     1      18.338  23.705  19.714  1.00  0.00     0.065 A 
HETATM   11  C24 UNL     1      18.984  24.388  18.691  1.00  0.00     0.049 A 
HETATM   12  C25 UNL     1      18.298  24.928  17.628  1.00  0.00     0.108 A 
HETATM   13  N4  UNL     1      16.966  24.784  17.588  1.00  0.00    -0.202 N 
HETATM   14  C26 UNL     1      16.331  24.128  18.567  1.00  0.00     0.684 A 
ATOM     15  H4  UNL     1      16.434  25.176  16.811  1.00  0.00     0.183 HD
HETATM   16  N8  UNL     1      17.011  23.603  19.603  1.00  0.00    -0.190 N 
ATOM     17  H8  UNL     1      16.494  23.108  20.330  1.00  0.00     0.184 HD
BRANCH  14  18
HETATM   18  N5  UNL     1      15.026  24.014  18.493  1.00  0.00    -0.175 N 
ATOM     19  H5  UNL     1      14.428  24.505  19.158  1.00  0.00     0.186 HD
BRANCH  18  20
HETATM   20  C27 UNL     1      14.449  23.194  17.471  1.00  0.00     0.136 A 
HETATM   21  C28 UNL     1      14.597  21.827  17.311  1.00  0.00     0.069 A 
HETATM   22  C29 UNL     1      13.885  21.416  16.190  1.00  0.00     0.111 A 
HETATM   23  N6  UNL     1      13.323  22.529  15.695  1.00  0.00    -0.310 N 
HETATM   24  N7  UNL     1      13.660  23.582  16.456  1.00  0.00    -0.285 N 
ATOM     25  H6  UNL     1      12.730  22.569  14.866  1.00  0.00     0.186 HD
ATOM     26  H7  UNL     1      13.359  24.542  16.287  1.00  0.00     0.188 HD
ENDBRANCH  18  20
ENDBRANCH  14  18
ENDBRANCH   9  10
ENDBRANCH   7   9
ENDBRANCH   6   7
BRANCH   1  27
HETATM   27  C10 UNL     1      22.929  25.576  22.637  1.00  0.00     0.051 C 
BRANCH  27  28
HETATM   28  C9  UNL     1      22.993  26.184  23.965  1.00  0.00    -0.051 A 
HETATM   29  C4  UNL     1      24.125  26.067  24.730  1.00  0.00    -0.052 A 
HETATM   30  C5  UNL     1      24.151  26.746  25.961  1.00  0.00     0.007 A 
HETATM   31  C6  UNL     1      23.096  27.498  26.399  1.00  0.00     0.001 A 
HETATM   32  C7  UNL     1      21.942  27.614  25.622  1.00  0.00     0.001 A 
HETATM   33  C8  UNL     1      21.923  26.961  24.440  1.00  0.00     0.007 A 
BRANCH  29  34
HETATM   34  C3  UNL     1      25.284  25.177  24.473  1.00  0.00     0.039 C 
BRANCH  34  35
HETATM   35  C2  UNL     1      26.484  25.899  23.935  1.00  0.00     0.000 C 
HETATM   36  C1  UNL     1      26.591  26.090  22.479  1.00  0.00     0.005 C 
ENDBRANCH  34  35
ENDBRANCH  29  34
ENDBRANCH  27  28
ENDBRANCH   1  27
BRANCH   3  37
HETATM   37  S1  UNL     1      22.367  26.674  17.923  1.00  0.00     0.229 S 
HETATM   38  O1  UNL     1      23.731  27.155  17.478  1.00  0.00    -0.206 OA
HETATM   39  O2  UNL     1      21.567  27.982  18.086  1.00  0.00    -0.206 OA
BRANCH  37  40
HETATM   40  C13 UNL     1      21.601  25.797  16.630  1.00  0.00     0.168 C 
BRANCH  40  41
HETATM   41  C14 UNL     1      22.079  25.993  15.247  1.00  0.00     0.004 C 
HETATM   42  C15 UNL     1      21.421  24.966  14.317  1.00  0.00     0.025 C 
HETATM   43  C16 UNL     1      19.938  25.126  14.400  1.00  0.00     0.114 C 
HETATM   44  N2  UNL     1      19.489  26.470  14.347  1.00  0.00    -0.421 N 
HETATM   45  C17 UNL     1      20.445  27.439  13.974  1.00  0.00     0.114 C 
ATOM     46  H2  UNL     1      18.525  26.723  14.566  1.00  0.00     0.153 HD
HETATM   47  C18 UNL     1      21.791  27.322  14.658  1.00  0.00     0.025 C 
ENDBRANCH  40  41
ENDBRANCH  37  40
ENDBRANCH   3  37
TORSDOF 12
ENDMDL
MODEL 2
REMARK VINA RESULT: -9.956947335      3.327      7.090
REMARK  12 active torsions:
REMARK  status: ('A' for Active; 'I' for Inactive)
REMARK    1  A    between atoms: C2_2  and  C3_3 
REMARK    2  A    between atoms: C3_3  and  C4_4 
REMARK    3  A    between atoms: C9_9  and  C10_10 
REMARK    4  A    between atoms: C10_10  and  C11_11 
REMARK    5  A    between atoms: N1_13  and  S1_14 
REMARK    6  A    between atoms: S1_14  and  C13_17 
REMARK    7  A    between atoms: C13_17  and  C14_18 
REMARK    8  A    between atoms: C21_27  and  N3_28 
REMARK    9  A    between atoms: N3_28  and  C22_30 
REMARK   10  A    between atoms: C22_30  and  C23_31 
REMARK   11  A    between atoms: C26_36  and  N5_37 
REMARK   12  A    between atoms: N5_37  and  C27_39 
ROOT
HETATM    1  C11 UNL     1      19.744  23.567  18.470  1.00  0.00     0.054 C 
HETATM    2  C12 UNL     1      21.061  24.325  18.912  1.00  0.00     0.145 C 
HETATM    3  N1  UNL     1      21.129  24.552  20.277  1.00  0.00    -0.310 N 
HETATM    4  C19 UNL     1      19.952  24.891  20.990  1.00  0.00     0.140 C 
HETATM    5  C20 UNL     1      18.805  23.903  20.798  1.00  0.00     0.073 C 
HETATM    6  C21 UNL     1      19.275  22.939  19.726  1.00  0.00    -0.006 C 
ENDROOT
BRANCH   6   7
HETATM    7  N3  UNL     1      18.701  21.663  19.738  1.00  0.00    -0.370 N 
ATOM      8  H3  UNL     1      18.685  21.170  20.631  1.00  0.00     0.165 HD
BRANCH   7   9
HETATM    9  C22 UNL     1      18.154  21.011  18.653  1.00  0.00     0.117 C 
BRANCH   9  10
HETATM   10  C23 UNL     1      16.658  20.973  18.642  1.00  0.00     0.065 A 
HETATM   11  C24 UNL     1      15.948  22.151  18.837  1.00  0.00     0.049 A 
HETATM   12  C25 UNL     1      14.573  22.182  18.836  1.00  0.00     0.108 A 
HETATM   13  N4  UNL     1      13.908  21.035  18.640  1.00  0.00    -0.202 N 
HETATM   14  C26 UNL     1      14.580  19.893  18.450  1.00  0.00     0.684 A 
ATOM     15  H4  UNL     1      12.888  21.032  18.635  1.00  0.00     0.183 HD
HETATM   16  N8  UNL     1      15.926  19.872  18.452  1.00  0.00    -0.190 N 
ATOM     17  H8  UNL     1      16.404  18.984  18.303  1.00  0.00     0.184 HD
BRANCH  14  18
HETATM   18  N5  UNL     1      13.892  18.791  18.266  1.00  0.00    -0.175 N 
ATOM     19  H5  UNL     1      13.943  18.295  17.376  1.00  0.00     0.186 HD
BRANCH  18  20
HETATM   20  C27 UNL     1      13.068  18.292  19.325  1.00  0.00     0.136 A 
HETATM   21  C28 UNL     1      13.466  17.948  20.605  1.00  0.00     0.069 A 
HETATM   22  C29 UNL     1      12.365  17.495  21.323  1.00  0.00     0.111 A 
HETATM   23  N6  UNL     1      11.329  17.572  20.475  1.00  0.00    -0.310 N 
HETATM   24  N7  UNL     1      11.748  18.043  19.290  1.00  0.00    -0.285 N 
ATOM     25  H6  UNL     1      10.368  17.312  20.697  1.00  0.00     0.186 HD
ATOM     26  H7  UNL     1      11.149  18.192  18.479  1.00  0.00     0.188 HD
ENDBRANCH  18  20
ENDBRANCH  14  18
ENDBRANCH   9  10
ENDBRANCH   7   9
ENDBRANCH   6   7
BRANCH   1  27
HETATM   27  C10 UNL     1      18.966  24.643  17.813  1.00  0.00     0.051 C 
BRANCH  27  28
HETATM   28  C9  UNL     1      19.138  24.925  16.389  1.00  0.00    -0.051 A 
HETATM   29  C4  UNL     1      18.126  24.666  15.501  1.00  0.00    -0.052 A 
HETATM   30  C5  UNL     1      18.325  25.040  14.160  1.00  0.00     0.007 A 
HETATM   31  C6  UNL     1      19.481  25.635  13.736  1.00  0.00     0.001 A 
HETATM   32  C7  UNL     1      20.514  25.894  14.639  1.00  0.00     0.001 A 
HETATM   33  C8  UNL     1      20.315  25.536  15.926  1.00  0.00     0.007 A 
BRANCH  29  34
HETATM   34  C3  UNL     1      16.885  23.897  15.766  1.00  0.00     0.039 C 
BRANCH  34  35
HETATM   35  C2  UNL     1      16.927  22.493  15.239  1.00  0.00     0.000 C 
HETATM   36  C1  UNL     1      15.662  21.748  15.131  1.00  0.00     0.005 C 
ENDBRANCH  34  35
ENDBRANCH  29  34
ENDBRANCH  27  28
ENDBRANCH   1  27
BRANCH   3  37
HETATM   37  S1  UNL     1      22.579  24.648  21.083  1.00  0.00     0.229 S 
HETATM   38  O1  UNL     1      22.794  23.406  21.920  1.00  0.00    -0.206 OA
HETATM   39  O2  UNL     1      22.473  25.770  22.137  1.00  0.00    -0.206 OA
BRANCH  37  40
HETATM   40  C13 UNL     1      24.010  24.989  20.155  1.00  0.00     0.168 C 
BRANCH  40  41
HETATM   41  C14 UNL     1      24.318  26.387  19.797  1.00  0.00     0.004 C 
HETATM   42  C15 UNL     1      25.692  26.463  19.119  1.00  0.00     0.025 C 
HETATM   43  C16 UNL     1      25.677  25.589  17.908  1.00  0.00     0.114 C 
HETATM   44  N2  UNL     1      24.519  25.724  17.101  1.00  0.00    -0.421 N 
HETATM   45  C17 UNL     1      23.672  26.815  17.392  1.00  0.00     0.114 C 
ATOM     46  H2  UNL     1      24.309  25.067  16.349  1.00  0.00     0.153 HD
HETATM   47  C18 UNL     1      23.364  27.027  18.859  1.00  0.00     0.025 C 
ENDBRANCH  40  41
ENDBRANCH  37  40
ENDBRANCH   3  37
TORSDOF 12
ENDMDL
MODEL 3
REMARK VINA RESULT: -9.934056323      3.592      8.741
REMARK  12 active torsions:
REMARK  status: ('A' for Active; 'I' for Inactive)
REMARK    1  A    between atoms: C2_2  and  C3_3 
REMARK    2  A    between atoms: C3_3  and  C4_4 
REMARK    3  A    between atoms: C9_9  and  C10_10 
REMARK    4  A    between atoms: C10_10  and  C11_11 
REMARK    5  A    between atoms: N1_13  and  S1_14 
REMARK    6  A    between atoms: S1_14  and  C13_17 
REMARK    7  A    between atoms: C13_17  and  C14_18 
REMARK    8  A    between atoms: C21_27  and  N3_28 
REMARK    9  A    between atoms: N3_28  and  C22_30 
REMARK   10  A    between atoms: C22_30  and  C23_31 
REMARK   11  A    between atoms: C26_36  and  N5_37 
REMARK   12  A    between atoms: N5_37  and  C27_39 
ROOT
HETATM    1  C11 UNL     1      18.377  24.436  17.910  1.00  0.00     0.054 C 
HETATM    2  C12 UNL     1      17.298  23.825  16.927  1.00  0.00     0.145 C 
HETATM    3  N1  UNL     1      16.798  22.605  17.352  1.00  0.00    -0.310 N 
HETATM    4  C19 UNL     1      17.664  21.672  17.974  1.00  0.00     0.140 C 
HETATM    5  C20 UNL     1      18.430  22.237  19.167  1.00  0.00     0.073 C 
HETATM    6  C21 UNL     1      18.120  23.721  19.181  1.00  0.00    -0.006 C 
ENDROOT
BRANCH   6   7
HETATM    7  N3  UNL     1      18.219  24.368  20.419  1.00  0.00    -0.370 N 
ATOM      8  H3  UNL     1      17.601  25.163  20.577  1.00  0.00     0.165 HD
BRANCH   7   9
HETATM    9  C22 UNL     1      19.076  24.027  21.444  1.00  0.00     0.117 C 
BRANCH   9  10
HETATM   10  C23 UNL     1      20.506  24.392  21.204  1.00  0.00     0.065 A 
HETATM   11  C24 UNL     1      20.960  25.647  21.591  1.00  0.00     0.049 A 
HETATM   12  C25 UNL     1      22.264  26.042  21.400  1.00  0.00     0.108 A 
HETATM   13  N4  UNL     1      23.113  25.182  20.820  1.00  0.00    -0.202 N 
HETATM   14  C26 UNL     1      22.689  23.970  20.442  1.00  0.00     0.684 A 
ATOM     15  H4  UNL     1      24.085  25.452  20.667  1.00  0.00     0.183 HD
HETATM   16  N8  UNL     1      21.412  23.592  20.634  1.00  0.00    -0.190 N 
ATOM     17  H8  UNL     1      21.125  22.661  20.335  1.00  0.00     0.184 HD
BRANCH  14  18
HETATM   18  N5  UNL     1      23.552  23.160  19.874  1.00  0.00    -0.175 N 
ATOM     19  H5  UNL     1      23.249  22.252  19.523  1.00  0.00     0.186 HD
BRANCH  18  20
HETATM   20  C27 UNL     1      24.920  23.563  19.753  1.00  0.00     0.136 A 
HETATM   21  C28 UNL     1      25.936  23.364  20.671  1.00  0.00     0.069 A 
HETATM   22  C29 UNL     1      27.113  23.916  20.180  1.00  0.00     0.111 A 
HETATM   23  N6  UNL     1      26.795  24.433  18.985  1.00  0.00    -0.310 N 
HETATM   24  N7  UNL     1      25.493  24.224  18.734  1.00  0.00    -0.285 N 
ATOM     25  H6  UNL     1      27.444  24.913  18.361  1.00  0.00     0.186 HD
ATOM     26  H7  UNL     1      25.008  24.524  17.888  1.00  0.00     0.188 HD
ENDBRANCH  18  20
ENDBRANCH  14  18
ENDBRANCH   9  10
ENDBRANCH   7   9
ENDBRANCH   6   7
BRANCH   1  27
HETATM   27  C10 UNL     1      19.638  24.235  17.159  1.00  0.00     0.051 C 
BRANCH  27  28
HETATM   28  C9  UNL     1      20.544  25.355  16.912  1.00  0.00    -0.051 A 
HETATM   29  C4  UNL     1      20.905  25.688  15.632  1.00  0.00    -0.052 A 
HETATM   30  C5  UNL     1      21.712  26.827  15.459  1.00  0.00     0.007 A 
HETATM   31  C6  UNL     1      22.136  27.585  16.515  1.00  0.00     0.001 A 
HETATM   32  C7  UNL     1      21.772  27.243  17.819  1.00  0.00     0.001 A 
HETATM   33  C8  UNL     1      20.995  26.149  17.979  1.00  0.00     0.007 A 
BRANCH  29  34
HETATM   34  C3  UNL     1      20.660  24.894  14.403  1.00  0.00     0.039 C 
BRANCH  34  35
HETATM   35  C2  UNL     1      19.632  25.502  13.493  1.00  0.00     0.000 C 
HETATM   36  C1  UNL     1      18.333  25.888  14.065  1.00  0.00     0.005 C 
ENDBRANCH  34  35
ENDBRANCH  29  34
ENDBRANCH  27  28
ENDBRANCH   1  27
BRANCH   3  37
HETATM   37  S1  UNL     1      15.260  22.102  16.973  1.00  0.00     0.229 S 
HETATM   38  O1  UNL     1      14.300  23.270  17.031  1.00  0.00    -0.206 OA
HETATM   39  O2  UNL     1      14.761  21.178  18.102  1.00  0.00    -0.206 OA
BRANCH  37  40
HETATM   40  C13 UNL     1      15.029  21.223  15.490  1.00  0.00     0.168 C 
BRANCH  40  41
HETATM   41  C14 UNL     1      13.974  21.657  14.554  1.00  0.00     0.004 C 
HETATM   42  C15 UNL     1      14.224  21.051  13.167  1.00  0.00     0.025 C 
HETATM   43  C16 UNL     1      14.251  19.563  13.293  1.00  0.00     0.114 C 
HETATM   44  N2  UNL     1      13.208  19.022  14.087  1.00  0.00    -0.421 N 
HETATM   45  C17 UNL     1      12.160  19.902  14.435  1.00  0.00     0.114 C 
ATOM     46  H2  UNL     1      13.214  18.048  14.391  1.00  0.00     0.153 HD
HETATM   47  C18 UNL     1      12.594  21.267  14.928  1.00  0.00     0.025 C 
ENDBRANCH  40  41
ENDBRANCH  37  40
ENDBRANCH   3  37
TORSDOF 12
ENDMDL
MODEL 4
REMARK VINA RESULT: -9.860830978      5.626      9.867
REMARK  12 active torsions:
REMARK  status: ('A' for Active; 'I' for Inactive)
REMARK    1  A    between atoms: C2_2  and  C3_3 
REMARK    2  A    between atoms: C3_3  and  C4_4 
REMARK    3  A    between atoms: C9_9  and  C10_10 
REMARK    4  A    between atoms: C10_10  and  C11_11 
REMARK    5  A    between atoms: N1_13  and  S1_14 
REMARK    6  A    between atoms: S1_14  and  C13_17 
REMARK    7  A    between atoms: C13_17  and  C14_18 
REMARK    8  A    between atoms: C21_27  and  N3_28 
REMARK    9  A    between atoms: N3_28  and  C22_30 
REMARK   10  A    between atoms: C22_30  and  C23_31 
REMARK   11  A    between atoms: C26_36  and  N5_37 
REMARK   12  A    between atoms: N5_37  and  C27_39 
ROOT
HETATM    1  C11 UNL     1      16.499  22.364  15.642  1.00  0.00     0.054 C 
HETATM    2  C12 UNL     1      16.548  21.744  17.098  1.00  0.00     0.145 C 
HETATM    3  N1  UNL     1      15.294  21.493  17.628  1.00  0.00    -0.310 N 
HETATM    4  C19 UNL     1      14.233  22.399  17.378  1.00  0.00     0.140 C 
HETATM    5  C20 UNL     1      14.000  22.688  15.898  1.00  0.00     0.073 C 
HETATM    6  C21 UNL     1      15.142  22.009  15.168  1.00  0.00    -0.006 C 
ENDROOT
BRANCH   6   7
HETATM    7  N3  UNL     1      14.903  21.642  13.839  1.00  0.00    -0.370 N 
ATOM      8  H3  UNL     1      14.586  22.375  13.205  1.00  0.00     0.165 HD
BRANCH   7   9
HETATM    9  C22 UNL     1      15.057  20.378  13.308  1.00  0.00     0.117 C 
BRANCH   9  10
HETATM   10  C23 UNL     1      13.900  19.460  13.546  1.00  0.00     0.065 A 
HETATM   11  C24 UNL     1      13.682  18.403  12.672  1.00  0.00     0.049 A 
HETATM   12  C25 UNL     1      12.638  17.523  12.838  1.00  0.00     0.108 A 
HETATM   13  N4  UNL     1      11.811  17.702  13.878  1.00  0.00    -0.202 N 
HETATM   14  C26 UNL     1      12.009  18.717  14.727  1.00  0.00     0.684 A 
ATOM     15  H4  UNL     1      11.029  17.063  14.022  1.00  0.00     0.183 HD
HETATM   16  N8  UNL     1      13.035  19.572  14.557  1.00  0.00    -0.190 N 
ATOM     17  H8  UNL     1      13.156  20.333  15.225  1.00  0.00     0.184 HD
BRANCH  14  18
HETATM   18  N5  UNL     1      11.174  18.860  15.729  1.00  0.00    -0.175 N 
ATOM     19  H5  UNL     1      11.124  18.151  16.461  1.00  0.00     0.186 HD
BRANCH  18  20
HETATM   20  C27 UNL     1      10.336  20.018  15.786  1.00  0.00     0.136 A 
HETATM   21  C28 UNL     1       9.975  20.843  14.735  1.00  0.00     0.069 A 
HETATM   22  C29 UNL     1       9.160  21.864  15.211  1.00  0.00     0.111 A 
HETATM   23  N6  UNL     1       9.041  21.642  16.528  1.00  0.00    -0.310 N 
HETATM   24  N7  UNL     1       9.741  20.548  16.867  1.00  0.00    -0.285 N 
ATOM     25  H6  UNL     1       8.501  22.218  17.175  1.00  0.00     0.186 HD
ATOM     26  H7  UNL     1       9.810  20.172  17.813  1.00  0.00     0.188 HD
ENDBRANCH  18  20
ENDBRANCH  14  18
ENDBRANCH   9  10
ENDBRANCH   7   9
ENDBRANCH   6   7
BRANCH   1  27
HETATM   27  C10 UNL     1      16.881  23.774  15.887  1.00  0.00     0.051 C 
BRANCH  27  28
HETATM   28  C9  UNL     1      18.147  24.302  15.381  1.00  0.00    -0.051 A 
HETATM   29  C4  UNL     1      19.326  24.011  16.016  1.00  0.00    -0.052 A 
HETATM   30  C5  UNL     1      20.515  24.480  15.428  1.00  0.00     0.007 A 
HETATM   31  C6  UNL     1      20.515  25.206  14.269  1.00  0.00     0.001 A 
HETATM   32  C7  UNL     1      19.314  25.507  13.625  1.00  0.00     0.001 A 
HETATM   33  C8  UNL     1      18.176  25.051  14.193  1.00  0.00     0.007 A 
BRANCH  29  34
HETATM   34  C3  UNL     1      19.487  23.373  17.346  1.00  0.00     0.039 C 
BRANCH  34  35
HETATM   35  C2  UNL     1      19.287  24.320  18.492  1.00  0.00     0.000 C 
HETATM   36  C1  UNL     1      18.362  23.930  19.568  1.00  0.00     0.005 C 
ENDBRANCH  34  35
ENDBRANCH  29  34
ENDBRANCH  27  28
ENDBRANCH   1  27
BRANCH   3  37
HETATM   37  S1  UNL     1      15.028  20.272  18.725  1.00  0.00     0.229 S 
HETATM   38  O1  UNL     1      15.539  20.677  20.090  1.00  0.00    -0.206 OA
HETATM   39  O2  UNL     1      15.930  19.079  18.349  1.00  0.00    -0.206 OA
BRANCH  37  40
HETATM   40  C13 UNL     1      13.415  19.634  18.864  1.00  0.00     0.168 C 
BRANCH  40  41
HETATM   41  C14 UNL     1      13.217  18.172  18.847  1.00  0.00     0.004 C 
HETATM   42  C15 UNL     1      13.921  17.535  20.051  1.00  0.00     0.025 C 
HETATM   43  C16 UNL     1      13.370  18.137  21.302  1.00  0.00     0.114 C 
HETATM   44  N2  UNL     1      11.956  18.245  21.327  1.00  0.00    -0.421 N 
HETATM   45  C17 UNL     1      11.254  17.558  20.314  1.00  0.00     0.114 C 
ATOM     46  H2  UNL     1      11.472  18.790  22.041  1.00  0.00     0.153 HD
HETATM   47  C18 UNL     1      11.806  17.722  18.913  1.00  0.00     0.025 C 
ENDBRANCH  40  41
ENDBRANCH  37  40
ENDBRANCH   3  37
TORSDOF 12
ENDMDL
MODEL 5
REMARK VINA RESULT: -9.855946844      2.082      6.766
REMARK  12 active torsions:
REMARK  status: ('A' for Active; 'I' for Inactive)
REMARK    1  A    between atoms: C2_2  and  C3_3 
REMARK    2  A    between atoms: C3_3  and  C4_4 
REMARK    3  A    between atoms: C9_9  and  C10_10 
REMARK    4  A    between atoms: C10_10  and  C11_11 
REMARK    5  A    between atoms: N1_13  and  S1_14 
REMARK    6  A    between atoms: S1_14  and  C13_17 
REMARK    7  A    between atoms: C13_17  and  C14_18 
REMARK    8  A    between atoms: C21_27  and  N3_28 
REMARK    9  A    between atoms: N3_28  and  C22_30 
REMARK   10  A    between atoms: C22_30  and  C23_31 
REMARK   11  A    between atoms: C26_36  and  N5_37 
REMARK   12  A    between atoms: N5_37  and  C27_39 
ROOT
HETATM    1  C11 UNL     1      21.334  24.976  18.939  1.00  0.00     0.054 C 
HETATM    2  C12 UNL     1      22.841  25.432  18.780  1.00  0.00     0.145 C 
HETATM    3  N1  UNL     1      23.322  26.123  19.880  1.00  0.00    -0.310 N 
HETATM    4  C19 UNL     1      22.474  27.026  20.566  1.00  0.00     0.140 C 
HETATM    5  C20 UNL     1      21.151  26.414  21.017  1.00  0.00     0.073 C 
HETATM    6  C21 UNL     1      21.116  25.027  20.403  1.00  0.00    -0.006 C 
ENDROOT
BRANCH   6   7
HETATM    7  N3  UNL     1      20.334  24.072  21.062  1.00  0.00    -0.370 N 
ATOM      8  H3  UNL     1      20.828  23.320  21.543  1.00  0.00     0.165 HD
BRANCH   7   9
HETATM    9  C22 UNL     1      18.957  24.055  21.122  1.00  0.00     0.117 C 
BRANCH   9  10
HETATM   10  C23 UNL     1      18.310  23.048  20.224  1.00  0.00     0.065 A 
HETATM   11  C24 UNL     1      19.108  22.149  19.527  1.00  0.00     0.049 A 
HETATM   12  C25 UNL     1      18.574  21.199  18.688  1.00  0.00     0.108 A 
HETATM   13  N4  UNL     1      17.242  21.149  18.545  1.00  0.00    -0.202 N 
HETATM   14  C26 UNL     1      16.462  22.009  19.211  1.00  0.00     0.684 A 
ATOM     15  H4  UNL     1      16.822  20.454  17.928  1.00  0.00     0.183 HD
HETATM   16  N8  UNL     1      16.993  22.935  20.030  1.00  0.00    -0.190 N 
ATOM     17  H8  UNL     1      16.368  23.573  20.522  1.00  0.00     0.184 HD
BRANCH  14  18
HETATM   18  N5  UNL     1      15.163  21.929  19.040  1.00  0.00    -0.175 N 
ATOM     19  H5  UNL     1      14.567  21.579  19.789  1.00  0.00     0.186 HD
BRANCH  18  20
HETATM   20  C27 UNL     1      14.592  22.339  17.793  1.00  0.00     0.136 A 
HETATM   21  C28 UNL     1      14.333  21.544  16.689  1.00  0.00     0.069 A 
HETATM   22  C29 UNL     1      13.787  22.326  15.678  1.00  0.00     0.111 A 
HETATM   23  N6  UNL     1      13.724  23.568  16.180  1.00  0.00    -0.310 N 
HETATM   24  N7  UNL     1      14.203  23.573  17.434  1.00  0.00    -0.285 N 
ATOM     25  H6  UNL     1      13.367  24.385  15.685  1.00  0.00     0.186 HD
ATOM     26  H7  UNL     1      14.264  24.399  18.030  1.00  0.00     0.188 HD
ENDBRANCH  18  20
ENDBRANCH  14  18
ENDBRANCH   9  10
ENDBRANCH   7   9
ENDBRANCH   6   7
BRANCH   1  27
HETATM   27  C10 UNL     1      20.626  25.903  18.026  1.00  0.00     0.051 C 
BRANCH  27  28
HETATM   28  C9  UNL     1      19.691  25.393  17.025  1.00  0.00    -0.051 A 
HETATM   29  C4  UNL     1      20.110  25.147  15.743  1.00  0.00    -0.052 A 
HETATM   30  C5  UNL     1      19.181  24.578  14.853  1.00  0.00     0.007 A 
HETATM   31  C6  UNL     1      17.901  24.279  15.230  1.00  0.00     0.001 A 
HETATM   32  C7  UNL     1      17.473  24.534  16.534  1.00  0.00     0.001 A 
HETATM   33  C8  UNL     1      18.370  25.078  17.386  1.00  0.00     0.007 A 
BRANCH  29  34
HETATM   34  C3  UNL     1      21.403  25.548  15.137  1.00  0.00     0.039 C 
BRANCH  34  35
HETATM   35  C2  UNL     1      21.293  26.731  14.220  1.00  0.00     0.000 C 
HETATM   36  C1  UNL     1      20.608  27.936  14.714  1.00  0.00     0.005 C 
ENDBRANCH  34  35
ENDBRANCH  29  34
ENDBRANCH  27  28
ENDBRANCH   1  27
BRANCH   3  37
HETATM   37  S1  UNL     1      24.929  26.093  20.306  1.00  0.00     0.229 S 
HETATM   38  O1  UNL     1      25.652  27.276  19.701  1.00  0.00    -0.206 OA
HETATM   39  O2  UNL     1      25.590  24.883  19.616  1.00  0.00    -0.206 OA
BRANCH  37  40
HETATM   40  C13 UNL     1      25.325  25.962  21.995  1.00  0.00     0.168 C 
BRANCH  40  41
HETATM   41  C14 UNL     1      24.318  25.420  22.929  1.00  0.00     0.004 C 
HETATM   42  C15 UNL     1      24.131  23.918  22.681  1.00  0.00     0.025 C 
HETATM   43  C16 UNL     1      25.448  23.235  22.855  1.00  0.00     0.114 C 
HETATM   44  N2  UNL     1      26.172  23.644  24.004  1.00  0.00    -0.421 N 
HETATM   45  C17 UNL     1      25.471  24.426  24.946  1.00  0.00     0.114 C 
ATOM     46  H2  UNL     1      27.150  23.385  24.142  1.00  0.00     0.153 HD
HETATM   47  C18 UNL     1      24.648  25.558  24.368  1.00  0.00     0.025 C 
ENDBRANCH  40  41
ENDBRANCH  37  40
ENDBRANCH   3  37
TORSDOF 12
ENDMDL
