MODEL 1
REMARK VINA RESULT: -8.208634188      0.000      0.000
REMARK  20 active torsions:
REMARK  status: ('A' for Active; 'I' for Inactive)
REMARK    1  A    between atoms: O1_2  and  C2_3 
REMARK    2  A    between atoms: C3_5  and  C4_6 
REMARK    3  A    between atoms: C5_7  and  C6_8 
REMARK    4  A    between atoms: C6_8  and  O3_9 
REMARK    5  A    between atoms: C7_12  and  S1_13 
REMARK    6  A    between atoms: S1_13  and  C8_16 
REMARK    7  A    between atoms: C10_23  and  C11_24 
REMARK    8  A    between atoms: C12_27  and  C13_28 
REMARK    9  A    between atoms: C13_28  and  N3_29 
REMARK   10  A    between atoms: N3_29  and  C14_32 
REMARK   11  A    between atoms: C14_32  and  O10_35 
REMARK   12  A    between atoms: C17_38  and  O12_39 
REMARK   13  A    between atoms: O12_39  and  C18_40 
REMARK   14  A    between atoms: C18_40  and  N8_51 
REMARK   15  A    between atoms: N4_41  and  C19_43 
REMARK   16  A    between atoms: C19_43  and  C20_44 
REMARK   17  A    between atoms: C20_44  and  N5_45 
REMARK   18  A    between atoms: N5_45  and  N6_47 
REMARK   19  A    between atoms: N6_47  and  N7_48 
REMARK   20  A    between atoms: C22_55  and  N10_56 
ROOT
HETATM    1  C8  UNL     1      13.461   9.352  30.579  1.00  0.00     0.348 C 
HETATM    2  O7  UNL     1      13.020   8.339  29.988  1.00  0.00    -0.263 OA
HETATM    3  C9  UNL     1      14.760   9.830  30.224  1.00  0.00     0.155 C 
HETATM    4  N1  UNL     1      15.808  10.210  29.916  1.00  0.00    -0.187 NA
ENDROOT
BRANCH   1   5
HETATM    5  S1  UNL     1      12.483  10.128  31.795  1.00  0.00     0.276 S 
HETATM    6  O5  UNL     1      12.335   9.261  33.021  1.00  0.00    -0.214 OA
HETATM    7  O6  UNL     1      13.233  11.356  32.242  1.00  0.00    -0.214 OA
BRANCH   5   8
HETATM    8  C7  UNL     1      10.863  10.584  31.161  1.00  0.00     0.455 C 
HETATM    9  O4  UNL     1       9.890   9.698  31.495  1.00  0.00    -0.340 OA
HETATM   10  C5  UNL     1       8.965   9.396  30.531  1.00  0.00     0.158 C 
HETATM   11  C4  UNL     1       8.553  10.581  29.682  1.00  0.00     0.090 C 
HETATM   12  C10 UNL     1       9.691  11.413  29.260  1.00  0.00     0.299 C 
HETATM   13  N2  UNL     1      10.941  10.809  29.743  1.00  0.00    -0.020 N 
ATOM     14  H22 UNL     1      11.757  11.366  29.489  1.00  0.00     0.282 HD
ATOM     15  H21 UNL     1      11.177   9.958  29.234  1.00  0.00     0.282 HD
BRANCH  10  16
HETATM   16  C6  UNL     1       9.378   8.167  29.833  1.00  0.00     0.196 C 
BRANCH  16  17
HETATM   17  O3  UNL     1      10.163   7.435  30.778  1.00  0.00    -0.398 OA
ATOM     18  H3  UNL     1       9.547   6.885  31.247  1.00  0.00     0.209 HD
ENDBRANCH  16  17
ENDBRANCH  10  16
BRANCH  11  19
HETATM   19  C3  UNL     1       7.551  10.150  28.648  1.00  0.00     0.164 C 
HETATM   20  O2  UNL     1       6.283  10.654  28.866  1.00  0.00    -0.351 OA
HETATM   21  C2  UNL     1       6.067  11.969  28.959  1.00  0.00     0.294 C 
HETATM   22  C22 UNL     1       6.001  12.671  27.613  1.00  0.00     0.293 C 
HETATM   23  C17 UNL     1       6.156  11.545  26.574  1.00  0.00     0.305 C 
HETATM   24  O11 UNL     1       7.470  11.183  26.441  1.00  0.00    -0.349 OA
HETATM   25  C12 UNL     1       7.971  10.188  27.218  1.00  0.00     0.180 C 
BRANCH  21  26
HETATM   26  O1  UNL     1       4.760  12.127  29.495  1.00  0.00    -0.364 OA
HETATM   27  C1  UNL     1       4.779  12.624  30.776  1.00  0.00     0.204 C 
ENDBRANCH  21  26
BRANCH  22  28
HETATM   28  N10 UNL     1       7.029  13.662  27.442  1.00  0.00    -0.066 N 
ATOM     29 3H10 UNL     1       6.803  14.513  27.957  1.00  0.00     0.275 HD
ATOM     30 2H10 UNL     1       7.881  13.391  27.933  1.00  0.00     0.275 HD
ATOM     31 1H10 UNL     1       7.225  13.871  26.464  1.00  0.00     0.275 HD
ENDBRANCH  22  28
BRANCH  23  32
HETATM   32  O12 UNL     1       5.781  12.130  25.340  1.00  0.00    -0.288 OA
BRANCH  32  33
HETATM   33  C18 UNL     1       4.957  13.208  25.189  1.00  0.00     0.230 C 
HETATM   34  N4  UNL     1       3.710  13.038  25.478  1.00  0.00    -0.354 N 
ATOM     35  H4  UNL     1       3.349  12.141  25.806  1.00  0.00     0.163 HD
BRANCH  34  36
HETATM   36  C19 UNL     1       2.854  14.192  25.310  1.00  0.00     0.145 C 
BRANCH  36  37
HETATM   37  C20 UNL     1       2.104  14.535  26.577  1.00  0.00     0.175 C 
BRANCH  37  38
HETATM   38  N5  UNL     1       1.634  15.901  26.456  1.00  0.00    -0.251 N 
ATOM     39  H5  UNL     1       2.267  16.631  26.130  1.00  0.00     0.197 HD
BRANCH  38  40
HETATM   40  N6  UNL     1       0.462  16.181  26.751  1.00  0.00    -0.249 NA
BRANCH  40  41
HETATM   41  N7  UNL     1      -0.725  16.514  26.792  1.00  0.00    -0.261 N 
ATOM     42  H72 UNL     1      -0.733  16.402  27.806  1.00  0.00     0.193 HD
ATOM     43  H71 UNL     1      -1.686  16.808  26.615  1.00  0.00     0.193 HD
ENDBRANCH  40  41
ENDBRANCH  38  40
ENDBRANCH  37  38
ENDBRANCH  36  37
ENDBRANCH  34  36
BRANCH  33  44
HETATM   44  N8  UNL     1       5.502  14.435  24.730  1.00  0.00    -0.259 N 
HETATM   45  C21 UNL     1       5.758  14.596  23.360  1.00  0.00     0.185 C 
HETATM   46  N9  UNL     1       5.986  14.717  22.211  1.00  0.00    -0.172 NA
ATOM     47  H8  UNL     1       5.704  15.188  25.387  1.00  0.00     0.181 HD
ENDBRANCH  33  44
ENDBRANCH  32  33
ENDBRANCH  23  32
BRANCH  25  48
HETATM   48  C13 UNL     1       7.855   8.810  26.537  1.00  0.00     0.270 C 
BRANCH  48  49
HETATM   49  N3  UNL     1       8.867   8.608  25.552  1.00  0.00    -0.041 N 
ATOM     50  H32 UNL     1       8.722   9.219  24.749  1.00  0.00     0.280 HD
ATOM     51  H31 UNL     1       9.767   8.966  25.873  1.00  0.00     0.280 HD
BRANCH  49  52
HETATM   52  C14 UNL     1       8.979   7.220  25.134  1.00  0.00     0.216 C 
HETATM   53  C15 UNL     1       9.474   6.437  26.360  1.00  0.00     0.078 C 
HETATM   54  C16 UNL     1      10.068   7.059  24.092  1.00  0.00     0.078 C 
BRANCH  52  55
HETATM   55  O10 UNL     1       7.768   6.710  24.705  1.00  0.00    -0.365 OA
ATOM     56  H10 UNL     1       7.873   5.882  24.250  1.00  0.00     0.212 HD
ENDBRANCH  52  55
ENDBRANCH  49  52
ENDBRANCH  48  49
ENDBRANCH  25  48
ENDBRANCH  11  19
BRANCH  12  57
HETATM   57  C11 UNL     1       9.723  12.810  29.740  1.00  0.00     0.205 C 
HETATM   58  O8  UNL     1      10.666  13.569  29.390  1.00  0.00    -0.646 OA
HETATM   59  O9  UNL     1       8.726  13.331  30.589  1.00  0.00    -0.646 OA
ENDBRANCH  12  57
ENDBRANCH   5   8
ENDBRANCH   1   5
TORSDOF 20
ENDMDL
MODEL 2
REMARK VINA RESULT: -8.203344423      3.696      6.450
REMARK  20 active torsions:
REMARK  status: ('A' for Active; 'I' for Inactive)
REMARK    1  A    between atoms: O1_2  and  C2_3 
REMARK    2  A    between atoms: C3_5  and  C4_6 
REMARK    3  A    between atoms: C5_7  and  C6_8 
REMARK    4  A    between atoms: C6_8  and  O3_9 
REMARK    5  A    between atoms: C7_12  and  S1_13 
REMARK    6  A    between atoms: S1_13  and  C8_16 
REMARK    7  A    between atoms: C10_23  and  C11_24 
REMARK    8  A    between atoms: C12_27  and  C13_28 
REMARK    9  A    between atoms: C13_28  and  N3_29 
REMARK   10  A    between atoms: N3_29  and  C14_32 
REMARK   11  A    between atoms: C14_32  and  O10_35 
REMARK   12  A    between atoms: C17_38  and  O12_39 
REMARK   13  A    between atoms: O12_39  and  C18_40 
REMARK   14  A    between atoms: C18_40  and  N8_51 
REMARK   15  A    between atoms: N4_41  and  C19_43 
REMARK   16  A    between atoms: C19_43  and  C20_44 
REMARK   17  A    between atoms: C20_44  and  N5_45 
REMARK   18  A    between atoms: N5_45  and  N6_47 
REMARK   19  A    between atoms: N6_47  and  N7_48 
REMARK   20  A    between atoms: C22_55  and  N10_56 
ROOT
HETATM    1  C8  UNL     1      10.555  14.407  33.875  1.00  0.00     0.348 C 
HETATM    2  O7  UNL     1      11.582  14.991  34.292  1.00  0.00    -0.263 OA
HETATM    3  C9  UNL     1       9.358  15.172  33.719  1.00  0.00     0.155 C 
HETATM    4  N1  UNL     1       8.402  15.809  33.588  1.00  0.00    -0.187 NA
ENDROOT
BRANCH   1   5
HETATM    5  S1  UNL     1      10.627  12.705  33.507  1.00  0.00     0.276 S 
HETATM    6  O5  UNL     1      12.052  12.210  33.458  1.00  0.00    -0.214 OA
HETATM    7  O6  UNL     1       9.976  11.981  34.658  1.00  0.00    -0.214 OA
BRANCH   5   8
HETATM    8  C7  UNL     1       9.784  12.315  31.968  1.00  0.00     0.455 C 
HETATM    9  O4  UNL     1       8.435  12.245  32.101  1.00  0.00    -0.340 OA
HETATM   10  C5  UNL     1       7.794  11.240  31.427  1.00  0.00     0.158 C 
HETATM   11  C4  UNL     1       8.363  10.963  30.051  1.00  0.00     0.090 C 
HETATM   12  C10 UNL     1       9.834  10.931  30.030  1.00  0.00     0.299 C 
HETATM   13  N2  UNL     1      10.345  11.121  31.395  1.00  0.00    -0.020 N 
ATOM     14  H22 UNL     1      11.364  11.125  31.425  1.00  0.00     0.282 HD
ATOM     15  H21 UNL     1      10.182  10.303  31.982  1.00  0.00     0.282 HD
BRANCH  10  16
HETATM   16  C6  UNL     1       7.607  10.093  32.331  1.00  0.00     0.196 C 
BRANCH  16  17
HETATM   17  O3  UNL     1       7.420  10.658  33.631  1.00  0.00    -0.398 OA
ATOM     18  H3  UNL     1       7.118   9.942  34.178  1.00  0.00     0.209 HD
ENDBRANCH  16  17
ENDBRANCH  10  16
BRANCH  11  19
HETATM   19  C3  UNL     1       7.608   9.840  29.397  1.00  0.00     0.164 C 
HETATM   20  O2  UNL     1       6.549  10.269  28.619  1.00  0.00    -0.351 OA
HETATM   21  C2  UNL     1       6.732  11.129  27.613  1.00  0.00     0.294 C 
HETATM   22  C22 UNL     1       7.264  10.479  26.347  1.00  0.00     0.293 C 
HETATM   23  C17 UNL     1       7.347   8.977  26.680  1.00  0.00     0.305 C 
HETATM   24  O11 UNL     1       8.468   8.704  27.419  1.00  0.00    -0.349 OA
HETATM   25  C12 UNL     1       8.400   8.741  28.775  1.00  0.00     0.180 C 
BRANCH  21  26
HETATM   26  O1  UNL     1       5.443  11.599  27.243  1.00  0.00    -0.364 OA
HETATM   27  C1  UNL     1       5.283  12.939  27.505  1.00  0.00     0.204 C 
ENDBRANCH  21  26
BRANCH  22  28
HETATM   28  N10 UNL     1       8.553  10.982  25.952  1.00  0.00    -0.066 N 
ATOM     29 3H10 UNL     1       8.782  11.835  26.462  1.00  0.00     0.275 HD
ATOM     30 2H10 UNL     1       9.299  10.377  26.294  1.00  0.00     0.275 HD
ATOM     31 1H10 UNL     1       8.635  11.127  24.946  1.00  0.00     0.275 HD
ENDBRANCH  22  28
BRANCH  23  32
HETATM   32  O12 UNL     1       7.531   8.334  25.432  1.00  0.00    -0.288 OA
BRANCH  32  33
HETATM   33  C18 UNL     1       7.652   6.988  25.240  1.00  0.00     0.230 C 
HETATM   34  N4  UNL     1       6.583   6.346  24.906  1.00  0.00    -0.354 N 
ATOM     35  H4  UNL     1       5.685   6.816  24.789  1.00  0.00     0.163 HD
BRANCH  34  36
HETATM   36  C19 UNL     1       6.732   4.920  24.709  1.00  0.00     0.145 C 
BRANCH  36  37
HETATM   37  C20 UNL     1       5.479   4.288  24.147  1.00  0.00     0.175 C 
BRANCH  37  38
HETATM   38  N5  UNL     1       5.434   2.914  24.607  1.00  0.00    -0.251 N 
ATOM     39  H5  UNL     1       5.729   2.683  25.556  1.00  0.00     0.197 HD
BRANCH  38  40
HETATM   40  N6  UNL     1       5.037   2.018  23.845  1.00  0.00    -0.249 NA
BRANCH  40  41
HETATM   41  N7  UNL     1       4.769   0.972  23.249  1.00  0.00    -0.261 N 
ATOM     42  H72 UNL     1       3.830   0.971  23.648  1.00  0.00     0.193 HD
ATOM     43  H71 UNL     1       4.748   0.124  22.683  1.00  0.00     0.193 HD
ENDBRANCH  40  41
ENDBRANCH  38  40
ENDBRANCH  37  38
ENDBRANCH  36  37
ENDBRANCH  34  36
BRANCH  33  44
HETATM   44  N8  UNL     1       8.920   6.377  25.414  1.00  0.00    -0.259 N 
HETATM   45  C21 UNL     1      10.017   6.867  24.691  1.00  0.00     0.185 C 
HETATM   46  N9  UNL     1      10.930   7.273  24.065  1.00  0.00    -0.172 NA
ATOM     47  H8  UNL     1       9.031   5.592  26.057  1.00  0.00     0.181 HD
ENDBRANCH  33  44
ENDBRANCH  32  33
ENDBRANCH  23  32
BRANCH  25  48
HETATM   48  C13 UNL     1       8.059   7.363  29.374  1.00  0.00     0.270 C 
BRANCH  48  49
HETATM   49  N3  UNL     1       9.051   6.915  30.296  1.00  0.00    -0.041 N 
ATOM     50  H32 UNL     1       9.293   7.652  30.959  1.00  0.00     0.280 HD
ATOM     51  H31 UNL     1       8.664   6.229  30.944  1.00  0.00     0.280 HD
BRANCH  49  52
HETATM   52  C14 UNL     1      10.240   6.396  29.641  1.00  0.00     0.216 C 
HETATM   53  C15 UNL     1      10.355   4.921  30.055  1.00  0.00     0.078 C 
HETATM   54  C16 UNL     1      11.488   7.062  30.185  1.00  0.00     0.078 C 
BRANCH  52  55
HETATM   55  O10 UNL     1      10.156   6.494  28.264  1.00  0.00    -0.365 OA
ATOM     56  H10 UNL     1       9.475   5.933  27.910  1.00  0.00     0.212 HD
ENDBRANCH  52  55
ENDBRANCH  49  52
ENDBRANCH  48  49
ENDBRANCH  25  48
ENDBRANCH  11  19
BRANCH  12  57
HETATM   57  C11 UNL     1      10.522  11.952  29.211  1.00  0.00     0.205 C 
HETATM   58  O8  UNL     1      10.005  12.336  28.129  1.00  0.00    -0.646 OA
HETATM   59  O9  UNL     1      11.753  12.515  29.601  1.00  0.00    -0.646 OA
ENDBRANCH  12  57
ENDBRANCH   5   8
ENDBRANCH   1   5
TORSDOF 20
ENDMDL
MODEL 3
REMARK VINA RESULT: -8.188250256      4.608      9.252
REMARK  20 active torsions:
REMARK  status: ('A' for Active; 'I' for Inactive)
REMARK    1  A    between atoms: O1_2  and  C2_3 
REMARK    2  A    between atoms: C3_5  and  C4_6 
REMARK    3  A    between atoms: C5_7  and  C6_8 
REMARK    4  A    between atoms: C6_8  and  O3_9 
REMARK    5  A    between atoms: C7_12  and  S1_13 
REMARK    6  A    between atoms: S1_13  and  C8_16 
REMARK    7  A    between atoms: C10_23  and  C11_24 
REMARK    8  A    between atoms: C12_27  and  C13_28 
REMARK    9  A    between atoms: C13_28  and  N3_29 
REMARK   10  A    between atoms: N3_29  and  C14_32 
REMARK   11  A    between atoms: C14_32  and  O10_35 
REMARK   12  A    between atoms: C17_38  and  O12_39 
REMARK   13  A    between atoms: O12_39  and  C18_40 
REMARK   14  A    between atoms: C18_40  and  N8_51 
REMARK   15  A    between atoms: N4_41  and  C19_43 
REMARK   16  A    between atoms: C19_43  and  C20_44 
REMARK   17  A    between atoms: C20_44  and  N5_45 
REMARK   18  A    between atoms: N5_45  and  N6_47 
REMARK   19  A    between atoms: N6_47  and  N7_48 
REMARK   20  A    between atoms: C22_55  and  N10_56 
ROOT
HETATM    1  C8  UNL     1       6.693  -0.304  27.353  1.00  0.00     0.348 C 
HETATM    2  O7  UNL     1       7.293   0.403  28.195  1.00  0.00    -0.263 OA
HETATM    3  C9  UNL     1       5.645  -1.160  27.813  1.00  0.00     0.155 C 
HETATM    4  N1  UNL     1       4.793  -1.837  28.201  1.00  0.00    -0.187 NA
ENDROOT
BRANCH   1   5
HETATM    5  S1  UNL     1       7.155  -0.215  25.675  1.00  0.00     0.276 S 
HETATM    6  O5  UNL     1       8.125  -1.312  25.310  1.00  0.00    -0.214 OA
HETATM    7  O6  UNL     1       5.911  -0.474  24.865  1.00  0.00    -0.214 OA
BRANCH   5   8
HETATM    8  C7  UNL     1       7.849   1.389  25.255  1.00  0.00     0.455 C 
HETATM    9  O4  UNL     1       9.190   1.461  25.457  1.00  0.00    -0.340 OA
HETATM   10  C5  UNL     1       9.677   2.620  25.999  1.00  0.00     0.158 C 
HETATM   11  C4  UNL     1       8.991   3.872  25.490  1.00  0.00     0.090 C 
HETATM   12  C10 UNL     1       7.527   3.743  25.427  1.00  0.00     0.299 C 
HETATM   13  N2  UNL     1       7.130   2.426  25.945  1.00  0.00    -0.020 N 
ATOM     14  H22 UNL     1       6.121   2.286  25.902  1.00  0.00     0.282 HD
ATOM     15  H21 UNL     1       7.246   2.362  26.956  1.00  0.00     0.282 HD
BRANCH  10  16
HETATM   16  C6  UNL     1       9.803   2.457  27.457  1.00  0.00     0.196 C 
BRANCH  16  17
HETATM   17  O3  UNL     1      10.093   1.072  27.662  1.00  0.00    -0.398 OA
ATOM     18  H3  UNL     1       9.330   0.603  27.346  1.00  0.00     0.209 HD
ENDBRANCH  16  17
ENDBRANCH  10  16
BRANCH  11  19
HETATM   19  C3  UNL     1       9.581   5.087  26.150  1.00  0.00     0.164 C 
HETATM   20  O2  UNL     1       9.854   6.114  25.268  1.00  0.00    -0.351 OA
HETATM   21  C2  UNL     1       8.899   6.632  24.490  1.00  0.00     0.294 C 
HETATM   22  C22 UNL     1       8.004   7.628  25.209  1.00  0.00     0.293 C 
HETATM   23  C17 UNL     1       8.589   7.729  26.631  1.00  0.00     0.305 C 
HETATM   24  O11 UNL     1       8.197   6.662  27.395  1.00  0.00    -0.349 OA
HETATM   25  C12 UNL     1       8.971   5.546  27.431  1.00  0.00     0.180 C 
BRANCH  21  26
HETATM   26  O1  UNL     1       9.560   7.414  23.504  1.00  0.00    -0.364 OA
HETATM   27  C1  UNL     1      10.837   7.756  23.881  1.00  0.00     0.204 C 
ENDBRANCH  21  26
BRANCH  22  28
HETATM   28  N10 UNL     1       6.626   7.217  25.258  1.00  0.00    -0.066 N 
ATOM     29 3H10 UNL     1       6.005   8.004  25.071  1.00  0.00     0.275 HD
ATOM     30 2H10 UNL     1       6.395   6.627  24.458  1.00  0.00     0.275 HD
ATOM     31 1H10 UNL     1       6.376   6.757  26.132  1.00  0.00     0.275 HD
ENDBRANCH  22  28
BRANCH  23  32
HETATM   32  O12 UNL     1       7.974   8.870  27.200  1.00  0.00    -0.288 OA
BRANCH  32  33
HETATM   33  C18 UNL     1       8.435  10.151  27.111  1.00  0.00     0.230 C 
HETATM   34  N4  UNL     1       9.215  10.561  28.055  1.00  0.00    -0.354 N 
ATOM     35  H4  UNL     1       9.480   9.959  28.836  1.00  0.00     0.163 HD
BRANCH  34  36
HETATM   36  C19 UNL     1       9.692  11.922  27.941  1.00  0.00     0.145 C 
BRANCH  36  37
HETATM   37  C20 UNL     1      10.671  12.276  29.038  1.00  0.00     0.175 C 
BRANCH  37  38
HETATM   38  N5  UNL     1      10.745  11.148  29.944  1.00  0.00    -0.251 N 
ATOM     39  H5  UNL     1       9.927  10.876  30.489  1.00  0.00     0.197 HD
BRANCH  38  40
HETATM   40  N6  UNL     1      11.806  10.513  30.058  1.00  0.00    -0.249 NA
BRANCH  40  41
HETATM   41  N7  UNL     1      12.929  10.014  29.961  1.00  0.00    -0.261 N 
ATOM     42  H72 UNL     1      13.091  10.521  29.090  1.00  0.00     0.193 HD
ATOM     43  H71 UNL     1      13.807   9.504  30.063  1.00  0.00     0.193 HD
ENDBRANCH  40  41
ENDBRANCH  38  40
ENDBRANCH  37  38
ENDBRANCH  36  37
ENDBRANCH  34  36
BRANCH  33  44
HETATM   44  N8  UNL     1       8.042  10.951  26.008  1.00  0.00    -0.259 N 
HETATM   45  C21 UNL     1       6.691  11.307  25.872  1.00  0.00     0.185 C 
HETATM   46  N9  UNL     1       5.552  11.586  25.756  1.00  0.00    -0.172 NA
ATOM     47  H8  UNL     1       8.731  11.264  25.324  1.00  0.00     0.181 HD
ENDBRANCH  33  44
ENDBRANCH  32  33
ENDBRANCH  23  32
BRANCH  25  48
HETATM   48  C13 UNL     1       9.992   5.587  28.583  1.00  0.00     0.270 C 
BRANCH  48  49
HETATM   49  N3  UNL     1       9.426   6.102  29.788  1.00  0.00    -0.041 N 
ATOM     50  H32 UNL     1       8.409   6.142  29.726  1.00  0.00     0.280 HD
ATOM     51  H31 UNL     1       9.520   5.432  30.551  1.00  0.00     0.280 HD
BRANCH  49  52
HETATM   52  C14 UNL     1       9.975   7.395  30.162  1.00  0.00     0.216 C 
HETATM   53  C15 UNL     1      11.096   7.115  31.174  1.00  0.00     0.078 C 
HETATM   54  C16 UNL     1       8.950   8.216  30.919  1.00  0.00     0.078 C 
BRANCH  52  55
HETATM   55  O10 UNL     1      10.484   8.076  29.071  1.00  0.00    -0.365 OA
ATOM     56  H10 UNL     1      11.155   8.700  29.324  1.00  0.00     0.212 HD
ENDBRANCH  52  55
ENDBRANCH  49  52
ENDBRANCH  48  49
ENDBRANCH  25  48
ENDBRANCH  11  19
BRANCH  12  57
HETATM   57  C11 UNL     1       6.895   3.843  24.094  1.00  0.00     0.205 C 
HETATM   58  O8  UNL     1       5.641   3.912  24.002  1.00  0.00    -0.646 OA
HETATM   59  O9  UNL     1       7.655   3.860  22.908  1.00  0.00    -0.646 OA
ENDBRANCH  12  57
ENDBRANCH   5   8
ENDBRANCH   1   5
TORSDOF 20
ENDMDL
MODEL 4
REMARK VINA RESULT: -8.170340811      3.677      5.821
REMARK  20 active torsions:
REMARK  status: ('A' for Active; 'I' for Inactive)
REMARK    1  A    between atoms: O1_2  and  C2_3 
REMARK    2  A    between atoms: C3_5  and  C4_6 
REMARK    3  A    between atoms: C5_7  and  C6_8 
REMARK    4  A    between atoms: C6_8  and  O3_9 
REMARK    5  A    between atoms: C7_12  and  S1_13 
REMARK    6  A    between atoms: S1_13  and  C8_16 
REMARK    7  A    between atoms: C10_23  and  C11_24 
REMARK    8  A    between atoms: C12_27  and  C13_28 
REMARK    9  A    between atoms: C13_28  and  N3_29 
REMARK   10  A    between atoms: N3_29  and  C14_32 
REMARK   11  A    between atoms: C14_32  and  O10_35 
REMARK   12  A    between atoms: C17_38  and  O12_39 
REMARK   13  A    between atoms: O12_39  and  C18_40 
REMARK   14  A    between atoms: C18_40  and  N8_51 
REMARK   15  A    between atoms: N4_41  and  C19_43 
REMARK   16  A    between atoms: C19_43  and  C20_44 
REMARK   17  A    between atoms: C20_44  and  N5_45 
REMARK   18  A    between atoms: N5_45  and  N6_47 
REMARK   19  A    between atoms: N6_47  and  N7_48 
REMARK   20  A    between atoms: C22_55  and  N10_56 
ROOT
HETATM    1  C8  UNL     1      12.034  11.124  33.835  1.00  0.00     0.348 C 
HETATM    2  O7  UNL     1      11.801  10.026  34.390  1.00  0.00    -0.263 OA
HETATM    3  C9  UNL     1      13.372  11.399  33.415  1.00  0.00     0.155 C 
HETATM    4  N1  UNL     1      14.458  11.599  33.071  1.00  0.00    -0.187 NA
ENDROOT
BRANCH   1   5
HETATM    5  S1  UNL     1      10.732  12.259  33.600  1.00  0.00     0.276 S 
HETATM    6  O5  UNL     1       9.745  12.211  34.739  1.00  0.00    -0.214 OA
HETATM    7  O6  UNL     1      11.342  13.637  33.636  1.00  0.00    -0.214 OA
BRANCH   5   8
HETATM    8  C7  UNL     1       9.886  11.993  32.036  1.00  0.00     0.455 C 
HETATM    9  O4  UNL     1       8.542  11.854  32.173  1.00  0.00    -0.340 OA
HETATM   10  C5  UNL     1       7.933  10.897  31.406  1.00  0.00     0.158 C 
HETATM   11  C4  UNL     1       8.495  10.785  30.003  1.00  0.00     0.090 C 
HETATM   12  C10 UNL     1       9.966  10.817  29.967  1.00  0.00     0.299 C 
HETATM   13  N2  UNL     1      10.486  10.888  31.339  1.00  0.00    -0.020 N 
ATOM     14  H22 UNL     1      11.505  10.931  31.360  1.00  0.00     0.282 HD
ATOM     15  H21 UNL     1      10.365  10.008  31.841  1.00  0.00     0.282 HD
BRANCH  10  16
HETATM   16  C6  UNL     1       7.804   9.657  32.190  1.00  0.00     0.196 C 
BRANCH  16  17
HETATM   17  O3  UNL     1       8.129  10.020  33.534  1.00  0.00    -0.398 OA
ATOM     18  H3  UNL     1       7.427  10.594  33.819  1.00  0.00     0.209 HD
ENDBRANCH  16  17
ENDBRANCH  10  16
BRANCH  11  19
HETATM   19  C3  UNL     1       7.778   9.704  29.245  1.00  0.00     0.164 C 
HETATM   20  O2  UNL     1       6.728  10.173  28.479  1.00  0.00    -0.351 OA
HETATM   21  C2  UNL     1       6.915  11.114  27.549  1.00  0.00     0.294 C 
HETATM   22  C22 UNL     1       7.488  10.577  26.248  1.00  0.00     0.293 C 
HETATM   23  C17 UNL     1       7.594   9.055  26.463  1.00  0.00     0.305 C 
HETATM   24  O11 UNL     1       8.704   8.745  27.204  1.00  0.00    -0.349 OA
HETATM   25  C12 UNL     1       8.605   8.673  28.557  1.00  0.00     0.180 C 
BRANCH  21  26
HETATM   26  O1  UNL     1       5.625  11.588  27.188  1.00  0.00    -0.364 OA
HETATM   27  C1  UNL     1       5.100  12.439  28.132  1.00  0.00     0.204 C 
ENDBRANCH  21  26
BRANCH  22  28
HETATM   28  N10 UNL     1       8.774  11.134  25.925  1.00  0.00    -0.066 N 
ATOM     29 3H10 UNL     1       8.693  12.121  25.683  1.00  0.00     0.275 HD
ATOM     30 2H10 UNL     1       9.356  11.213  26.759  1.00  0.00     0.275 HD
ATOM     31 1H10 UNL     1       9.260  10.619  25.191  1.00  0.00     0.275 HD
ENDBRANCH  22  28
BRANCH  23  32
HETATM   32  O12 UNL     1       7.818   8.518  25.173  1.00  0.00    -0.288 OA
BRANCH  32  33
HETATM   33  C18 UNL     1       8.134   7.219  24.896  1.00  0.00     0.230 C 
HETATM   34  N4  UNL     1       7.157   6.377  24.841  1.00  0.00    -0.354 N 
ATOM     35  H4  UNL     1       6.190   6.661  24.996  1.00  0.00     0.163 HD
BRANCH  34  36
HETATM   36  C19 UNL     1       7.514   5.006  24.547  1.00  0.00     0.145 C 
BRANCH  36  37
HETATM   37  C20 UNL     1       7.025   4.569  23.184  1.00  0.00     0.175 C 
BRANCH  37  38
HETATM   38  N5  UNL     1       5.680   4.051  23.344  1.00  0.00    -0.251 N 
ATOM     39  H5  UNL     1       5.432   3.144  22.950  1.00  0.00     0.197 HD
BRANCH  38  40
HETATM   40  N6  UNL     1       4.831   4.713  23.962  1.00  0.00    -0.249 NA
BRANCH  40  41
HETATM   41  N7  UNL     1       3.943   5.149  24.699  1.00  0.00    -0.261 N 
ATOM     42  H72 UNL     1       4.511   4.946  25.522  1.00  0.00     0.193 HD
ATOM     43  H71 UNL     1       3.105   5.545  25.125  1.00  0.00     0.193 HD
ENDBRANCH  40  41
ENDBRANCH  38  40
ENDBRANCH  37  38
ENDBRANCH  36  37
ENDBRANCH  34  36
BRANCH  33  44
HETATM   44  N8  UNL     1       9.493   6.868  24.687  1.00  0.00    -0.259 N 
HETATM   45  C21 UNL     1      10.092   5.928  25.539  1.00  0.00     0.185 C 
HETATM   46  N9  UNL     1      10.592   5.151  26.270  1.00  0.00    -0.172 NA
ATOM     47  H8  UNL     1      10.026   7.294  23.928  1.00  0.00     0.181 HD
ENDBRANCH  33  44
ENDBRANCH  32  33
ENDBRANCH  23  32
BRANCH  25  48
HETATM   48  C13 UNL     1       8.280   7.245  29.036  1.00  0.00     0.270 C 
BRANCH  48  49
HETATM   49  N3  UNL     1       9.362   6.342  28.816  1.00  0.00    -0.041 N 
ATOM     50  H32 UNL     1       9.061   5.541  28.260  1.00  0.00     0.280 HD
ATOM     51  H31 UNL     1      10.047   6.742  28.176  1.00  0.00     0.280 HD
BRANCH  49  52
HETATM   52  C14 UNL     1       9.996   5.907  30.050  1.00  0.00     0.216 C 
HETATM   53  C15 UNL     1      11.337   6.652  30.134  1.00  0.00     0.078 C 
HETATM   54  C16 UNL     1      10.359   4.438  29.979  1.00  0.00     0.078 C 
BRANCH  52  55
HETATM   55  O10 UNL     1       9.223   6.200  31.159  1.00  0.00    -0.365 OA
ATOM     56  H10 UNL     1       8.433   6.673  30.926  1.00  0.00     0.212 HD
ENDBRANCH  52  55
ENDBRANCH  49  52
ENDBRANCH  48  49
ENDBRANCH  25  48
ENDBRANCH  11  19
BRANCH  12  57
HETATM   57  C11 UNL     1      10.602  11.943  29.251  1.00  0.00     0.205 C 
HETATM   58  O8  UNL     1      11.689  12.417  29.674  1.00  0.00    -0.646 OA
HETATM   59  O9  UNL     1      10.026  12.514  28.099  1.00  0.00    -0.646 OA
ENDBRANCH  12  57
ENDBRANCH   5   8
ENDBRANCH   1   5
TORSDOF 20
ENDMDL
MODEL 5
REMARK VINA RESULT: -8.008678103      4.556      8.683
REMARK  20 active torsions:
REMARK  status: ('A' for Active; 'I' for Inactive)
REMARK    1  A    between atoms: O1_2  and  C2_3 
REMARK    2  A    between atoms: C3_5  and  C4_6 
REMARK    3  A    between atoms: C5_7  and  C6_8 
REMARK    4  A    between atoms: C6_8  and  O3_9 
REMARK    5  A    between atoms: C7_12  and  S1_13 
REMARK    6  A    between atoms: S1_13  and  C8_16 
REMARK    7  A    between atoms: C10_23  and  C11_24 
REMARK    8  A    between atoms: C12_27  and  C13_28 
REMARK    9  A    between atoms: C13_28  and  N3_29 
REMARK   10  A    between atoms: N3_29  and  C14_32 
REMARK   11  A    between atoms: C14_32  and  O10_35 
REMARK   12  A    between atoms: C17_38  and  O12_39 
REMARK   13  A    between atoms: O12_39  and  C18_40 
REMARK   14  A    between atoms: C18_40  and  N8_51 
REMARK   15  A    between atoms: N4_41  and  C19_43 
REMARK   16  A    between atoms: C19_43  and  C20_44 
REMARK   17  A    between atoms: C20_44  and  N5_45 
REMARK   18  A    between atoms: N5_45  and  N6_47 
REMARK   19  A    between atoms: N6_47  and  N7_48 
REMARK   20  A    between atoms: C22_55  and  N10_56 
ROOT
HETATM    1  C8  UNL     1       7.082  -0.402  27.802  1.00  0.00     0.348 C 
HETATM    2  O7  UNL     1       8.060  -0.772  28.493  1.00  0.00    -0.263 OA
HETATM    3  C9  UNL     1       5.864  -0.077  28.476  1.00  0.00     0.155 C 
HETATM    4  N1  UNL     1       4.891   0.193  29.038  1.00  0.00    -0.187 NA
ENDROOT
BRANCH   1   5
HETATM    5  S1  UNL     1       7.246  -0.299  26.070  1.00  0.00     0.276 S 
HETATM    6  O5  UNL     1       8.080  -1.431  25.526  1.00  0.00    -0.214 OA
HETATM    7  O6  UNL     1       5.867  -0.483  25.489  1.00  0.00    -0.214 OA
BRANCH   5   8
HETATM    8  C7  UNL     1       7.934   1.280  25.555  1.00  0.00     0.455 C 
HETATM    9  O4  UNL     1       9.271   1.377  25.771  1.00  0.00    -0.340 OA
HETATM   10  C5  UNL     1       9.741   2.573  26.242  1.00  0.00     0.158 C 
HETATM   11  C4  UNL     1       9.054   3.783  25.642  1.00  0.00     0.090 C 
HETATM   12  C10 UNL     1       7.591   3.637  25.565  1.00  0.00     0.299 C 
HETATM   13  N2  UNL     1       7.197   2.354  26.164  1.00  0.00    -0.020 N 
ATOM     14  H22 UNL     1       6.190   2.203  26.116  1.00  0.00     0.282 HD
ATOM     15  H21 UNL     1       7.298   2.358  27.179  1.00  0.00     0.282 HD
BRANCH  10  16
HETATM   16  C6  UNL     1       9.847   2.508  27.709  1.00  0.00     0.196 C 
BRANCH  16  17
HETATM   17  O3  UNL     1      10.073   1.129  28.015  1.00  0.00    -0.398 OA
ATOM     18  H3  UNL     1      10.120   1.084  28.962  1.00  0.00     0.209 HD
ENDBRANCH  16  17
ENDBRANCH  10  16
BRANCH  11  19
HETATM   19  C3  UNL     1       9.624   5.043  26.228  1.00  0.00     0.164 C 
HETATM   20  O2  UNL     1       9.878   6.022  25.286  1.00  0.00    -0.351 OA
HETATM   21  C2  UNL     1       8.913   6.478  24.482  1.00  0.00     0.294 C 
HETATM   22  C22 UNL     1       8.003   7.499  25.145  1.00  0.00     0.293 C 
HETATM   23  C17 UNL     1       8.589   7.692  26.556  1.00  0.00     0.305 C 
HETATM   24  O11 UNL     1       8.216   6.665  27.383  1.00  0.00    -0.349 OA
HETATM   25  C12 UNL     1       9.008   5.566  27.481  1.00  0.00     0.180 C 
BRANCH  21  26
HETATM   26  O1  UNL     1       9.559   7.211  23.450  1.00  0.00    -0.364 OA
HETATM   27  C1  UNL     1      10.759   7.742  23.862  1.00  0.00     0.204 C 
ENDBRANCH  21  26
BRANCH  22  28
HETATM   28  N10 UNL     1       6.632   7.068  25.221  1.00  0.00    -0.066 N 
ATOM     29 3H10 UNL     1       6.049   7.593  24.568  1.00  0.00     0.275 HD
ATOM     30 2H10 UNL     1       6.522   6.133  24.828  1.00  0.00     0.275 HD
ATOM     31 1H10 UNL     1       6.250   7.112  26.165  1.00  0.00     0.275 HD
ENDBRANCH  22  28
BRANCH  23  32
HETATM   32  O12 UNL     1       7.955   8.854  27.060  1.00  0.00    -0.288 OA
BRANCH  32  33
HETATM   33  C18 UNL     1       8.441  10.127  26.973  1.00  0.00     0.230 C 
HETATM   34  N4  UNL     1       9.159  10.548  27.960  1.00  0.00    -0.354 N 
ATOM     35  H4  UNL     1       9.360   9.963  28.771  1.00  0.00     0.163 HD
BRANCH  34  36
HETATM   36  C19 UNL     1       9.663  11.900  27.848  1.00  0.00     0.145 C 
BRANCH  36  37
HETATM   37  C20 UNL     1       9.182  12.783  28.977  1.00  0.00     0.175 C 
BRANCH  37  38
HETATM   38  N5  UNL     1       8.007  13.493  28.511  1.00  0.00    -0.251 N 
ATOM     39  H5  UNL     1       8.108  14.383  28.024  1.00  0.00     0.197 HD
BRANCH  38  40
HETATM   40  N6  UNL     1       6.878  13.016  28.706  1.00  0.00    -0.249 NA
BRANCH  40  41
HETATM   41  N7  UNL     1       5.847  12.341  28.766  1.00  0.00    -0.261 N 
ATOM     42  H72 UNL     1       5.457  12.846  27.970  1.00  0.00     0.193 HD
ATOM     43  H71 UNL     1       5.092  11.689  28.981  1.00  0.00     0.193 HD
ENDBRANCH  40  41
ENDBRANCH  38  40
ENDBRANCH  37  38
ENDBRANCH  36  37
ENDBRANCH  34  36
BRANCH  33  44
HETATM   44  N8  UNL     1       8.137  10.905  25.827  1.00  0.00    -0.259 N 
HETATM   45  C21 UNL     1       6.825  11.366  25.645  1.00  0.00     0.185 C 
HETATM   46  N9  UNL     1       5.716  11.733  25.491  1.00  0.00    -0.172 NA
ATOM     47  H8  UNL     1       8.863  11.126  25.145  1.00  0.00     0.181 HD
ENDBRANCH  33  44
ENDBRANCH  32  33
ENDBRANCH  23  32
BRANCH  25  48
HETATM   48  C13 UNL     1      10.030   5.692  28.627  1.00  0.00     0.270 C 
BRANCH  48  49
HETATM   49  N3  UNL     1       9.401   5.822  29.900  1.00  0.00    -0.041 N 
ATOM     50  H32 UNL     1       8.398   5.654  29.831  1.00  0.00     0.280 HD
ATOM     51  H31 UNL     1       9.657   5.049  30.515  1.00  0.00     0.280 HD
BRANCH  49  52
HETATM   52  C14 UNL     1       9.670   7.101  30.536  1.00  0.00     0.216 C 
HETATM   53  C15 UNL     1       8.374   7.919  30.430  1.00  0.00     0.078 C 
HETATM   54  C16 UNL     1      10.701   7.886  29.749  1.00  0.00     0.078 C 
BRANCH  52  55
HETATM   55  O10 UNL     1      10.029   6.954  31.863  1.00  0.00    -0.365 OA
ATOM     56  H10 UNL     1       9.272   6.963  32.438  1.00  0.00     0.212 HD
ENDBRANCH  52  55
ENDBRANCH  49  52
ENDBRANCH  48  49
ENDBRANCH  25  48
ENDBRANCH  11  19
BRANCH  12  57
HETATM   57  C11 UNL     1       6.979   3.643  24.220  1.00  0.00     0.205 C 
HETATM   58  O8  UNL     1       5.799   4.058  24.073  1.00  0.00    -0.646 OA
HETATM   59  O9  UNL     1       7.675   3.192  23.082  1.00  0.00    -0.646 OA
ENDBRANCH  12  57
ENDBRANCH   5   8
ENDBRANCH   1   5
TORSDOF 20
ENDMDL
