MODEL 1
REMARK VINA RESULT: -11.285939687      0.000      0.000
REMARK  14 active torsions:
REMARK  status: ('A' for Active; 'I' for Inactive)
REMARK    1  A    between atoms: C4_4  and  N1_5 
REMARK    2  A    between atoms: N2_9  and  C6_10 
REMARK    3  A    between atoms: C6_10  and  C7_11 
REMARK       I    between atoms: C7_11  and  N3_13 
REMARK    4  A    between atoms: N3_13  and  C8_15 
REMARK    5  A    between atoms: C8_15  and  C9_16 
REMARK    6  A    between atoms: C9_16  and  C10_17 
REMARK    7  A    between atoms: N4_19  and  C12_20 
REMARK    8  A    between atoms: C15_28  and  N7_29 
REMARK    9  A    between atoms: C17_37  and  O5_38 
REMARK   10  A    between atoms: O5_38  and  N10_39 
REMARK   11  A    between atoms: N10_39  and  C18_41 
REMARK   12  A    between atoms: C19_44  and  C21_46 
REMARK   13  A    between atoms: C21_46  and  O6_47 
REMARK       I    between atoms: N12_51  and  C23_52 
REMARK   14  A    between atoms: C25_56  and  O10_57 
ROOT
HETATM    1  C12 UNL     1       9.504   8.230  29.173  1.00  0.00     0.167 A 
HETATM    2  N5  UNL     1      10.819   8.440  29.342  1.00  0.00    -0.331 N 
ATOM      3  H5  UNL     1      11.457   8.239  28.573  1.00  0.00     0.168 HD
HETATM    4  C13 UNL     1      11.315   8.908  30.499  1.00  0.00     0.148 A 
HETATM    5  C14 UNL     1      12.671   9.126  30.683  1.00  0.00     0.290 A 
HETATM    6  O4  UNL     1      13.450   8.878  29.737  1.00  0.00    -0.265 OA
HETATM    7  N6  UNL     1      13.164   9.595  31.849  1.00  0.00    -0.154 N 
ATOM      8  H6  UNL     1      14.168   9.744  31.952  1.00  0.00     0.187 HD
HETATM    9  C15 UNL     1      12.341   9.866  32.875  1.00  0.00     0.680 A 
HETATM   10  N8  UNL     1      11.027   9.652  32.690  1.00  0.00    -0.174 N 
ATOM     11  H8  UNL     1      10.399   9.857  33.468  1.00  0.00     0.186 HD
HETATM   12  C16 UNL     1      10.480   9.186  31.551  1.00  0.00     0.155 A 
HETATM   13  N9  UNL     1       9.164   8.985  31.405  1.00  0.00    -0.316 N 
ATOM     14  H9  UNL     1       8.530   9.188  32.178  1.00  0.00     0.169 HD
HETATM   15  C17 UNL     1       8.667   8.508  30.225  1.00  0.00     0.217 A 
ENDROOT
BRANCH   1  16
HETATM   16  N4  UNL     1       8.930   7.734  27.963  1.00  0.00    -0.312 N 
HETATM   17  C11 UNL     1       9.369   6.655  27.251  1.00  0.00     0.108 A 
HETATM   18  C10 UNL     1       8.605   6.441  26.141  1.00  0.00    -0.006 A 
HETATM   19  C25 UNL     1       7.646   7.412  26.141  1.00  0.00     0.089 A 
HETATM   20  C24 UNL     1       7.871   8.191  27.272  1.00  0.00     0.135 A 
BRANCH  18  21
HETATM   21  C9  UNL     1       8.709   5.383  25.077  1.00  0.00     0.062 C 
BRANCH  21  22
HETATM   22  C8  UNL     1       7.672   4.330  25.248  1.00  0.00     0.127 C 
BRANCH  22  23
HETATM   23  N3  UNL     1       8.281   3.049  25.505  1.00  0.00    -0.359 N 
HETATM   24  C7  UNL     1       7.566   1.864  25.250  1.00  0.00     0.235 C 
HETATM   25  O3  UNL     1       6.395   1.839  24.791  1.00  0.00    -0.272 OA
ATOM     26  H3  UNL     1       9.230   3.002  25.873  1.00  0.00     0.162 HD
BRANCH  24  27
HETATM   27  C6  UNL     1       8.184   0.537  25.520  1.00  0.00     0.234 C 
BRANCH  27  28
HETATM   28  N2  UNL     1       8.191   0.320  26.944  1.00  0.00    -0.313 N 
HETATM   29  C5  UNL     1       7.001   0.047  27.538  1.00  0.00     0.130 A 
HETATM   30  C4  UNL     1       6.885  -0.181  28.887  1.00  0.00     0.119 A 
HETATM   31  C3  UNL     1       8.043  -0.126  29.655  1.00  0.00     0.049 A 
HETATM   32  C2  UNL     1       9.241   0.151  29.033  1.00  0.00     0.009 A 
HETATM   33  C1  UNL     1      10.503   0.220  29.812  1.00  0.00     0.054 C 
HETATM   34  C26 UNL     1       9.334   0.378  27.675  1.00  0.00     0.253 A 
HETATM   35  O11 UNL     1      10.418   0.632  27.094  1.00  0.00    -0.267 OA
BRANCH  30  36
HETATM   36  N1  UNL     1       5.631  -0.466  29.507  1.00  0.00    -0.114 N 
HETATM   37  O1  UNL     1       4.666   0.292  29.303  1.00  0.00    -0.532 OA
HETATM   38  O2  UNL     1       5.511  -1.559  30.309  1.00  0.00    -0.532 OA
ENDBRANCH  30  36
ENDBRANCH  27  28
ENDBRANCH  24  27
ENDBRANCH  22  23
ENDBRANCH  21  22
ENDBRANCH  18  21
BRANCH  19  39
HETATM   39  O10 UNL     1       6.630   7.615  25.215  1.00  0.00    -0.359 OA
ATOM     40  H10 UNL     1       6.047   8.361  25.137  1.00  0.00     0.217 HD
ENDBRANCH  19  39
ENDBRANCH   1  16
BRANCH  15  41
HETATM   41  O5  UNL     1       7.291   8.308  30.102  1.00  0.00    -0.201 OA
BRANCH  41  42
HETATM   42  N10 UNL     1       6.441   9.289  30.470  1.00  0.00    -0.088 N 
ATOM     43  H10 UNL     1       5.837   9.169  31.283  1.00  0.00     0.213 HD
BRANCH  42  44
HETATM   44  C18 UNL     1       6.397  10.515  29.698  1.00  0.00     0.714 A 
HETATM   45  N11 UNL     1       5.973  10.634  28.497  1.00  0.00    -0.204 N 
HETATM   46  C19 UNL     1       6.043  11.969  27.978  1.00  0.00     0.147 A 
ATOM     47  H11 UNL     1       5.615   9.848  27.956  1.00  0.00     0.179 HD
HETATM   48  C20 UNL     1       4.664  12.470  27.608  1.00  0.00     0.052 C 
HETATM   49  C22 UNL     1       6.616  12.740  29.107  1.00  0.00     0.279 A 
HETATM   50  O7  UNL     1       6.879  13.983  29.154  1.00  0.00    -0.269 OA
HETATM   51  N12 UNL     1       6.815  11.794  30.144  1.00  0.00    -0.051 N 
HETATM   52  C23 UNL     1       7.347  12.046  31.437  1.00  0.00     0.312 C 
HETATM   53  O8  UNL     1       7.694  13.219  31.747  1.00  0.00    -0.629 OA
HETATM   54  O9  UNL     1       7.502  11.051  32.377  1.00  0.00    -0.629 OA
BRANCH  46  55
HETATM   55  C21 UNL     1       7.001  12.081  26.809  1.00  0.00     0.205 C 
BRANCH  55  56
HETATM   56  O6  UNL     1       8.235  12.493  27.344  1.00  0.00    -0.398 OA
ATOM     57  H6  UNL     1       8.683  12.965  26.653  1.00  0.00     0.209 HD
ENDBRANCH  55  56
ENDBRANCH  46  55
ENDBRANCH  42  44
ENDBRANCH  41  42
ENDBRANCH  15  41
BRANCH   9  58
HETATM   58  N7  UNL     1      12.823  10.319  34.002  1.00  0.00    -0.234 N 
ATOM     59  H72 UNL     1      12.844  11.314  34.225  1.00  0.00     0.174 HD
ATOM     60  H71 UNL     1      13.194   9.672  34.698  1.00  0.00     0.174 HD
ENDBRANCH   9  58
TORSDOF 14
ENDMDL
MODEL 2
REMARK VINA RESULT: -11.263649700      2.036      2.848
REMARK  14 active torsions:
REMARK  status: ('A' for Active; 'I' for Inactive)
REMARK    1  A    between atoms: C4_4  and  N1_5 
REMARK    2  A    between atoms: N2_9  and  C6_10 
REMARK    3  A    between atoms: C6_10  and  C7_11 
REMARK       I    between atoms: C7_11  and  N3_13 
REMARK    4  A    between atoms: N3_13  and  C8_15 
REMARK    5  A    between atoms: C8_15  and  C9_16 
REMARK    6  A    between atoms: C9_16  and  C10_17 
REMARK    7  A    between atoms: N4_19  and  C12_20 
REMARK    8  A    between atoms: C15_28  and  N7_29 
REMARK    9  A    between atoms: C17_37  and  O5_38 
REMARK   10  A    between atoms: O5_38  and  N10_39 
REMARK   11  A    between atoms: N10_39  and  C18_41 
REMARK   12  A    between atoms: C19_44  and  C21_46 
REMARK   13  A    between atoms: C21_46  and  O6_47 
REMARK       I    between atoms: N12_51  and  C23_52 
REMARK   14  A    between atoms: C25_56  and  O10_57 
ROOT
HETATM    1  C12 UNL     1       9.012   6.815  26.831  1.00  0.00     0.167 A 
HETATM    2  N5  UNL     1       9.615   6.227  27.875  1.00  0.00    -0.331 N 
ATOM      3  H5  UNL     1       9.781   5.221  27.851  1.00  0.00     0.168 HD
HETATM    4  C13 UNL     1      10.006   6.929  28.952  1.00  0.00     0.148 A 
HETATM    5  C14 UNL     1      10.628   6.329  30.035  1.00  0.00     0.290 A 
HETATM    6  O4  UNL     1      10.830   5.096  30.001  1.00  0.00    -0.265 OA
HETATM    7  N6  UNL     1      11.017   7.040  31.115  1.00  0.00    -0.154 N 
ATOM      8  H6  UNL     1      11.472   6.568  31.896  1.00  0.00     0.187 HD
HETATM    9  C15 UNL     1      10.807   8.366  31.167  1.00  0.00     0.680 A 
HETATM   10  N8  UNL     1      10.203   8.941  30.114  1.00  0.00    -0.174 N 
ATOM     11  H8  UNL     1      10.043   9.948  30.150  1.00  0.00     0.186 HD
HETATM   12  C16 UNL     1       9.795   8.282  29.012  1.00  0.00     0.155 A 
HETATM   13  N9  UNL     1       9.194   8.891  27.981  1.00  0.00    -0.316 N 
ATOM     14  H9  UNL     1       9.031   9.898  28.011  1.00  0.00     0.169 HD
HETATM   15  C17 UNL     1       8.800   8.170  26.890  1.00  0.00     0.217 A 
ENDROOT
BRANCH   1  16
HETATM   16  N4  UNL     1       8.579   6.112  25.666  1.00  0.00    -0.312 N 
HETATM   17  C11 UNL     1       7.379   5.479  25.512  1.00  0.00     0.108 A 
HETATM   18  C10 UNL     1       7.271   4.900  24.281  1.00  0.00    -0.006 A 
HETATM   19  C25 UNL     1       8.437   5.170  23.626  1.00  0.00     0.089 A 
HETATM   20  C24 UNL     1       9.221   5.915  24.501  1.00  0.00     0.135 A 
BRANCH  18  21
HETATM   21  C9  UNL     1       6.144   4.111  23.672  1.00  0.00     0.062 C 
BRANCH  21  22
HETATM   22  C8  UNL     1       5.691   3.018  24.573  1.00  0.00     0.127 C 
BRANCH  22  23
HETATM   23  N3  UNL     1       6.813   2.249  25.050  1.00  0.00    -0.359 N 
HETATM   24  C7  UNL     1       6.916   0.881  24.737  1.00  0.00     0.235 C 
HETATM   25  O3  UNL     1       6.073   0.258  24.040  1.00  0.00    -0.272 OA
ATOM     26  H3  UNL     1       7.533   2.697  25.616  1.00  0.00     0.162 HD
BRANCH  24  27
HETATM   27  C6  UNL     1       8.067   0.078  25.231  1.00  0.00     0.234 C 
BRANCH  27  28
HETATM   28  N2  UNL     1       7.961  -0.035  26.664  1.00  0.00    -0.313 N 
HETATM   29  C5  UNL     1       6.860  -0.656  27.159  1.00  0.00     0.130 A 
HETATM   30  C4  UNL     1       6.651  -0.826  28.506  1.00  0.00     0.119 A 
HETATM   31  C3  UNL     1       7.618  -0.336  29.377  1.00  0.00     0.049 A 
HETATM   32  C2  UNL     1       8.728   0.291  28.855  1.00  0.00     0.009 A 
HETATM   33  C1  UNL     1       9.786   0.830  29.746  1.00  0.00     0.054 C 
HETATM   34  C26 UNL     1       8.917   0.451  27.497  1.00  0.00     0.253 A 
HETATM   35  O11 UNL     1       9.923   1.020  27.006  1.00  0.00    -0.267 OA
BRANCH  30  36
HETATM   36  N1  UNL     1       5.491  -1.478  29.022  1.00  0.00    -0.114 N 
HETATM   37  O1  UNL     1       5.354  -1.593  30.252  1.00  0.00    -0.532 OA
HETATM   38  O2  UNL     1       4.556  -1.964  28.160  1.00  0.00    -0.532 OA
ENDBRANCH  30  36
ENDBRANCH  27  28
ENDBRANCH  24  27
ENDBRANCH  22  23
ENDBRANCH  21  22
ENDBRANCH  18  21
BRANCH  19  39
HETATM   39  O10 UNL     1       8.806   4.793  22.339  1.00  0.00    -0.359 OA
ATOM     40  H10 UNL     1       8.973   5.351  21.590  1.00  0.00     0.217 HD
ENDBRANCH  19  39
ENDBRANCH   1  16
BRANCH  15  41
HETATM   41  O5  UNL     1       8.176   8.832  25.830  1.00  0.00    -0.201 OA
BRANCH  41  42
HETATM   42  N10 UNL     1       8.380  10.155  25.661  1.00  0.00    -0.088 N 
ATOM     43  H10 UNL     1       9.223  10.491  25.196  1.00  0.00     0.213 HD
BRANCH  42  44
HETATM   44  C18 UNL     1       7.388  11.093  26.149  1.00  0.00     0.714 A 
HETATM   45  N11 UNL     1       6.170  11.169  25.764  1.00  0.00    -0.204 N 
HETATM   46  C19 UNL     1       5.410  12.193  26.418  1.00  0.00     0.147 A 
ATOM     47  H11 UNL     1       5.775  10.554  25.053  1.00  0.00     0.179 HD
HETATM   48  C20 UNL     1       4.240  11.592  27.167  1.00  0.00     0.052 C 
HETATM   49  C22 UNL     1       6.392  12.803  27.345  1.00  0.00     0.279 A 
HETATM   50  O7  UNL     1       6.211  13.763  28.159  1.00  0.00    -0.269 OA
HETATM   51  N12 UNL     1       7.597  12.086  27.138  1.00  0.00    -0.051 N 
HETATM   52  C23 UNL     1       8.838  12.297  27.796  1.00  0.00     0.312 C 
HETATM   53  O8  UNL     1       8.932  13.206  28.665  1.00  0.00    -0.629 OA
HETATM   54  O9  UNL     1       9.958  11.542  27.520  1.00  0.00    -0.629 OA
BRANCH  46  55
HETATM   55  C21 UNL     1       4.951  13.271  25.457  1.00  0.00     0.205 C 
BRANCH  55  56
HETATM   56  O6  UNL     1       6.084  14.051  25.164  1.00  0.00    -0.398 OA
ATOM     57  H6  UNL     1       6.631  13.525  24.594  1.00  0.00     0.209 HD
ENDBRANCH  55  56
ENDBRANCH  46  55
ENDBRANCH  42  44
ENDBRANCH  41  42
ENDBRANCH  15  41
BRANCH   9  58
HETATM   58  N7  UNL     1      11.185   9.050  32.215  1.00  0.00    -0.234 N 
ATOM     59  H72 UNL     1      11.902   8.712  32.857  1.00  0.00     0.174 HD
ATOM     60  H71 UNL     1      10.762   9.956  32.415  1.00  0.00     0.174 HD
ENDBRANCH   9  58
TORSDOF 14
ENDMDL
MODEL 3
REMARK VINA RESULT: -11.261988909      1.360      1.631
REMARK  14 active torsions:
REMARK  status: ('A' for Active; 'I' for Inactive)
REMARK    1  A    between atoms: C4_4  and  N1_5 
REMARK    2  A    between atoms: N2_9  and  C6_10 
REMARK    3  A    between atoms: C6_10  and  C7_11 
REMARK       I    between atoms: C7_11  and  N3_13 
REMARK    4  A    between atoms: N3_13  and  C8_15 
REMARK    5  A    between atoms: C8_15  and  C9_16 
REMARK    6  A    between atoms: C9_16  and  C10_17 
REMARK    7  A    between atoms: N4_19  and  C12_20 
REMARK    8  A    between atoms: C15_28  and  N7_29 
REMARK    9  A    between atoms: C17_37  and  O5_38 
REMARK   10  A    between atoms: O5_38  and  N10_39 
REMARK   11  A    between atoms: N10_39  and  C18_41 
REMARK   12  A    between atoms: C19_44  and  C21_46 
REMARK   13  A    between atoms: C21_46  and  O6_47 
REMARK       I    between atoms: N12_51  and  C23_52 
REMARK   14  A    between atoms: C25_56  and  O10_57 
ROOT
HETATM    1  C12 UNL     1      10.143   7.653  29.663  1.00  0.00     0.167 A 
HETATM    2  N5  UNL     1      11.326   8.183  30.013  1.00  0.00    -0.331 N 
ATOM      3  H5  UNL     1      12.168   7.886  29.521  1.00  0.00     0.168 HD
HETATM    4  C13 UNL     1      11.428   9.094  30.995  1.00  0.00     0.148 A 
HETATM    5  C14 UNL     1      12.645   9.645  31.363  1.00  0.00     0.290 A 
HETATM    6  O4  UNL     1      13.675   9.279  30.757  1.00  0.00    -0.265 OA
HETATM    7  N6  UNL     1      12.741  10.559  32.352  1.00  0.00    -0.154 N 
ATOM      8  H6  UNL     1      13.652  10.945  32.599  1.00  0.00     0.187 HD
HETATM    9  C15 UNL     1      11.644  10.964  33.012  1.00  0.00     0.680 A 
HETATM   10  N8  UNL     1      10.467  10.425  32.651  1.00  0.00    -0.174 N 
ATOM     11  H8  UNL     1       9.632  10.731  33.151  1.00  0.00     0.186 HD
HETATM   12  C16 UNL     1      10.312   9.511  31.674  1.00  0.00     0.155 A 
HETATM   13  N9  UNL     1       9.121   8.996  31.342  1.00  0.00    -0.316 N 
ATOM     14  H9  UNL     1       8.281   9.297  31.837  1.00  0.00     0.169 HD
HETATM   15  C17 UNL     1       9.026   8.070  30.342  1.00  0.00     0.217 A 
ENDROOT
BRANCH   1  16
HETATM   16  N4  UNL     1       9.985   6.683  28.628  1.00  0.00    -0.312 N 
HETATM   17  C11 UNL     1       9.512   6.922  27.370  1.00  0.00     0.108 A 
HETATM   18  C10 UNL     1       9.483   5.782  26.619  1.00  0.00    -0.006 A 
HETATM   19  C25 UNL     1       9.951   4.782  27.420  1.00  0.00     0.089 A 
HETATM   20  C24 UNL     1      10.251   5.365  28.648  1.00  0.00     0.135 A 
BRANCH  18  21
HETATM   21  C9  UNL     1       9.048   5.566  25.196  1.00  0.00     0.062 C 
BRANCH  21  22
HETATM   22  C8  UNL     1       7.769   4.811  25.122  1.00  0.00     0.127 C 
BRANCH  22  23
HETATM   23  N3  UNL     1       8.014   3.392  25.064  1.00  0.00    -0.359 N 
HETATM   24  C7  UNL     1       6.936   2.488  25.083  1.00  0.00     0.235 C 
HETATM   25  O3  UNL     1       5.729   2.840  25.143  1.00  0.00    -0.272 OA
ATOM     26  H3  UNL     1       8.970   3.043  25.010  1.00  0.00     0.162 HD
BRANCH  24  27
HETATM   27  C6  UNL     1       7.180   1.020  25.032  1.00  0.00     0.234 C 
BRANCH  27  28
HETATM   28  N2  UNL     1       7.522   0.570  26.357  1.00  0.00    -0.313 N 
HETATM   29  C5  UNL     1       6.498   0.311  27.210  1.00  0.00     0.130 A 
HETATM   30  C4  UNL     1       6.700  -0.127  28.496  1.00  0.00     0.119 A 
HETATM   31  C3  UNL     1       8.012  -0.307  28.919  1.00  0.00     0.049 A 
HETATM   32  C2  UNL     1       9.038  -0.040  28.038  1.00  0.00     0.009 A 
HETATM   33  C1  UNL     1      10.455  -0.217  28.445  1.00  0.00     0.054 C 
HETATM   34  C26 UNL     1       8.811   0.400  26.750  1.00  0.00     0.253 A 
HETATM   35  O11 UNL     1       9.735   0.648  25.936  1.00  0.00    -0.267 OA
BRANCH  30  36
HETATM   36  N1  UNL     1       5.619  -0.395  29.389  1.00  0.00    -0.114 N 
HETATM   37  O1  UNL     1       4.632   0.361  29.393  1.00  0.00    -0.532 OA
HETATM   38  O2  UNL     1       5.686  -1.471  30.220  1.00  0.00    -0.532 OA
ENDBRANCH  30  36
ENDBRANCH  27  28
ENDBRANCH  24  27
ENDBRANCH  22  23
ENDBRANCH  21  22
ENDBRANCH  18  21
BRANCH  19  39
HETATM   39  O10 UNL     1      10.112   3.437  27.109  1.00  0.00    -0.359 OA
ATOM     40  H10 UNL     1      10.832   2.863  27.340  1.00  0.00     0.217 HD
ENDBRANCH  19  39
ENDBRANCH   1  16
BRANCH  15  41
HETATM   41  O5  UNL     1       7.771   7.550  30.018  1.00  0.00    -0.201 OA
BRANCH  41  42
HETATM   42  N10 UNL     1       6.753   8.393  29.746  1.00  0.00    -0.088 N 
ATOM     43  H10 UNL     1       5.833   8.240  30.158  1.00  0.00     0.213 HD
BRANCH  42  44
HETATM   44  C18 UNL     1       6.982   9.519  28.862  1.00  0.00     0.714 A 
HETATM   45  N11 UNL     1       7.158   9.460  27.597  1.00  0.00    -0.204 N 
HETATM   46  C19 UNL     1       7.363  10.734  26.971  1.00  0.00     0.147 A 
ATOM     47  H11 UNL     1       7.154   8.582  27.077  1.00  0.00     0.179 HD
HETATM   48  C20 UNL     1       6.282  11.004  25.946  1.00  0.00     0.052 C 
HETATM   49  C22 UNL     1       7.285  11.684  28.106  1.00  0.00     0.279 A 
HETATM   50  O7  UNL     1       7.402  12.950  28.078  1.00  0.00    -0.269 OA
HETATM   51  N12 UNL     1       7.048  10.881  29.250  1.00  0.00    -0.051 N 
HETATM   52  C23 UNL     1       6.896  11.330  30.589  1.00  0.00     0.312 C 
HETATM   53  O8  UNL     1       6.970  12.564  30.841  1.00  0.00    -0.629 OA
HETATM   54  O9  UNL     1       6.669  10.463  31.636  1.00  0.00    -0.629 OA
BRANCH  46  55
HETATM   55  C21 UNL     1       8.744  10.858  26.359  1.00  0.00     0.205 C 
BRANCH  55  56
HETATM   56  O6  UNL     1       9.545  11.511  27.313  1.00  0.00    -0.398 OA
ATOM     57  H6  UNL     1       9.558  12.428  27.070  1.00  0.00     0.209 HD
ENDBRANCH  55  56
ENDBRANCH  46  55
ENDBRANCH  42  44
ENDBRANCH  41  42
ENDBRANCH  15  41
BRANCH   9  58
HETATM   58  N7  UNL     1      11.742  11.848  33.969  1.00  0.00    -0.234 N 
ATOM     59  H72 UNL     1      10.959  12.441  34.247  1.00  0.00     0.174 HD
ATOM     60  H71 UNL     1      12.623  11.967  34.471  1.00  0.00     0.174 HD
ENDBRANCH   9  58
TORSDOF 14
ENDMDL
MODEL 4
REMARK VINA RESULT: -11.223844194      1.103      1.886
REMARK  14 active torsions:
REMARK  status: ('A' for Active; 'I' for Inactive)
REMARK    1  A    between atoms: C4_4  and  N1_5 
REMARK    2  A    between atoms: N2_9  and  C6_10 
REMARK    3  A    between atoms: C6_10  and  C7_11 
REMARK       I    between atoms: C7_11  and  N3_13 
REMARK    4  A    between atoms: N3_13  and  C8_15 
REMARK    5  A    between atoms: C8_15  and  C9_16 
REMARK    6  A    between atoms: C9_16  and  C10_17 
REMARK    7  A    between atoms: N4_19  and  C12_20 
REMARK    8  A    between atoms: C15_28  and  N7_29 
REMARK    9  A    between atoms: C17_37  and  O5_38 
REMARK   10  A    between atoms: O5_38  and  N10_39 
REMARK   11  A    between atoms: N10_39  and  C18_41 
REMARK   12  A    between atoms: C19_44  and  C21_46 
REMARK   13  A    between atoms: C21_46  and  O6_47 
REMARK       I    between atoms: N12_51  and  C23_52 
REMARK   14  A    between atoms: C25_56  and  O10_57 
ROOT
HETATM    1  C12 UNL     1       9.689   8.168  29.255  1.00  0.00     0.167 A 
HETATM    2  N5  UNL     1      11.009   8.361  29.398  1.00  0.00    -0.331 N 
ATOM      3  H5  UNL     1      11.629   8.154  28.615  1.00  0.00     0.168 HD
HETATM    4  C13 UNL     1      11.536   8.818  30.546  1.00  0.00     0.148 A 
HETATM    5  C14 UNL     1      12.898   9.018  30.702  1.00  0.00     0.290 A 
HETATM    6  O4  UNL     1      13.654   8.764  29.740  1.00  0.00    -0.265 OA
HETATM    7  N6  UNL     1      13.421   9.476  31.860  1.00  0.00    -0.154 N 
ATOM      8  H6  UNL     1      14.429   9.612  31.942  1.00  0.00     0.187 HD
HETATM    9  C15 UNL     1      12.623   9.754  32.903  1.00  0.00     0.680 A 
HETATM   10  N8  UNL     1      11.303   9.557  32.745  1.00  0.00    -0.174 N 
ATOM     11  H8  UNL     1      10.694   9.768  33.537  1.00  0.00     0.186 HD
HETATM   12  C16 UNL     1      10.727   9.103  31.616  1.00  0.00     0.155 A 
HETATM   13  N9  UNL     1       9.405   8.919  31.496  1.00  0.00    -0.316 N 
ATOM     14  H9  UNL     1       8.790   9.127  32.283  1.00  0.00     0.169 HD
HETATM   15  C17 UNL     1       8.878   8.453  30.325  1.00  0.00     0.217 A 
ENDROOT
BRANCH   1  16
HETATM   16  N4  UNL     1       9.084   7.684  28.056  1.00  0.00    -0.312 N 
HETATM   17  C11 UNL     1       9.488   6.597  27.337  1.00  0.00     0.108 A 
HETATM   18  C10 UNL     1       8.700   6.398  26.240  1.00  0.00    -0.006 A 
HETATM   19  C25 UNL     1       7.761   7.388  26.258  1.00  0.00     0.089 A 
HETATM   20  C24 UNL     1       8.022   8.162  27.384  1.00  0.00     0.135 A 
BRANCH  18  21
HETATM   21  C9  UNL     1       8.764   5.338  25.175  1.00  0.00     0.062 C 
BRANCH  21  22
HETATM   22  C8  UNL     1       7.610   4.404  25.261  1.00  0.00     0.127 C 
BRANCH  22  23
HETATM   23  N3  UNL     1       8.063   3.038  25.347  1.00  0.00    -0.359 N 
HETATM   24  C7  UNL     1       7.129   1.985  25.357  1.00  0.00     0.235 C 
HETATM   25  O3  UNL     1       5.884   2.153  25.288  1.00  0.00    -0.272 OA
ATOM     26  H3  UNL     1       9.060   2.835  25.401  1.00  0.00     0.162 HD
BRANCH  24  27
HETATM   27  C6  UNL     1       7.587   0.572  25.454  1.00  0.00     0.234 C 
BRANCH  27  28
HETATM   28  N2  UNL     1       7.598   0.192  26.844  1.00  0.00    -0.313 N 
HETATM   29  C5  UNL     1       8.675   0.563  27.582  1.00  0.00     0.130 A 
HETATM   30  C4  UNL     1       8.795   0.262  28.917  1.00  0.00     0.119 A 
HETATM   31  C3  UNL     1       7.761  -0.451  29.514  1.00  0.00     0.049 A 
HETATM   32  C2  UNL     1       6.676  -0.818  28.748  1.00  0.00     0.009 A 
HETATM   33  C1  UNL     1       5.549  -1.580  29.343  1.00  0.00     0.054 C 
HETATM   34  C26 UNL     1       6.578  -0.505  27.407  1.00  0.00     0.253 A 
HETATM   35  O11 UNL     1       5.596  -0.832  26.696  1.00  0.00    -0.267 OA
BRANCH  30  36
HETATM   36  N1  UNL     1       9.930   0.654  29.688  1.00  0.00    -0.114 N 
HETATM   37  O1  UNL     1      10.035   1.836  30.058  1.00  0.00    -0.532 OA
HETATM   38  O2  UNL     1      10.878  -0.270  30.005  1.00  0.00    -0.532 OA
ENDBRANCH  30  36
ENDBRANCH  27  28
ENDBRANCH  24  27
ENDBRANCH  22  23
ENDBRANCH  21  22
ENDBRANCH  18  21
BRANCH  19  39
HETATM   39  O10 UNL     1       6.732   7.612  25.349  1.00  0.00    -0.359 OA
ATOM     40  H10 UNL     1       5.851   7.918  25.525  1.00  0.00     0.217 HD
ENDBRANCH  19  39
ENDBRANCH   1  16
BRANCH  15  41
HETATM   41  O5  UNL     1       7.497   8.271  30.230  1.00  0.00    -0.201 OA
BRANCH  41  42
HETATM   42  N10 UNL     1       6.668   9.273  30.590  1.00  0.00    -0.088 N 
ATOM     43  H10 UNL     1       6.172   9.236  31.480  1.00  0.00     0.213 HD
BRANCH  42  44
HETATM   44  C18 UNL     1       6.492  10.401  29.697  1.00  0.00     0.714 A 
HETATM   45  N11 UNL     1       5.899  10.381  28.564  1.00  0.00    -0.204 N 
HETATM   46  C19 UNL     1       5.870  11.647  27.892  1.00  0.00     0.147 A 
ATOM     47  H11 UNL     1       5.482   9.536  28.173  1.00  0.00     0.179 HD
HETATM   48  C20 UNL     1       4.443  12.099  27.668  1.00  0.00     0.052 C 
HETATM   49  C22 UNL     1       6.583  12.544  28.831  1.00  0.00     0.279 A 
HETATM   50  O7  UNL     1       6.827  13.785  28.698  1.00  0.00    -0.269 OA
HETATM   51  N12 UNL     1       6.945  11.724  29.930  1.00  0.00    -0.051 N 
HETATM   52  C23 UNL     1       7.650  12.125  31.096  1.00  0.00     0.312 C 
HETATM   53  O8  UNL     1       8.016  13.326  31.217  1.00  0.00    -0.629 OA
HETATM   54  O9  UNL     1       7.956  11.245  32.112  1.00  0.00    -0.629 OA
BRANCH  46  55
HETATM   55  C21 UNL     1       6.650  11.625  26.592  1.00  0.00     0.205 C 
BRANCH  55  56
HETATM   56  O6  UNL     1       6.114  10.575  25.824  1.00  0.00    -0.398 OA
ATOM     57  H6  UNL     1       5.772  10.971  25.032  1.00  0.00     0.209 HD
ENDBRANCH  55  56
ENDBRANCH  46  55
ENDBRANCH  42  44
ENDBRANCH  41  42
ENDBRANCH  15  41
BRANCH   9  58
HETATM   58  N7  UNL     1      13.133  10.197  34.022  1.00  0.00    -0.234 N 
ATOM     59  H72 UNL     1      14.018  10.705  34.054  1.00  0.00     0.174 HD
ATOM     60  H71 UNL     1      12.647  10.041  34.905  1.00  0.00     0.174 HD
ENDBRANCH   9  58
TORSDOF 14
ENDMDL
MODEL 5
REMARK VINA RESULT: -11.120066798      2.275      3.309
REMARK  14 active torsions:
REMARK  status: ('A' for Active; 'I' for Inactive)
REMARK    1  A    between atoms: C4_4  and  N1_5 
REMARK    2  A    between atoms: N2_9  and  C6_10 
REMARK    3  A    between atoms: C6_10  and  C7_11 
REMARK       I    between atoms: C7_11  and  N3_13 
REMARK    4  A    between atoms: N3_13  and  C8_15 
REMARK    5  A    between atoms: C8_15  and  C9_16 
REMARK    6  A    between atoms: C9_16  and  C10_17 
REMARK    7  A    between atoms: N4_19  and  C12_20 
REMARK    8  A    between atoms: C15_28  and  N7_29 
REMARK    9  A    between atoms: C17_37  and  O5_38 
REMARK   10  A    between atoms: O5_38  and  N10_39 
REMARK   11  A    between atoms: N10_39  and  C18_41 
REMARK   12  A    between atoms: C19_44  and  C21_46 
REMARK   13  A    between atoms: C21_46  and  O6_47 
REMARK       I    between atoms: N12_51  and  C23_52 
REMARK   14  A    between atoms: C25_56  and  O10_57 
ROOT
HETATM    1  C12 UNL     1       9.014   6.816  26.873  1.00  0.00     0.167 A 
HETATM    2  N5  UNL     1       9.635   6.237  27.912  1.00  0.00    -0.331 N 
ATOM      3  H5  UNL     1       9.816   5.233  27.886  1.00  0.00     0.168 HD
HETATM    4  C13 UNL     1      10.024   6.943  28.986  1.00  0.00     0.148 A 
HETATM    5  C14 UNL     1      10.665   6.352  30.063  1.00  0.00     0.290 A 
HETATM    6  O4  UNL     1      10.885   5.122  30.026  1.00  0.00    -0.265 OA
HETATM    7  N6  UNL     1      11.051   7.069  31.141  1.00  0.00    -0.154 N 
ATOM      8  H6  UNL     1      11.521   6.603  31.917  1.00  0.00     0.187 HD
HETATM    9  C15 UNL     1      10.822   8.391  31.195  1.00  0.00     0.680 A 
HETATM   10  N8  UNL     1      10.200   8.958  30.148  1.00  0.00    -0.174 N 
ATOM     11  H8  UNL     1      10.025   9.962  30.187  1.00  0.00     0.186 HD
HETATM   12  C16 UNL     1       9.793   8.294  29.049  1.00  0.00     0.155 A 
HETATM   13  N9  UNL     1       9.175   8.894  28.024  1.00  0.00    -0.316 N 
ATOM     14  H9  UNL     1       8.996   9.898  28.055  1.00  0.00     0.169 HD
HETATM   15  C17 UNL     1       8.782   8.168  26.935  1.00  0.00     0.217 A 
ENDROOT
BRANCH   1  16
HETATM   16  N4  UNL     1       8.582   6.107  25.712  1.00  0.00    -0.312 N 
HETATM   17  C11 UNL     1       7.380   5.477  25.558  1.00  0.00     0.108 A 
HETATM   18  C10 UNL     1       7.274   4.891  24.330  1.00  0.00    -0.006 A 
HETATM   19  C25 UNL     1       8.443   5.153  23.677  1.00  0.00     0.089 A 
HETATM   20  C24 UNL     1       9.226   5.901  24.550  1.00  0.00     0.135 A 
BRANCH  18  21
HETATM   21  C9  UNL     1       6.146   4.101  23.724  1.00  0.00     0.062 C 
BRANCH  21  22
HETATM   22  C8  UNL     1       5.583   3.120  24.688  1.00  0.00     0.127 C 
BRANCH  22  23
HETATM   23  N3  UNL     1       6.612   2.237  25.179  1.00  0.00    -0.359 N 
HETATM   24  C7  UNL     1       6.965   1.088  24.447  1.00  0.00     0.235 C 
HETATM   25  O3  UNL     1       6.434   0.765  23.353  1.00  0.00    -0.272 OA
ATOM     26  H3  UNL     1       7.084   2.445  26.058  1.00  0.00     0.162 HD
BRANCH  24  27
HETATM   27  C6  UNL     1       8.020   0.167  24.951  1.00  0.00     0.234 C 
BRANCH  27  28
HETATM   28  N2  UNL     1       7.831  -0.009  26.368  1.00  0.00    -0.313 N 
HETATM   29  C5  UNL     1       8.857   0.350  27.182  1.00  0.00     0.130 A 
HETATM   30  C4  UNL     1       8.791   0.233  28.549  1.00  0.00     0.119 A 
HETATM   31  C3  UNL     1       7.620  -0.275  29.098  1.00  0.00     0.049 A 
HETATM   32  C2  UNL     1       6.589  -0.633  28.256  1.00  0.00     0.009 A 
HETATM   33  C1  UNL     1       5.320  -1.179  28.798  1.00  0.00     0.054 C 
HETATM   34  C26 UNL     1       6.678  -0.506  26.884  1.00  0.00     0.253 A 
HETATM   35  O11 UNL     1       5.748  -0.828  26.104  1.00  0.00    -0.267 OA
BRANCH  30  36
HETATM   36  N1  UNL     1       9.874   0.610  29.400  1.00  0.00    -0.114 N 
HETATM   37  O1  UNL     1       9.947   1.783  29.807  1.00  0.00    -0.532 OA
HETATM   38  O2  UNL     1      10.807  -0.316  29.749  1.00  0.00    -0.532 OA
ENDBRANCH  30  36
ENDBRANCH  27  28
ENDBRANCH  24  27
ENDBRANCH  22  23
ENDBRANCH  21  22
ENDBRANCH  18  21
BRANCH  19  39
HETATM   39  O10 UNL     1       8.814   4.767  22.394  1.00  0.00    -0.359 OA
ATOM     40  H10 UNL     1       9.689   4.697  22.032  1.00  0.00     0.217 HD
ENDBRANCH  19  39
ENDBRANCH   1  16
BRANCH  15  41
HETATM   41  O5  UNL     1       8.139   8.820  25.882  1.00  0.00    -0.201 OA
BRANCH  41  42
HETATM   42  N10 UNL     1       8.350  10.139  25.690  1.00  0.00    -0.088 N 
ATOM     43  H10 UNL     1       9.191  10.463  25.213  1.00  0.00     0.213 HD
BRANCH  42  44
HETATM   44  C18 UNL     1       7.368  11.091  26.170  1.00  0.00     0.714 A 
HETATM   45  N11 UNL     1       6.150  11.174  25.788  1.00  0.00    -0.204 N 
HETATM   46  C19 UNL     1       5.400  12.212  26.434  1.00  0.00     0.147 A 
ATOM     47  H11 UNL     1       5.747  10.556  25.085  1.00  0.00     0.179 HD
HETATM   48  C20 UNL     1       4.227  11.629  27.192  1.00  0.00     0.052 C 
HETATM   49  C22 UNL     1       6.391  12.822  27.352  1.00  0.00     0.279 A 
HETATM   50  O7  UNL     1       6.221  13.793  28.156  1.00  0.00    -0.269 OA
HETATM   51  N12 UNL     1       7.589  12.092  27.149  1.00  0.00    -0.051 N 
HETATM   52  C23 UNL     1       8.833  12.299  27.802  1.00  0.00     0.312 C 
HETATM   53  O8  UNL     1       8.938  13.216  28.661  1.00  0.00    -0.629 OA
HETATM   54  O9  UNL     1       9.945  11.530  27.531  1.00  0.00    -0.629 OA
BRANCH  46  55
HETATM   55  C21 UNL     1       4.948  13.284  25.463  1.00  0.00     0.205 C 
BRANCH  55  56
HETATM   56  O6  UNL     1       6.105  13.988  25.081  1.00  0.00    -0.398 OA
ATOM     57  H6  UNL     1       5.840  14.890  24.952  1.00  0.00     0.209 HD
ENDBRANCH  55  56
ENDBRANCH  46  55
ENDBRANCH  42  44
ENDBRANCH  41  42
ENDBRANCH  15  41
BRANCH   9  58
HETATM   58  N7  UNL     1      11.198   9.080  32.240  1.00  0.00    -0.234 N 
ATOM     59  H72 UNL     1      12.011   9.696  32.223  1.00  0.00     0.174 HD
ATOM     60  H71 UNL     1      10.674   9.015  33.114  1.00  0.00     0.174 HD
ENDBRANCH   9  58
TORSDOF 14
ENDMDL
