MODEL 1
REMARK VINA RESULT: -10.258405348      0.000      0.000
REMARK  15 active torsions:
REMARK  status: ('A' for Active; 'I' for Inactive)
REMARK    1  A    between atoms: O1_2  and  C2_3 
REMARK    2  A    between atoms: C2_3  and  C3_4 
REMARK    3  A    between atoms: N1_11  and  C7_12 
REMARK    4  A    between atoms: N4_19  and  C10_20 
REMARK    5  A    between atoms: C10_20  and  C11_21 
REMARK       I    between atoms: C11_21  and  N5_23 
REMARK    6  A    between atoms: N5_23  and  C12_25 
REMARK    7  A    between atoms: C12_25  and  C13_26 
REMARK    8  A    between atoms: C12_25  and  C15_32 
REMARK    9  A    between atoms: C13_26  and  C14_27 
REMARK   10  A    between atoms: C14_27  and  N6_28 
REMARK       I    between atoms: C15_32  and  N7_34 
REMARK   11  A    between atoms: N7_34  and  N8_36 
REMARK   12  A    between atoms: C20_48  and  C21_49 
REMARK   13  A    between atoms: N11_50  and  O8_52 
REMARK   14  A    between atoms: C24_57  and  C25_58 
REMARK   15  A    between atoms: C25_58  and  O10_59 
ROOT
HETATM    1  C7  UNL     1       8.893   8.252  28.917  1.00  0.00     0.688 A 
HETATM    2  N2  UNL     1       9.439   7.452  29.848  1.00  0.00    -0.172 N 
ATOM      3  H2  UNL     1       9.596   7.712  30.822  1.00  0.00     0.186 HD
HETATM    4  C8  UNL     1       9.753   6.248  29.305  1.00  0.00     0.168 A 
HETATM    5  N3  UNL     1      10.293   5.094  29.696  1.00  0.00    -0.334 N 
ATOM      6  H3  UNL     1      10.585   5.000  30.669  1.00  0.00     0.168 HD
HETATM    7  C9  UNL     1      10.471   4.049  28.872  1.00  0.00     0.202 A 
HETATM    8  N4  UNL     1      10.100   4.120  27.555  1.00  0.00    -0.277 N 
HETATM    9  N9  UNL     1       9.565   5.257  27.157  1.00  0.00    -0.279 N 
ATOM     10  H9  UNL     1       9.286   5.313  26.178  1.00  0.00     0.189 HD
HETATM   11  C16 UNL     1       9.353   6.342  27.904  1.00  0.00     0.180 A 
HETATM   12  N10 UNL     1       8.851   7.554  27.746  1.00  0.00    -0.171 N 
ATOM     13  H10 UNL     1       8.482   7.918  26.868  1.00  0.00     0.186 HD
ENDROOT
BRANCH   1  14
HETATM   14  N1  UNL     1       8.425   9.569  29.126  1.00  0.00    -0.149 N 
HETATM   15  C2  UNL     1       7.079   9.883  29.640  1.00  0.00     0.360 C 
HETATM   16  O4  UNL     1       6.507  10.879  28.873  1.00  0.00    -0.289 OA
HETATM   17  C4  UNL     1       7.118  11.197  27.694  1.00  0.00     0.203 C 
HETATM   18  C5  UNL     1       8.592  11.498  27.777  1.00  0.00     0.092 C 
HETATM   19  O7  UNL     1       6.511  12.405  27.249  1.00  0.00    -0.316 OA
HETATM   20  C24 UNL     1       6.727  10.209  26.639  1.00  0.00     0.211 C 
HETATM   21  C6  UNL     1       9.285  10.682  28.827  1.00  0.00     0.153 C 
HETATM   22  C17 UNL     1       5.425  12.047  26.497  1.00  0.00     0.168 C 
HETATM   23  C18 UNL     1       5.454  12.792  25.193  1.00  0.00     0.069 C 
HETATM   24  C23 UNL     1       4.195  12.225  27.308  1.00  0.00     0.069 C 
HETATM   25  O9  UNL     1       5.526  10.697  26.169  1.00  0.00    -0.342 OA
HETATM   26  C19 UNL     1       4.778  14.114  25.223  1.00  0.00     0.015 C 
HETATM   27  C20 UNL     1       3.345  13.859  25.704  1.00  0.00     0.026 C 
HETATM   28  C22 UNL     1       3.498  13.546  27.184  1.00  0.00     0.015 C 
BRANCH  15  29
HETATM   29  O1  UNL     1       6.382   8.705  29.514  1.00  0.00    -0.334 OA
HETATM   30  C1  UNL     1       5.153   8.615  30.077  1.00  0.00     0.208 C 
ENDBRANCH  15  29
BRANCH  15  31
HETATM   31  C3  UNL     1       7.164  10.318  31.040  1.00  0.00     0.264 C 
HETATM   32  O2  UNL     1       6.627  11.395  31.455  1.00  0.00    -0.642 OA
HETATM   33  O3  UNL     1       7.838   9.588  31.991  1.00  0.00    -0.642 OA
ENDBRANCH  15  31
BRANCH  27  34
HETATM   34  C21 UNL     1       2.464  14.981  25.412  1.00  0.00     0.091 C 
HETATM   35  N11 UNL     1       2.553  15.609  24.300  1.00  0.00    -0.284 N 
ATOM     36  H11 UNL     1       1.922  16.391  24.122  1.00  0.00     0.192 HD
BRANCH  35  37
HETATM   37  O8  UNL     1       3.470  15.263  23.340  1.00  0.00    -0.291 OA
ATOM     38  H8  UNL     1       3.213  15.044  22.452  1.00  0.00     0.244 HD
ENDBRANCH  35  37
ENDBRANCH  27  34
BRANCH  20  39
HETATM   39  C25 UNL     1       7.706  10.070  25.525  1.00  0.00     0.201 C 
BRANCH  39  40
HETATM   40  O10 UNL     1       7.554   8.777  24.994  1.00  0.00    -0.398 OA
ATOM     41  H10 UNL     1       8.388   8.333  25.090  1.00  0.00     0.209 HD
ENDBRANCH  39  40
ENDBRANCH  20  39
ENDBRANCH   1  14
BRANCH   8  42
HETATM   42  C10 UNL     1      10.258   3.033  26.622  1.00  0.00     0.252 C 
BRANCH  42  43
HETATM   43  C11 UNL     1       8.941   2.586  26.004  1.00  0.00     0.238 C 
HETATM   44  O5  UNL     1       8.338   3.551  25.460  1.00  0.00    -0.272 OA
HETATM   45  N5  UNL     1       8.505   1.279  26.052  1.00  0.00    -0.346 N 
ATOM     46  H5  UNL     1       9.151   0.685  26.572  1.00  0.00     0.163 HD
BRANCH  45  47
HETATM   47  C12 UNL     1       7.399   0.551  25.571  1.00  0.00     0.179 C 
BRANCH  47  48
HETATM   48  C13 UNL     1       7.356   0.342  24.095  1.00  0.00     0.062 C 
BRANCH  48  49
HETATM   49  C14 UNL     1       6.534   1.321  23.327  1.00  0.00     0.232 C 
BRANCH  49  50
HETATM   50  N6  UNL     1       5.115   1.107  23.365  1.00  0.00    -0.079 N 
ATOM     51  H63 UNL     1       4.914   0.108  23.391  1.00  0.00     0.274 HD
ATOM     52  H62 UNL     1       4.745   1.391  24.272  1.00  0.00     0.274 HD
ATOM     53  H61 UNL     1       4.580   1.550  22.618  1.00  0.00     0.274 HD
ENDBRANCH  49  50
ENDBRANCH  48  49
ENDBRANCH  47  48
BRANCH  47  54
HETATM   54  C15 UNL     1       7.105  -0.733  26.287  1.00  0.00     0.258 C 
HETATM   55  O6  UNL     1       7.254  -0.775  27.532  1.00  0.00    -0.269 OA
HETATM   56  N7  UNL     1       6.656  -1.921  25.592  1.00  0.00    -0.275 N 
ATOM     57  H7  UNL     1       6.532  -1.927  24.579  1.00  0.00     0.189 HD
BRANCH  56  58
HETATM   58  N8  UNL     1       6.402  -3.047  26.349  1.00  0.00    -0.343 N 
ATOM     59  H82 UNL     1       7.100  -3.788  26.420  1.00  0.00     0.176 HD
ATOM     60  H81 UNL     1       5.501  -3.102  26.825  1.00  0.00     0.176 HD
ENDBRANCH  56  58
ENDBRANCH  47  54
ENDBRANCH  45  47
ENDBRANCH  42  43
ENDBRANCH   8  42
TORSDOF 15
ENDMDL
MODEL 2
REMARK VINA RESULT: -10.162653362      1.119      1.120
REMARK  15 active torsions:
REMARK  status: ('A' for Active; 'I' for Inactive)
REMARK    1  A    between atoms: O1_2  and  C2_3 
REMARK    2  A    between atoms: C2_3  and  C3_4 
REMARK    3  A    between atoms: N1_11  and  C7_12 
REMARK    4  A    between atoms: N4_19  and  C10_20 
REMARK    5  A    between atoms: C10_20  and  C11_21 
REMARK       I    between atoms: C11_21  and  N5_23 
REMARK    6  A    between atoms: N5_23  and  C12_25 
REMARK    7  A    between atoms: C12_25  and  C13_26 
REMARK    8  A    between atoms: C12_25  and  C15_32 
REMARK    9  A    between atoms: C13_26  and  C14_27 
REMARK   10  A    between atoms: C14_27  and  N6_28 
REMARK       I    between atoms: C15_32  and  N7_34 
REMARK   11  A    between atoms: N7_34  and  N8_36 
REMARK   12  A    between atoms: C20_48  and  C21_49 
REMARK   13  A    between atoms: N11_50  and  O8_52 
REMARK   14  A    between atoms: C24_57  and  C25_58 
REMARK   15  A    between atoms: C25_58  and  O10_59 
ROOT
HETATM    1  C7  UNL     1       8.626   8.949  28.778  1.00  0.00     0.688 A 
HETATM    2  N2  UNL     1       9.219   8.191  29.715  1.00  0.00    -0.172 N 
ATOM      3  H2  UNL     1       9.367   8.470  30.685  1.00  0.00     0.186 HD
HETATM    4  C8  UNL     1       9.594   6.999  29.184  1.00  0.00     0.168 A 
HETATM    5  N3  UNL     1      10.197   5.880  29.585  1.00  0.00    -0.334 N 
ATOM      6  H3  UNL     1      10.499   5.813  30.557  1.00  0.00     0.168 HD
HETATM    7  C9  UNL     1      10.426   4.837  28.772  1.00  0.00     0.202 A 
HETATM    8  N4  UNL     1      10.044   4.872  27.457  1.00  0.00    -0.277 N 
HETATM    9  N9  UNL     1       9.448   5.973  27.049  1.00  0.00    -0.279 N 
ATOM     10  H9  UNL     1       9.160   6.003  26.071  1.00  0.00     0.189 HD
HETATM   11  C16 UNL     1       9.181   7.054  27.785  1.00  0.00     0.180 A 
HETATM   12  N10 UNL     1       8.614   8.236  27.616  1.00  0.00    -0.171 N 
ATOM     13  H10 UNL     1       8.222   8.569  26.736  1.00  0.00     0.186 HD
ENDROOT
BRANCH   1  14
HETATM   14  N1  UNL     1       8.089  10.242  28.974  1.00  0.00    -0.149 N 
HETATM   15  C2  UNL     1       6.740  10.490  29.517  1.00  0.00     0.360 C 
HETATM   16  O4  UNL     1       6.095  11.437  28.746  1.00  0.00    -0.289 OA
HETATM   17  C4  UNL     1       6.658  11.765  27.546  1.00  0.00     0.203 C 
HETATM   18  C5  UNL     1       8.114  12.150  27.587  1.00  0.00     0.092 C 
HETATM   19  O7  UNL     1       5.973  12.928  27.095  1.00  0.00    -0.316 OA
HETATM   20  C24 UNL     1       6.298  10.736  26.520  1.00  0.00     0.211 C 
HETATM   21  C6  UNL     1       8.878  11.395  28.634  1.00  0.00     0.153 C 
HETATM   22  C17 UNL     1       4.891  12.495  26.377  1.00  0.00     0.168 C 
HETATM   23  C18 UNL     1       4.846  13.215  25.059  1.00  0.00     0.069 C 
HETATM   24  C23 UNL     1       3.673  12.620  27.216  1.00  0.00     0.069 C 
HETATM   25  O9  UNL     1       5.060  11.147  26.072  1.00  0.00    -0.342 OA
HETATM   26  C19 UNL     1       4.097  14.497  25.083  1.00  0.00     0.015 C 
HETATM   27  C20 UNL     1       2.693  14.172  25.604  1.00  0.00     0.026 C 
HETATM   28  C22 UNL     1       2.900  13.897  27.085  1.00  0.00     0.015 C 
BRANCH  15  29
HETATM   29  O1  UNL     1       6.108   9.272  29.430  1.00  0.00    -0.334 OA
HETATM   30  C1  UNL     1       5.134   8.982  30.326  1.00  0.00     0.208 C 
ENDBRANCH  15  29
BRANCH  15  31
HETATM   31  C3  UNL     1       6.835  10.957  30.906  1.00  0.00     0.264 C 
HETATM   32  O2  UNL     1       6.170  11.952  31.340  1.00  0.00    -0.642 OA
HETATM   33  O3  UNL     1       7.656  10.348  31.826  1.00  0.00    -0.642 OA
ENDBRANCH  15  31
BRANCH  27  34
HETATM   34  C21 UNL     1       1.743  15.237  25.314  1.00  0.00     0.091 C 
HETATM   35  N11 UNL     1       1.123  15.834  26.260  1.00  0.00    -0.284 N 
ATOM     36  H11 UNL     1       0.464  16.578  26.028  1.00  0.00     0.192 HD
BRANCH  35  37
HETATM   37  O8  UNL     1       1.317  15.506  27.579  1.00  0.00    -0.291 OA
ATOM     38  H8  UNL     1       1.262  16.152  28.273  1.00  0.00     0.244 HD
ENDBRANCH  35  37
ENDBRANCH  27  34
BRANCH  20  39
HETATM   39  C25 UNL     1       7.256  10.630  25.384  1.00  0.00     0.201 C 
BRANCH  39  40
HETATM   40  O10 UNL     1       7.249   9.292  24.956  1.00  0.00    -0.398 OA
ATOM     41  H10 UNL     1       6.396   9.123  24.573  1.00  0.00     0.209 HD
ENDBRANCH  39  40
ENDBRANCH  20  39
ENDBRANCH   1  14
BRANCH   8  42
HETATM   42  C10 UNL     1      10.255   3.783  26.535  1.00  0.00     0.252 C 
BRANCH  42  43
HETATM   43  C11 UNL     1       8.960   3.259  25.931  1.00  0.00     0.238 C 
HETATM   44  O5  UNL     1       8.407   4.128  25.203  1.00  0.00    -0.272 OA
HETATM   45  N5  UNL     1       8.492   1.985  26.173  1.00  0.00    -0.346 N 
ATOM     46  H5  UNL     1       9.097   1.477  26.817  1.00  0.00     0.163 HD
BRANCH  45  47
HETATM   47  C12 UNL     1       7.394   1.204  25.762  1.00  0.00     0.179 C 
BRANCH  47  48
HETATM   48  C13 UNL     1       7.520   0.572  24.417  1.00  0.00     0.062 C 
BRANCH  48  49
HETATM   49  C14 UNL     1       6.756   1.231  23.319  1.00  0.00     0.232 C 
BRANCH  49  50
HETATM   50  N6  UNL     1       5.333   1.042  23.349  1.00  0.00    -0.079 N 
ATOM     51  H63 UNL     1       5.110   0.056  23.215  1.00  0.00     0.274 HD
ATOM     52  H62 UNL     1       4.984   1.180  24.297  1.00  0.00     0.274 HD
ATOM     53  H61 UNL     1       4.797   1.612  22.695  1.00  0.00     0.274 HD
ENDBRANCH  49  50
ENDBRANCH  48  49
ENDBRANCH  47  48
BRANCH  47  54
HETATM   54  C15 UNL     1       6.898   0.204  26.762  1.00  0.00     0.258 C 
HETATM   55  O6  UNL     1       7.407   0.196  27.909  1.00  0.00    -0.269 OA
HETATM   56  N7  UNL     1       5.853  -0.750  26.450  1.00  0.00    -0.275 N 
ATOM     57  H7  UNL     1       5.422  -0.779  25.526  1.00  0.00     0.189 HD
BRANCH  56  58
HETATM   58  N8  UNL     1       5.462  -1.619  27.449  1.00  0.00    -0.343 N 
ATOM     59  H82 UNL     1       5.277  -1.271  28.390  1.00  0.00     0.176 HD
ATOM     60  H81 UNL     1       5.367  -2.605  27.207  1.00  0.00     0.176 HD
ENDBRANCH  56  58
ENDBRANCH  47  54
ENDBRANCH  45  47
ENDBRANCH  42  43
ENDBRANCH   8  42
TORSDOF 15
ENDMDL
MODEL 3
REMARK VINA RESULT: -9.896496767      1.499      1.816
REMARK  15 active torsions:
REMARK  status: ('A' for Active; 'I' for Inactive)
REMARK    1  A    between atoms: O1_2  and  C2_3 
REMARK    2  A    between atoms: C2_3  and  C3_4 
REMARK    3  A    between atoms: N1_11  and  C7_12 
REMARK    4  A    between atoms: N4_19  and  C10_20 
REMARK    5  A    between atoms: C10_20  and  C11_21 
REMARK       I    between atoms: C11_21  and  N5_23 
REMARK    6  A    between atoms: N5_23  and  C12_25 
REMARK    7  A    between atoms: C12_25  and  C13_26 
REMARK    8  A    between atoms: C12_25  and  C15_32 
REMARK    9  A    between atoms: C13_26  and  C14_27 
REMARK   10  A    between atoms: C14_27  and  N6_28 
REMARK       I    between atoms: C15_32  and  N7_34 
REMARK   11  A    between atoms: N7_34  and  N8_36 
REMARK   12  A    between atoms: C20_48  and  C21_49 
REMARK   13  A    between atoms: N11_50  and  O8_52 
REMARK   14  A    between atoms: C24_57  and  C25_58 
REMARK   15  A    between atoms: C25_58  and  O10_59 
ROOT
HETATM    1  C7  UNL     1       8.564   8.933  28.751  1.00  0.00     0.688 A 
HETATM    2  N2  UNL     1       9.118   8.134  29.678  1.00  0.00    -0.172 N 
ATOM      3  H2  UNL     1       9.220   8.369  30.665  1.00  0.00     0.186 HD
HETATM    4  C8  UNL     1       9.524   6.970  29.111  1.00  0.00     0.168 A 
HETATM    5  N3  UNL     1      10.115   5.836  29.488  1.00  0.00    -0.334 N 
ATOM      6  H3  UNL     1      10.372   5.726  30.468  1.00  0.00     0.168 HD
HETATM    7  C9  UNL     1      10.388   4.832  28.639  1.00  0.00     0.202 A 
HETATM    8  N4  UNL     1      10.067   4.926  27.311  1.00  0.00    -0.277 N 
HETATM    9  N9  UNL     1       9.483   6.043  26.927  1.00  0.00    -0.279 N 
ATOM     10  H9  UNL     1       9.240   6.116  25.939  1.00  0.00     0.189 HD
HETATM   11  C16 UNL     1       9.176   7.087  27.698  1.00  0.00     0.180 A 
HETATM   12  N10 UNL     1       8.610   8.274  27.557  1.00  0.00    -0.171 N 
ATOM     13  H10 UNL     1       8.256   8.645  26.676  1.00  0.00     0.186 HD
ENDROOT
BRANCH   1  14
HETATM   14  N1  UNL     1       8.011  10.212  28.981  1.00  0.00    -0.149 N 
HETATM   15  C2  UNL     1       6.650  10.430  29.507  1.00  0.00     0.360 C 
HETATM   16  O4  UNL     1       6.009  11.396  28.757  1.00  0.00    -0.289 OA
HETATM   17  C4  UNL     1       6.590  11.770  27.579  1.00  0.00     0.203 C 
HETATM   18  C5  UNL     1       8.041  12.167  27.659  1.00  0.00     0.092 C 
HETATM   19  O7  UNL     1       5.902  12.941  27.155  1.00  0.00    -0.316 OA
HETATM   20  C24 UNL     1       6.259  10.774  26.512  1.00  0.00     0.211 C 
HETATM   21  C6  UNL     1       8.794  11.384  28.693  1.00  0.00     0.153 C 
HETATM   22  C17 UNL     1       4.837  12.523  26.404  1.00  0.00     0.168 C 
HETATM   23  C18 UNL     1       4.808  13.286  25.110  1.00  0.00     0.069 C 
HETATM   24  C23 UNL     1       3.603  12.607  27.224  1.00  0.00     0.069 C 
HETATM   25  O9  UNL     1       5.025  11.188  26.056  1.00  0.00    -0.342 OA
HETATM   26  C19 UNL     1       4.046  14.560  25.163  1.00  0.00     0.015 C 
HETATM   27  C20 UNL     1       2.636  14.204  25.648  1.00  0.00     0.026 C 
HETATM   28  C22 UNL     1       2.819  13.881  27.122  1.00  0.00     0.015 C 
BRANCH  15  29
HETATM   29  O1  UNL     1       6.032   9.209  29.367  1.00  0.00    -0.334 OA
HETATM   30  C1  UNL     1       5.127   8.830  30.301  1.00  0.00     0.208 C 
ENDBRANCH  15  29
BRANCH  15  31
HETATM   31  C3  UNL     1       6.715  10.850  30.912  1.00  0.00     0.264 C 
HETATM   32  O2  UNL     1       6.143  11.904  31.338  1.00  0.00    -0.642 OA
HETATM   33  O3  UNL     1       7.406  10.129  31.858  1.00  0.00    -0.642 OA
ENDBRANCH  15  31
BRANCH  27  34
HETATM   34  C21 UNL     1       1.681  15.269  25.377  1.00  0.00     0.091 C 
HETATM   35  N11 UNL     1       1.090  15.876  26.336  1.00  0.00    -0.284 N 
ATOM     36  H11 UNL     1       0.427  16.619  26.116  1.00  0.00     0.192 HD
BRANCH  35  37
HETATM   37  O8  UNL     1       1.322  15.558  27.651  1.00  0.00    -0.291 OA
ATOM     38  H8  UNL     1       2.184  15.630  28.043  1.00  0.00     0.244 HD
ENDBRANCH  35  37
ENDBRANCH  27  34
BRANCH  20  39
HETATM   39  C25 UNL     1       7.238  10.715  25.391  1.00  0.00     0.201 C 
BRANCH  39  40
HETATM   40  O10 UNL     1       7.271   9.386  24.934  1.00  0.00    -0.398 OA
ATOM     41  H10 UNL     1       7.062   8.829  25.674  1.00  0.00     0.209 HD
ENDBRANCH  39  40
ENDBRANCH  20  39
ENDBRANCH   1  14
BRANCH   8  42
HETATM   42  C10 UNL     1      10.326   3.882  26.351  1.00  0.00     0.252 C 
BRANCH  42  43
HETATM   43  C11 UNL     1       9.206   2.854  26.276  1.00  0.00     0.238 C 
HETATM   44  O5  UNL     1       8.221   3.295  25.622  1.00  0.00    -0.272 OA
HETATM   45  N5  UNL     1       9.302   1.610  26.860  1.00  0.00    -0.346 N 
ATOM     46  H5  UNL     1      10.183   1.494  27.359  1.00  0.00     0.163 HD
BRANCH  45  47
HETATM   47  C12 UNL     1       8.498   0.456  26.947  1.00  0.00     0.179 C 
BRANCH  47  48
HETATM   48  C13 UNL     1       8.609  -0.496  25.804  1.00  0.00     0.062 C 
BRANCH  48  49
HETATM   49  C14 UNL     1       7.320  -0.913  25.182  1.00  0.00     0.232 C 
BRANCH  49  50
HETATM   50  N6  UNL     1       6.762  -2.142  25.671  1.00  0.00    -0.079 N 
ATOM     51  H63 UNL     1       7.505  -2.747  26.019  1.00  0.00     0.274 HD
ATOM     52  H62 UNL     1       6.247  -1.971  26.534  1.00  0.00     0.274 HD
ATOM     53  H61 UNL     1       6.175  -2.655  25.012  1.00  0.00     0.274 HD
ENDBRANCH  49  50
ENDBRANCH  48  49
ENDBRANCH  47  48
BRANCH  47  54
HETATM   54  C15 UNL     1       8.563  -0.285  28.248  1.00  0.00     0.258 C 
HETATM   55  O6  UNL     1       8.536  -1.539  28.229  1.00  0.00    -0.269 OA
HETATM   56  N7  UNL     1       8.655   0.397  29.523  1.00  0.00    -0.275 N 
ATOM     57  H7  UNL     1       8.670   1.415  29.578  1.00  0.00     0.189 HD
BRANCH  56  58
HETATM   58  N8  UNL     1       8.722  -0.382  30.661  1.00  0.00    -0.343 N 
ATOM     59  H82 UNL     1       8.449  -1.364  30.629  1.00  0.00     0.176 HD
ATOM     60  H81 UNL     1       9.051   0.062  31.518  1.00  0.00     0.176 HD
ENDBRANCH  56  58
ENDBRANCH  47  54
ENDBRANCH  45  47
ENDBRANCH  42  43
ENDBRANCH   8  42
TORSDOF 15
ENDMDL
MODEL 4
REMARK VINA RESULT: -9.824716332      1.212      1.910
REMARK  15 active torsions:
REMARK  status: ('A' for Active; 'I' for Inactive)
REMARK    1  A    between atoms: O1_2  and  C2_3 
REMARK    2  A    between atoms: C2_3  and  C3_4 
REMARK    3  A    between atoms: N1_11  and  C7_12 
REMARK    4  A    between atoms: N4_19  and  C10_20 
REMARK    5  A    between atoms: C10_20  and  C11_21 
REMARK       I    between atoms: C11_21  and  N5_23 
REMARK    6  A    between atoms: N5_23  and  C12_25 
REMARK    7  A    between atoms: C12_25  and  C13_26 
REMARK    8  A    between atoms: C12_25  and  C15_32 
REMARK    9  A    between atoms: C13_26  and  C14_27 
REMARK   10  A    between atoms: C14_27  and  N6_28 
REMARK       I    between atoms: C15_32  and  N7_34 
REMARK   11  A    between atoms: N7_34  and  N8_36 
REMARK   12  A    between atoms: C20_48  and  C21_49 
REMARK   13  A    between atoms: N11_50  and  O8_52 
REMARK   14  A    between atoms: C24_57  and  C25_58 
REMARK   15  A    between atoms: C25_58  and  O10_59 
ROOT
HETATM    1  C7  UNL     1       8.664   8.829  28.741  1.00  0.00     0.688 A 
HETATM    2  N2  UNL     1       9.185   8.035  29.691  1.00  0.00    -0.172 N 
ATOM      3  H2  UNL     1       9.285   8.288  30.674  1.00  0.00     0.186 HD
HETATM    4  C8  UNL     1       9.557   6.845  29.153  1.00  0.00     0.168 A 
HETATM    5  N3  UNL     1      10.108   5.702  29.561  1.00  0.00    -0.334 N 
ATOM      6  H3  UNL     1      10.353   5.605  30.545  1.00  0.00     0.168 HD
HETATM    7  C9  UNL     1      10.355   4.670  28.737  1.00  0.00     0.202 A 
HETATM    8  N4  UNL     1      10.048   4.745  27.404  1.00  0.00    -0.277 N 
HETATM    9  N9  UNL     1       9.504   5.871  26.990  1.00  0.00    -0.279 N 
ATOM     10  H9  UNL     1       9.272   5.931  25.999  1.00  0.00     0.189 HD
HETATM   11  C16 UNL     1       9.225   6.942  27.735  1.00  0.00     0.180 A 
HETATM   12  N10 UNL     1       8.699   8.143  27.563  1.00  0.00    -0.171 N 
ATOM     13  H10 UNL     1       8.365   8.506  26.671  1.00  0.00     0.186 HD
ENDROOT
BRANCH   1  14
HETATM   14  N1  UNL     1       8.151  10.131  28.938  1.00  0.00    -0.149 N 
HETATM   15  C2  UNL     1       6.811  10.404  29.491  1.00  0.00     0.360 C 
HETATM   16  O4  UNL     1       6.175  11.359  28.723  1.00  0.00    -0.289 OA
HETATM   17  C4  UNL     1       6.734  11.675  27.517  1.00  0.00     0.203 C 
HETATM   18  C5  UNL     1       8.196  12.035  27.545  1.00  0.00     0.092 C 
HETATM   19  O7  UNL     1       6.065  12.847  27.068  1.00  0.00    -0.316 OA
HETATM   20  C24 UNL     1       6.348  10.649  26.497  1.00  0.00     0.211 C 
HETATM   21  C6  UNL     1       8.956  11.270  28.587  1.00  0.00     0.153 C 
HETATM   22  C17 UNL     1       4.970  12.431  26.361  1.00  0.00     0.168 C 
HETATM   23  C18 UNL     1       4.925  13.147  25.041  1.00  0.00     0.069 C 
HETATM   24  C23 UNL     1       3.761  12.578  27.209  1.00  0.00     0.069 C 
HETATM   25  O9  UNL     1       5.114  11.079  26.058  1.00  0.00    -0.342 OA
HETATM   26  C19 UNL     1       4.199  14.442  25.067  1.00  0.00     0.015 C 
HETATM   27  C20 UNL     1       2.793  14.142  25.601  1.00  0.00     0.026 C 
HETATM   28  C22 UNL     1       3.008  13.868  27.081  1.00  0.00     0.015 C 
BRANCH  15  29
HETATM   29  O1  UNL     1       6.158   9.196  29.413  1.00  0.00    -0.334 OA
HETATM   30  C1  UNL     1       5.140   8.953  30.274  1.00  0.00     0.208 C 
ENDBRANCH  15  29
BRANCH  15  31
HETATM   31  C3  UNL     1       6.925  10.873  30.877  1.00  0.00     0.264 C 
HETATM   32  O2  UNL     1       6.281  11.881  31.314  1.00  0.00    -0.642 OA
HETATM   33  O3  UNL     1       7.743  10.252  31.793  1.00  0.00    -0.642 OA
ENDBRANCH  15  31
BRANCH  27  34
HETATM   34  C21 UNL     1       1.859  15.222  25.316  1.00  0.00     0.091 C 
HETATM   35  N11 UNL     1       1.201  15.783  26.259  1.00  0.00    -0.284 N 
ATOM     36  H11 UNL     1       0.554  16.538  26.030  1.00  0.00     0.192 HD
BRANCH  35  37
HETATM   37  O8  UNL     1       1.338  15.399  27.570  1.00  0.00    -0.291 OA
ATOM     38  H8  UNL     1       2.185  15.367  28.000  1.00  0.00     0.244 HD
ENDBRANCH  35  37
ENDBRANCH  27  34
BRANCH  20  39
HETATM   39  C25 UNL     1       7.295  10.524  25.354  1.00  0.00     0.201 C 
BRANCH  39  40
HETATM   40  O10 UNL     1       7.251   9.187  24.920  1.00  0.00    -0.398 OA
ATOM     41  H10 UNL     1       6.337   8.930  24.891  1.00  0.00     0.209 HD
ENDBRANCH  39  40
ENDBRANCH  20  39
ENDBRANCH   1  14
BRANCH   8  42
HETATM   42  C10 UNL     1      10.281   3.672  26.470  1.00  0.00     0.252 C 
BRANCH  42  43
HETATM   43  C11 UNL     1       8.998   2.992  26.015  1.00  0.00     0.238 C 
HETATM   44  O5  UNL     1       8.157   3.832  25.594  1.00  0.00    -0.272 OA
HETATM   45  N5  UNL     1       8.824   1.626  26.072  1.00  0.00    -0.346 N 
ATOM     46  H5  UNL     1       9.634   1.158  26.478  1.00  0.00     0.163 HD
BRANCH  45  47
HETATM   47  C12 UNL     1       7.816   0.708  25.714  1.00  0.00     0.179 C 
BRANCH  47  48
HETATM   48  C13 UNL     1       7.004   0.169  26.842  1.00  0.00     0.062 C 
BRANCH  48  49
HETATM   49  C14 UNL     1       6.853  -1.314  26.879  1.00  0.00     0.232 C 
BRANCH  49  50
HETATM   50  N6  UNL     1       6.642  -1.950  25.610  1.00  0.00    -0.079 N 
ATOM     51  H63 UNL     1       5.856  -2.596  25.670  1.00  0.00     0.274 HD
ATOM     52  H62 UNL     1       6.273  -1.276  24.940  1.00  0.00     0.274 HD
ATOM     53  H61 UNL     1       7.453  -2.425  25.213  1.00  0.00     0.274 HD
ENDBRANCH  49  50
ENDBRANCH  48  49
ENDBRANCH  47  48
BRANCH  47  54
HETATM   54  C15 UNL     1       6.924   1.131  24.586  1.00  0.00     0.258 C 
HETATM   55  O6  UNL     1       7.067   0.582  23.467  1.00  0.00    -0.269 OA
HETATM   56  N7  UNL     1       5.905   2.148  24.744  1.00  0.00    -0.275 N 
ATOM     57  H7  UNL     1       5.765   2.622  25.636  1.00  0.00     0.189 HD
BRANCH  56  58
HETATM   58  N8  UNL     1       5.129   2.452  23.643  1.00  0.00    -0.343 N 
ATOM     59  H82 UNL     1       4.242   2.943  23.759  1.00  0.00     0.176 HD
ATOM     60  H81 UNL     1       5.477   2.169  22.728  1.00  0.00     0.176 HD
ENDBRANCH  56  58
ENDBRANCH  47  54
ENDBRANCH  45  47
ENDBRANCH  42  43
ENDBRANCH   8  42
TORSDOF 15
ENDMDL
MODEL 5
REMARK VINA RESULT: -9.781306078      1.384      1.436
REMARK  15 active torsions:
REMARK  status: ('A' for Active; 'I' for Inactive)
REMARK    1  A    between atoms: O1_2  and  C2_3 
REMARK    2  A    between atoms: C2_3  and  C3_4 
REMARK    3  A    between atoms: N1_11  and  C7_12 
REMARK    4  A    between atoms: N4_19  and  C10_20 
REMARK    5  A    between atoms: C10_20  and  C11_21 
REMARK       I    between atoms: C11_21  and  N5_23 
REMARK    6  A    between atoms: N5_23  and  C12_25 
REMARK    7  A    between atoms: C12_25  and  C13_26 
REMARK    8  A    between atoms: C12_25  and  C15_32 
REMARK    9  A    between atoms: C13_26  and  C14_27 
REMARK   10  A    between atoms: C14_27  and  N6_28 
REMARK       I    between atoms: C15_32  and  N7_34 
REMARK   11  A    between atoms: N7_34  and  N8_36 
REMARK   12  A    between atoms: C20_48  and  C21_49 
REMARK   13  A    between atoms: N11_50  and  O8_52 
REMARK   14  A    between atoms: C24_57  and  C25_58 
REMARK   15  A    between atoms: C25_58  and  O10_59 
ROOT
HETATM    1  C7  UNL     1       8.581   9.011  28.874  1.00  0.00     0.688 A 
HETATM    2  N2  UNL     1       9.116   8.238  29.832  1.00  0.00    -0.172 N 
ATOM      3  H2  UNL     1       9.214   8.505  30.812  1.00  0.00     0.186 HD
HETATM    4  C8  UNL     1       9.509   7.048  29.309  1.00  0.00     0.168 A 
HETATM    5  N3  UNL     1      10.080   5.920  29.729  1.00  0.00    -0.334 N 
ATOM      6  H3  UNL     1      10.329   5.840  30.715  1.00  0.00     0.168 HD
HETATM    7  C9  UNL     1      10.345   4.883  28.918  1.00  0.00     0.202 A 
HETATM    8  N4  UNL     1      10.035   4.936  27.585  1.00  0.00    -0.277 N 
HETATM    9  N9  UNL     1       9.470   6.047  27.158  1.00  0.00    -0.279 N 
ATOM     10  H9  UNL     1       9.235   6.089  26.166  1.00  0.00     0.189 HD
HETATM   11  C16 UNL     1       9.173   7.122  27.890  1.00  0.00     0.180 A 
HETATM   12  N10 UNL     1       8.626   8.311  27.704  1.00  0.00    -0.171 N 
ATOM     13  H10 UNL     1       8.284   8.656  26.808  1.00  0.00     0.186 HD
ENDROOT
BRANCH   1  14
HETATM   14  N1  UNL     1       8.044  10.306  29.055  1.00  0.00    -0.149 N 
HETATM   15  C2  UNL     1       6.700  10.562  29.604  1.00  0.00     0.360 C 
HETATM   16  O4  UNL     1       6.048  11.497  28.824  1.00  0.00    -0.289 OA
HETATM   17  C4  UNL     1       6.603  11.808  27.615  1.00  0.00     0.203 C 
HETATM   18  C5  UNL     1       8.059  12.194  27.640  1.00  0.00     0.092 C 
HETATM   19  O7  UNL     1       5.914  12.964  27.152  1.00  0.00    -0.316 OA
HETATM   20  C24 UNL     1       6.236  10.765  26.606  1.00  0.00     0.211 C 
HETATM   21  C6  UNL     1       8.830  11.455  28.692  1.00  0.00     0.153 C 
HETATM   22  C17 UNL     1       4.827  12.521  26.449  1.00  0.00     0.168 C 
HETATM   23  C18 UNL     1       4.772  13.221  25.121  1.00  0.00     0.069 C 
HETATM   24  C23 UNL     1       3.615  12.657  27.294  1.00  0.00     0.069 C 
HETATM   25  O9  UNL     1       4.995  11.168  26.162  1.00  0.00    -0.342 OA
HETATM   26  C19 UNL     1       4.023  14.504  25.131  1.00  0.00     0.015 C 
HETATM   27  C20 UNL     1       2.622  14.185  25.667  1.00  0.00     0.026 C 
HETATM   28  C22 UNL     1       2.840  13.932  27.150  1.00  0.00     0.015 C 
BRANCH  15  29
HETATM   29  O1  UNL     1       6.068   9.342  29.539  1.00  0.00    -0.334 OA
HETATM   30  C1  UNL     1       4.948   9.153  30.277  1.00  0.00     0.208 C 
ENDBRANCH  15  29
BRANCH  15  31
HETATM   31  C3  UNL     1       6.804  11.049  30.984  1.00  0.00     0.264 C 
HETATM   32  O2  UNL     1       6.170  12.071  31.399  1.00  0.00    -0.642 OA
HETATM   33  O3  UNL     1       7.602  10.430  31.918  1.00  0.00    -0.642 OA
ENDBRANCH  15  31
BRANCH  27  34
HETATM   34  C21 UNL     1       1.670  15.246  25.368  1.00  0.00     0.091 C 
HETATM   35  N11 UNL     1       1.082  15.879  26.312  1.00  0.00    -0.284 N 
ATOM     36  H11 UNL     1       0.420  16.618  26.073  1.00  0.00     0.192 HD
BRANCH  35  37
HETATM   37  O8  UNL     1       1.313  15.595  27.634  1.00  0.00    -0.291 OA
ATOM     38  H8  UNL     1       0.640  15.697  28.297  1.00  0.00     0.244 HD
ENDBRANCH  35  37
ENDBRANCH  27  34
BRANCH  20  39
HETATM   39  C25 UNL     1       7.186  10.642  25.466  1.00  0.00     0.201 C 
BRANCH  39  40
HETATM   40  O10 UNL     1       7.144   9.307  25.028  1.00  0.00    -0.398 OA
ATOM     41  H10 UNL     1       6.289   9.165  24.639  1.00  0.00     0.209 HD
ENDBRANCH  39  40
ENDBRANCH  20  39
ENDBRANCH   1  14
BRANCH   8  42
HETATM   42  C10 UNL     1      10.285   3.855  26.664  1.00  0.00     0.252 C 
BRANCH  42  43
HETATM   43  C11 UNL     1       9.068   3.497  25.824  1.00  0.00     0.238 C 
HETATM   44  O5  UNL     1       8.824   4.389  24.966  1.00  0.00    -0.272 OA
HETATM   45  N5  UNL     1       8.356   2.332  26.010  1.00  0.00    -0.346 N 
ATOM     46  H5  UNL     1       8.727   1.782  26.784  1.00  0.00     0.163 HD
BRANCH  45  47
HETATM   47  C12 UNL     1       7.248   1.704  25.408  1.00  0.00     0.179 C 
BRANCH  47  48
HETATM   48  C13 UNL     1       6.720   2.363  24.179  1.00  0.00     0.062 C 
BRANCH  48  49
HETATM   49  C14 UNL     1       5.592   3.315  24.389  1.00  0.00     0.232 C 
BRANCH  49  50
HETATM   50  N6  UNL     1       5.822   4.661  23.948  1.00  0.00    -0.079 N 
ATOM     51  H63 UNL     1       5.582   5.317  24.691  1.00  0.00     0.274 HD
ATOM     52  H62 UNL     1       6.824   4.835  23.869  1.00  0.00     0.274 HD
ATOM     53  H61 UNL     1       5.354   4.930  23.082  1.00  0.00     0.274 HD
ENDBRANCH  49  50
ENDBRANCH  48  49
ENDBRANCH  47  48
BRANCH  47  54
HETATM   54  C15 UNL     1       7.378   0.226  25.190  1.00  0.00     0.258 C 
HETATM   55  O6  UNL     1       8.433  -0.215  24.672  1.00  0.00    -0.269 OA
HETATM   56  N7  UNL     1       6.331  -0.706  25.556  1.00  0.00    -0.275 N 
ATOM     57  H7  UNL     1       5.457  -0.383  25.971  1.00  0.00     0.189 HD
BRANCH  56  58
HETATM   58  N8  UNL     1       6.560  -2.047  25.324  1.00  0.00    -0.343 N 
ATOM     59  H82 UNL     1       6.124  -2.513  24.528  1.00  0.00     0.176 HD
ATOM     60  H81 UNL     1       7.173  -2.541  25.972  1.00  0.00     0.176 HD
ENDBRANCH  56  58
ENDBRANCH  47  54
ENDBRANCH  45  47
ENDBRANCH  42  43
ENDBRANCH   8  42
TORSDOF 15
ENDMDL
