MODEL 1
REMARK VINA RESULT: -7.274839124      0.000      0.000
REMARK  20 active torsions:
REMARK  status: ('A' for Active; 'I' for Inactive)
REMARK    1  A    between atoms: O1_2  and  C2_3 
REMARK    2  A    between atoms: C2_3  and  C3_5 
REMARK    3  A    between atoms: C3_5  and  N1_6 
REMARK    4  A    between atoms: N1_6  and  C4_8 
REMARK    5  A    between atoms: C4_8  and  C5_9 
REMARK    6  A    between atoms: C4_8  and  C7_15 
REMARK    7  A    between atoms: C5_9  and  O3_10 
REMARK    8  A    between atoms: C5_9  and  C6_12 
REMARK    9  A    between atoms: C6_12  and  O4_13 
REMARK   10  A    between atoms: C7_15  and  O5_16 
REMARK   11  A    between atoms: C7_15  and  C13_23 
REMARK   12  A    between atoms: O5_16  and  C8_17 
REMARK   13  A    between atoms: C8_17  and  C9_19 
REMARK   14  A    between atoms: C9_19  and  C10_20 
REMARK   15  A    between atoms: C13_23  and  N2_24 
REMARK   16  A    between atoms: C13_23  and  O7_28 
REMARK   17  A    between atoms: C15_31  and  C16_32 
REMARK   18  A    between atoms: C18_35  and  O9_36 
REMARK   19  A    between atoms: C18_35  and  O10_38 
REMARK   20  A    between atoms: C20_41  and  O11_42 
ROOT
HETATM    1  C4  UNL     1       0.233   1.725  -6.317  1.00  0.00     0.142 C 
ENDROOT
BRANCH   1   2
HETATM    2  N1  UNL     1      -0.794   1.903  -5.396  1.00  0.00    -0.393 N 
ATOM      3  H1  UNL     1      -0.580   2.520  -4.613  1.00  0.00     0.155 HD
BRANCH   2   4
HETATM    4  C3  UNL     1      -2.094   1.346  -5.396  1.00  0.00     0.142 C 
HETATM    5  C14 UNL     1      -2.125   0.254  -4.321  1.00  0.00     0.061 C 
HETATM    6  C15 UNL     1      -3.425  -0.347  -4.068  1.00  0.00     0.120 C 
HETATM    7  C18 UNL     1      -4.159  -0.808  -5.297  1.00  0.00     0.172 C 
HETATM    8  C19 UNL     1      -3.989   0.087  -6.451  1.00  0.00     0.103 C 
HETATM    9  C20 UNL     1      -2.678   0.789  -6.628  1.00  0.00     0.161 C 
BRANCH   4  10
HETATM   10  C2  UNL     1      -2.980   2.438  -4.911  1.00  0.00     0.289 C 
HETATM   11  O2  UNL     1      -3.779   2.287  -3.963  1.00  0.00    -0.262 OA
BRANCH  10  12
HETATM   12  O1  UNL     1      -2.941   3.662  -5.505  1.00  0.00    -0.324 OA
HETATM   13  C1  UNL     1      -4.038   4.532  -5.679  1.00  0.00     0.213 C 
ENDBRANCH  10  12
ENDBRANCH   4  10
BRANCH   6  14
HETATM   14  C16 UNL     1      -3.181  -1.594  -3.235  1.00  0.00     0.132 C 
HETATM   15  C17 UNL     1      -1.868  -2.031  -2.766  1.00  0.00     0.091 C 
HETATM   16  O8  UNL     1      -4.137  -2.298  -2.922  1.00  0.00    -0.298 OA
ENDBRANCH   6  14
BRANCH   7  17
HETATM   17  O9  UNL     1      -3.797  -2.125  -5.642  1.00  0.00    -0.365 OA
ATOM     18  H9  UNL     1      -4.446  -2.520  -6.213  1.00  0.00     0.213 HD
ENDBRANCH   7  17
BRANCH   7  19
HETATM   19  O10 UNL     1      -5.513  -0.891  -4.977  1.00  0.00    -0.365 OA
ATOM     20  H10 UNL     1      -5.949  -1.359  -5.679  1.00  0.00     0.213 HD
ENDBRANCH   7  19
BRANCH   9  21
HETATM   21  O11 UNL     1      -3.026   1.875  -7.500  1.00  0.00    -0.392 OA
ATOM     22  H11 UNL     1      -2.289   2.050  -8.073  1.00  0.00     0.210 HD
ENDBRANCH   9  21
ENDBRANCH   2   4
ENDBRANCH   1   2
BRANCH   1  23
HETATM   23  C5  UNL     1       0.413   2.794  -7.286  1.00  0.00     0.166 C 
BRANCH  23  24
HETATM   24  O3  UNL     1      -0.651   3.753  -7.331  1.00  0.00    -0.391 OA
ATOM     25  H3  UNL     1      -1.328   3.569  -7.971  1.00  0.00     0.210 HD
ENDBRANCH  23  24
BRANCH  23  26
HETATM   26  C6  UNL     1       0.628   2.338  -8.720  1.00  0.00     0.197 C 
BRANCH  26  27
HETATM   27  O4  UNL     1       1.867   1.909  -9.043  1.00  0.00    -0.398 OA
ATOM     28  H4  UNL     1       1.965   0.982  -9.231  1.00  0.00     0.209 HD
ENDBRANCH  26  27
ENDBRANCH  23  26
ENDBRANCH   1  23
BRANCH   1  29
HETATM   29  C7  UNL     1       1.438   1.248  -5.516  1.00  0.00     0.212 C 
BRANCH  29  30
HETATM   30  O5  UNL     1       2.591   1.951  -6.056  1.00  0.00    -0.309 OA
BRANCH  30  31
HETATM   31  C8  UNL     1       3.888   1.570  -5.769  1.00  0.00     0.259 C 
HETATM   32  O6  UNL     1       4.494   2.296  -4.951  1.00  0.00    -0.265 OA
BRANCH  31  33
HETATM   33  C9  UNL     1       4.521   0.369  -6.395  1.00  0.00     0.115 C 
BRANCH  33  34
HETATM   34  C10 UNL     1       5.423   0.847  -7.513  1.00  0.00    -0.013 C 
HETATM   35  C11 UNL     1       4.978   0.336  -8.854  1.00  0.00     0.010 C 
HETATM   36  C12 UNL     1       6.845   0.413  -7.282  1.00  0.00     0.010 C 
ENDBRANCH  33  34
ENDBRANCH  31  33
ENDBRANCH  30  31
ENDBRANCH  29  30
BRANCH  29  37
HETATM   37  C13 UNL     1       1.434   1.416  -4.070  1.00  0.00     0.348 C 
BRANCH  37  38
HETATM   38  N2  UNL     1       1.315   0.471  -3.035  1.00  0.00    -0.050 N 
ATOM     39  H23 UNL     1       0.651  -0.219  -3.387  1.00  0.00     0.277 HD
ATOM     40  H22 UNL     1       2.209  -0.021  -3.027  1.00  0.00     0.277 HD
ATOM     41  H21 UNL     1       1.073   0.586  -2.051  1.00  0.00     0.277 HD
ENDBRANCH  37  38
BRANCH  37  42
HETATM   42  O7  UNL     1       1.567   2.608  -3.557  1.00  0.00    -0.368 OA
ATOM     43  H7  UNL     1       1.321   2.761  -2.652  1.00  0.00     0.212 HD
ENDBRANCH  37  42
ENDBRANCH  29  37
ENDBRANCH   1  29
TORSDOF 20
ENDMDL
MODEL 2
REMARK VINA RESULT: -7.253363459      1.225      1.589
REMARK  20 active torsions:
REMARK  status: ('A' for Active; 'I' for Inactive)
REMARK    1  A    between atoms: O1_2  and  C2_3 
REMARK    2  A    between atoms: C2_3  and  C3_5 
REMARK    3  A    between atoms: C3_5  and  N1_6 
REMARK    4  A    between atoms: N1_6  and  C4_8 
REMARK    5  A    between atoms: C4_8  and  C5_9 
REMARK    6  A    between atoms: C4_8  and  C7_15 
REMARK    7  A    between atoms: C5_9  and  O3_10 
REMARK    8  A    between atoms: C5_9  and  C6_12 
REMARK    9  A    between atoms: C6_12  and  O4_13 
REMARK   10  A    between atoms: C7_15  and  O5_16 
REMARK   11  A    between atoms: C7_15  and  C13_23 
REMARK   12  A    between atoms: O5_16  and  C8_17 
REMARK   13  A    between atoms: C8_17  and  C9_19 
REMARK   14  A    between atoms: C9_19  and  C10_20 
REMARK   15  A    between atoms: C13_23  and  N2_24 
REMARK   16  A    between atoms: C13_23  and  O7_28 
REMARK   17  A    between atoms: C15_31  and  C16_32 
REMARK   18  A    between atoms: C18_35  and  O9_36 
REMARK   19  A    between atoms: C18_35  and  O10_38 
REMARK   20  A    between atoms: C20_41  and  O11_42 
ROOT
HETATM    1  C4  UNL     1       0.031   2.279  -7.217  1.00  0.00     0.142 C 
ENDROOT
BRANCH   1   2
HETATM    2  N1  UNL     1      -0.876   2.553  -6.199  1.00  0.00    -0.393 N 
ATOM      3  H1  UNL     1      -0.646   3.352  -5.608  1.00  0.00     0.155 HD
BRANCH   2   4
HETATM    4  C3  UNL     1      -2.073   1.876  -5.870  1.00  0.00     0.142 C 
HETATM    5  C14 UNL     1      -1.734   0.842  -4.790  1.00  0.00     0.061 C 
HETATM    6  C15 UNL     1      -2.866   0.134  -4.214  1.00  0.00     0.120 C 
HETATM    7  C18 UNL     1      -3.820  -0.456  -5.216  1.00  0.00     0.172 C 
HETATM    8  C19 UNL     1      -4.023   0.391  -6.401  1.00  0.00     0.103 C 
HETATM    9  C20 UNL     1      -2.872   1.204  -6.908  1.00  0.00     0.161 C 
BRANCH   4  10
HETATM   10  C2  UNL     1      -2.928   2.902  -5.215  1.00  0.00     0.289 C 
HETATM   11  O2  UNL     1      -3.459   2.724  -4.099  1.00  0.00    -0.262 OA
BRANCH  10  12
HETATM   12  O1  UNL     1      -3.158   4.093  -5.832  1.00  0.00    -0.324 OA
HETATM   13  C1  UNL     1      -4.353   4.841  -5.766  1.00  0.00     0.213 C 
ENDBRANCH  10  12
ENDBRANCH   4  10
BRANCH   6  14
HETATM   14  C16 UNL     1      -2.303  -1.039  -3.432  1.00  0.00     0.132 C 
HETATM   15  C17 UNL     1      -0.877  -1.289  -3.228  1.00  0.00     0.091 C 
HETATM   16  O8  UNL     1      -3.078  -1.846  -2.926  1.00  0.00    -0.298 OA
ENDBRANCH   6  14
BRANCH   7  17
HETATM   17  O9  UNL     1      -3.415  -1.749  -5.604  1.00  0.00    -0.365 OA
ATOM     18  H9  UNL     1      -4.164  -2.316  -5.742  1.00  0.00     0.213 HD
ENDBRANCH   7  17
BRANCH   7  19
HETATM   19  O10 UNL     1      -5.042  -0.651  -4.576  1.00  0.00    -0.365 OA
ATOM     20  H10 UNL     1      -5.371   0.201  -4.314  1.00  0.00     0.213 HD
ENDBRANCH   7  19
BRANCH   9  21
HETATM   21  O11 UNL     1      -3.529   2.206  -7.700  1.00  0.00    -0.392 OA
ATOM     22  H11 UNL     1      -2.951   2.455  -8.411  1.00  0.00     0.210 HD
ENDBRANCH   9  21
ENDBRANCH   2   4
ENDBRANCH   1   2
BRANCH   1  23
HETATM   23  C5  UNL     1       0.197   3.318  -8.220  1.00  0.00     0.166 C 
BRANCH  23  24
HETATM   24  O3  UNL     1       0.960   4.454  -7.792  1.00  0.00    -0.391 OA
ATOM     25  H3  UNL     1       1.607   4.759  -8.417  1.00  0.00     0.210 HD
ENDBRANCH  23  24
BRANCH  23  26
HETATM   26  C6  UNL     1      -1.095   3.873  -8.797  1.00  0.00     0.197 C 
BRANCH  26  27
HETATM   27  O4  UNL     1      -1.737   4.809  -8.065  1.00  0.00    -0.398 OA
ATOM     28  H4  UNL     1      -1.939   5.630  -8.499  1.00  0.00     0.209 HD
ENDBRANCH  26  27
ENDBRANCH  23  26
ENDBRANCH   1  23
BRANCH   1  29
HETATM   29  C7  UNL     1       1.270   1.711  -6.535  1.00  0.00     0.212 C 
BRANCH  29  30
HETATM   30  O5  UNL     1       2.372   1.908  -7.463  1.00  0.00    -0.309 OA
BRANCH  30  31
HETATM   31  C8  UNL     1       3.499   1.109  -7.448  1.00  0.00     0.259 C 
HETATM   32  O6  UNL     1       4.369   1.419  -6.605  1.00  0.00    -0.265 OA
BRANCH  31  33
HETATM   33  C9  UNL     1       3.665  -0.051  -8.379  1.00  0.00     0.115 C 
BRANCH  33  34
HETATM   34  C10 UNL     1       4.365   0.449  -9.624  1.00  0.00    -0.013 C 
HETATM   35  C11 UNL     1       3.959  -0.323 -10.847  1.00  0.00     0.010 C 
HETATM   36  C12 UNL     1       5.860   0.359  -9.475  1.00  0.00     0.010 C 
ENDBRANCH  33  34
ENDBRANCH  31  33
ENDBRANCH  30  31
ENDBRANCH  29  30
BRANCH  29  37
HETATM   37  C13 UNL     1       1.662   2.237  -5.236  1.00  0.00     0.348 C 
BRANCH  37  38
HETATM   38  N2  UNL     1       1.473   1.724  -3.940  1.00  0.00    -0.050 N 
ATOM     39  H23 UNL     1       0.466   1.582  -3.861  1.00  0.00     0.277 HD
ATOM     40  H22 UNL     1       1.859   0.781  -3.975  1.00  0.00     0.277 HD
ATOM     41  H21 UNL     1       1.757   2.088  -3.030  1.00  0.00     0.277 HD
ENDBRANCH  37  38
BRANCH  37  42
HETATM   42  O7  UNL     1       2.312   3.367  -5.165  1.00  0.00    -0.368 OA
ATOM     43  H7  UNL     1       3.249   3.362  -5.012  1.00  0.00     0.212 HD
ENDBRANCH  37  42
ENDBRANCH  29  37
ENDBRANCH   1  29
TORSDOF 20
ENDMDL
MODEL 3
REMARK VINA RESULT: -6.947131529      1.832      4.620
REMARK  20 active torsions:
REMARK  status: ('A' for Active; 'I' for Inactive)
REMARK    1  A    between atoms: O1_2  and  C2_3 
REMARK    2  A    between atoms: C2_3  and  C3_5 
REMARK    3  A    between atoms: C3_5  and  N1_6 
REMARK    4  A    between atoms: N1_6  and  C4_8 
REMARK    5  A    between atoms: C4_8  and  C5_9 
REMARK    6  A    between atoms: C4_8  and  C7_15 
REMARK    7  A    between atoms: C5_9  and  O3_10 
REMARK    8  A    between atoms: C5_9  and  C6_12 
REMARK    9  A    between atoms: C6_12  and  O4_13 
REMARK   10  A    between atoms: C7_15  and  O5_16 
REMARK   11  A    between atoms: C7_15  and  C13_23 
REMARK   12  A    between atoms: O5_16  and  C8_17 
REMARK   13  A    between atoms: C8_17  and  C9_19 
REMARK   14  A    between atoms: C9_19  and  C10_20 
REMARK   15  A    between atoms: C13_23  and  N2_24 
REMARK   16  A    between atoms: C13_23  and  O7_28 
REMARK   17  A    between atoms: C15_31  and  C16_32 
REMARK   18  A    between atoms: C18_35  and  O9_36 
REMARK   19  A    between atoms: C18_35  and  O10_38 
REMARK   20  A    between atoms: C20_41  and  O11_42 
ROOT
HETATM    1  C4  UNL     1       0.483   0.992  -5.021  1.00  0.00     0.142 C 
ENDROOT
BRANCH   1   2
HETATM    2  N1  UNL     1      -0.499   1.064  -6.002  1.00  0.00    -0.393 N 
ATOM      3  H1  UNL     1      -0.276   0.600  -6.883  1.00  0.00     0.155 HD
BRANCH   2   4
HETATM    4  C3  UNL     1      -1.765   1.691  -5.947  1.00  0.00     0.142 C 
HETATM    5  C14 UNL     1      -1.779   2.792  -7.015  1.00  0.00     0.061 C 
HETATM    6  C15 UNL     1      -3.051   3.466  -7.213  1.00  0.00     0.120 C 
HETATM    7  C18 UNL     1      -3.711   3.956  -5.953  1.00  0.00     0.172 C 
HETATM    8  C19 UNL     1      -3.545   3.045  -4.812  1.00  0.00     0.103 C 
HETATM    9  C20 UNL     1      -2.269   2.270  -4.691  1.00  0.00     0.161 C 
BRANCH   4  10
HETATM   10  C2  UNL     1      -2.729   0.654  -6.403  1.00  0.00     0.289 C 
HETATM   11  O2  UNL     1      -3.307   0.710  -7.508  1.00  0.00    -0.262 OA
BRANCH  10  12
HETATM   12  O1  UNL     1      -3.013  -0.411  -5.604  1.00  0.00    -0.324 OA
HETATM   13  C1  UNL     1      -4.194  -1.181  -5.640  1.00  0.00     0.213 C 
ENDBRANCH  10  12
ENDBRANCH   4  10
BRANCH   6  14
HETATM   14  C16 UNL     1      -2.773   4.703  -8.048  1.00  0.00     0.132 C 
HETATM   15  C17 UNL     1      -1.472   5.033  -8.627  1.00  0.00     0.091 C 
HETATM   16  O8  UNL     1      -3.685   5.495  -8.264  1.00  0.00    -0.298 OA
ENDBRANCH   6  14
BRANCH   7  17
HETATM   17  O9  UNL     1      -3.263   5.249  -5.615  1.00  0.00    -0.365 OA
ATOM     18  H9  UNL     1      -3.656   5.906  -6.178  1.00  0.00     0.213 HD
ENDBRANCH   7  17
BRANCH   7  19
HETATM   19  O10 UNL     1      -5.069   4.117  -6.219  1.00  0.00    -0.365 OA
ATOM     20  H10 UNL     1      -5.342   4.945  -5.843  1.00  0.00     0.213 HD
ENDBRANCH   7  19
BRANCH   9  21
HETATM   21  O11 UNL     1      -2.642   1.198  -3.811  1.00  0.00    -0.392 OA
ATOM     22  H11 UNL     1      -3.556   0.989  -3.961  1.00  0.00     0.210 HD
ENDBRANCH   9  21
ENDBRANCH   2   4
ENDBRANCH   1   2
BRANCH   1  23
HETATM   23  C5  UNL     1       0.430  -0.170  -4.149  1.00  0.00     0.166 C 
BRANCH  23  24
HETATM   24  O3  UNL     1      -0.668  -1.059  -4.394  1.00  0.00    -0.391 OA
ATOM     25  H3  UNL     1      -0.578  -1.922  -4.007  1.00  0.00     0.210 HD
ENDBRANCH  23  24
BRANCH  23  26
HETATM   26  C6  UNL     1       0.397   0.138  -2.661  1.00  0.00     0.197 C 
BRANCH  26  27
HETATM   27  O4  UNL     1       1.180   1.151  -2.231  1.00  0.00    -0.398 OA
ATOM     28  H4  UNL     1       0.835   1.691  -1.528  1.00  0.00     0.209 HD
ENDBRANCH  26  27
ENDBRANCH  23  26
ENDBRANCH   1  23
BRANCH   1  29
HETATM   29  C7  UNL     1       1.797   1.330  -5.715  1.00  0.00     0.212 C 
BRANCH  29  30
HETATM   30  O5  UNL     1       1.441   1.927  -6.992  1.00  0.00    -0.309 OA
BRANCH  30  31
HETATM   31  C8  UNL     1       1.906   1.427  -8.194  1.00  0.00     0.259 C 
HETATM   32  O6  UNL     1       1.524   2.039  -9.216  1.00  0.00    -0.265 OA
BRANCH  31  33
HETATM   33  C9  UNL     1       2.806   0.234  -8.265  1.00  0.00     0.115 C 
BRANCH  33  34
HETATM   34  C10 UNL     1       4.030   0.622  -9.066  1.00  0.00    -0.013 C 
HETATM   35  C11 UNL     1       4.156  -0.184 -10.328  1.00  0.00     0.010 C 
HETATM   36  C12 UNL     1       5.284   0.440  -8.254  1.00  0.00     0.010 C 
ENDBRANCH  33  34
ENDBRANCH  31  33
ENDBRANCH  30  31
ENDBRANCH  29  30
BRANCH  29  37
HETATM   37  C13 UNL     1       2.742   2.210  -5.043  1.00  0.00     0.348 C 
BRANCH  37  38
HETATM   38  N2  UNL     1       2.556   3.135  -3.999  1.00  0.00    -0.050 N 
ATOM     39  H23 UNL     1       1.945   3.851  -4.392  1.00  0.00     0.277 HD
ATOM     40  H22 UNL     1       1.970   2.647  -3.322  1.00  0.00     0.277 HD
ATOM     41  H21 UNL     1       3.232   3.650  -3.436  1.00  0.00     0.277 HD
ENDBRANCH  37  38
BRANCH  37  42
HETATM   42  O7  UNL     1       3.998   2.202  -5.398  1.00  0.00    -0.368 OA
ATOM     43  H7  UNL     1       4.578   2.890  -5.093  1.00  0.00     0.212 HD
ENDBRANCH  37  42
ENDBRANCH  29  37
ENDBRANCH   1  29
TORSDOF 20
ENDMDL
MODEL 4
REMARK VINA RESULT: -6.838010883      2.142      4.125
REMARK  20 active torsions:
REMARK  status: ('A' for Active; 'I' for Inactive)
REMARK    1  A    between atoms: O1_2  and  C2_3 
REMARK    2  A    between atoms: C2_3  and  C3_5 
REMARK    3  A    between atoms: C3_5  and  N1_6 
REMARK    4  A    between atoms: N1_6  and  C4_8 
REMARK    5  A    between atoms: C4_8  and  C5_9 
REMARK    6  A    between atoms: C4_8  and  C7_15 
REMARK    7  A    between atoms: C5_9  and  O3_10 
REMARK    8  A    between atoms: C5_9  and  C6_12 
REMARK    9  A    between atoms: C6_12  and  O4_13 
REMARK   10  A    between atoms: C7_15  and  O5_16 
REMARK   11  A    between atoms: C7_15  and  C13_23 
REMARK   12  A    between atoms: O5_16  and  C8_17 
REMARK   13  A    between atoms: C8_17  and  C9_19 
REMARK   14  A    between atoms: C9_19  and  C10_20 
REMARK   15  A    between atoms: C13_23  and  N2_24 
REMARK   16  A    between atoms: C13_23  and  O7_28 
REMARK   17  A    between atoms: C15_31  and  C16_32 
REMARK   18  A    between atoms: C18_35  and  O9_36 
REMARK   19  A    between atoms: C18_35  and  O10_38 
REMARK   20  A    between atoms: C20_41  and  O11_42 
ROOT
HETATM    1  C4  UNL     1      -0.235   1.895  -7.413  1.00  0.00     0.142 C 
ENDROOT
BRANCH   1   2
HETATM    2  N1  UNL     1      -0.982   2.752  -6.611  1.00  0.00    -0.393 N 
ATOM      3  H1  UNL     1      -0.449   3.465  -6.115  1.00  0.00     0.155 HD
BRANCH   2   4
HETATM    4  C3  UNL     1      -2.378   2.769  -6.390  1.00  0.00     0.142 C 
HETATM    5  C14 UNL     1      -2.940   4.007  -7.098  1.00  0.00     0.061 C 
HETATM    6  C15 UNL     1      -4.389   4.129  -7.105  1.00  0.00     0.120 C 
HETATM    7  C18 UNL     1      -5.046   3.956  -5.763  1.00  0.00     0.172 C 
HETATM    8  C19 UNL     1      -4.411   2.925  -4.929  1.00  0.00     0.103 C 
HETATM    9  C20 UNL     1      -2.928   2.737  -5.024  1.00  0.00     0.161 C 
BRANCH   4  10
HETATM   10  C2  UNL     1      -2.900   1.590  -7.131  1.00  0.00     0.289 C 
HETATM   11  O2  UNL     1      -2.845   0.428  -6.676  1.00  0.00    -0.262 OA
BRANCH  10  12
HETATM   12  O1  UNL     1      -3.467   1.752  -8.358  1.00  0.00    -0.324 OA
HETATM   13  C1  UNL     1      -3.034   1.145  -9.556  1.00  0.00     0.213 C 
ENDBRANCH  10  12
ENDBRANCH   4  10
BRANCH   6  14
HETATM   14  C16 UNL     1      -4.713   5.545  -7.549  1.00  0.00     0.132 C 
HETATM   15  C17 UNL     1      -3.711   6.553  -7.890  1.00  0.00     0.091 C 
HETATM   16  O8  UNL     1      -5.887   5.890  -7.634  1.00  0.00    -0.298 OA
ENDBRANCH   6  14
BRANCH   7  17
HETATM   17  O9  UNL     1      -5.108   5.178  -5.065  1.00  0.00    -0.365 OA
ATOM     18  H9  UNL     1      -4.694   5.108  -4.213  1.00  0.00     0.213 HD
ENDBRANCH   7  17
BRANCH   7  19
HETATM   19  O10 UNL     1      -6.378   3.612  -5.983  1.00  0.00    -0.365 OA
ATOM     20  H10 UNL     1      -6.407   3.033  -6.735  1.00  0.00     0.213 HD
ENDBRANCH   7  19
BRANCH   9  21
HETATM   21  O11 UNL     1      -2.751   1.415  -4.491  1.00  0.00    -0.392 OA
ATOM     22  H11 UNL     1      -3.436   0.856  -4.837  1.00  0.00     0.210 HD
ENDBRANCH   9  21
ENDBRANCH   2   4
ENDBRANCH   1   2
BRANCH   1  23
HETATM   23  C5  UNL     1       0.253   2.455  -8.663  1.00  0.00     0.166 C 
BRANCH  23  24
HETATM   24  O3  UNL     1       1.563   2.019  -9.048  1.00  0.00    -0.391 OA
ATOM     25  H3  UNL     1       1.939   1.345  -8.493  1.00  0.00     0.210 HD
ENDBRANCH  23  24
BRANCH  23  26
HETATM   26  C6  UNL     1       0.280   3.973  -8.726  1.00  0.00     0.197 C 
BRANCH  26  27
HETATM   27  O4  UNL     1       0.963   4.611  -7.750  1.00  0.00    -0.398 OA
ATOM     28  H4  UNL     1       1.271   5.489  -7.947  1.00  0.00     0.209 HD
ENDBRANCH  26  27
ENDBRANCH  23  26
ENDBRANCH   1  23
BRANCH   1  29
HETATM   29  C7  UNL     1       0.753   1.202  -6.482  1.00  0.00     0.212 C 
BRANCH  29  30
HETATM   30  O5  UNL     1       1.881   2.109  -6.338  1.00  0.00    -0.309 OA
BRANCH  30  31
HETATM   31  C8  UNL     1       3.159   1.657  -6.069  1.00  0.00     0.259 C 
HETATM   32  O6  UNL     1       3.826   2.363  -5.281  1.00  0.00    -0.265 OA
BRANCH  31  33
HETATM   33  C9  UNL     1       3.706   0.406  -6.681  1.00  0.00     0.115 C 
BRANCH  33  34
HETATM   34  C10 UNL     1       4.717   0.806  -7.734  1.00  0.00    -0.013 C 
HETATM   35  C11 UNL     1       4.461   0.125  -9.049  1.00  0.00     0.010 C 
HETATM   36  C12 UNL     1       6.116   0.479  -7.289  1.00  0.00     0.010 C 
ENDBRANCH  33  34
ENDBRANCH  31  33
ENDBRANCH  30  31
ENDBRANCH  29  30
BRANCH  29  37
HETATM   37  C13 UNL     1       0.310   0.805  -5.154  1.00  0.00     0.348 C 
BRANCH  37  38
HETATM   38  N2  UNL     1       0.516   1.403  -3.898  1.00  0.00    -0.050 N 
ATOM     39  H23 UNL     1       1.507   1.263  -3.702  1.00  0.00     0.277 HD
ATOM     40  H22 UNL     1       0.432   2.405  -4.070  1.00  0.00     0.277 HD
ATOM     41  H21 UNL     1       0.050   1.253  -3.003  1.00  0.00     0.277 HD
ENDBRANCH  37  38
BRANCH  37  42
HETATM   42  O7  UNL     1      -0.413  -0.272  -5.009  1.00  0.00    -0.368 OA
ATOM     43  H7  UNL     1      -0.134  -1.085  -5.416  1.00  0.00     0.212 HD
ENDBRANCH  37  42
ENDBRANCH  29  37
ENDBRANCH   1  29
TORSDOF 20
ENDMDL
MODEL 5
REMARK VINA RESULT: -6.793408732      1.873      4.638
REMARK  20 active torsions:
REMARK  status: ('A' for Active; 'I' for Inactive)
REMARK    1  A    between atoms: O1_2  and  C2_3 
REMARK    2  A    between atoms: C2_3  and  C3_5 
REMARK    3  A    between atoms: C3_5  and  N1_6 
REMARK    4  A    between atoms: N1_6  and  C4_8 
REMARK    5  A    between atoms: C4_8  and  C5_9 
REMARK    6  A    between atoms: C4_8  and  C7_15 
REMARK    7  A    between atoms: C5_9  and  O3_10 
REMARK    8  A    between atoms: C5_9  and  C6_12 
REMARK    9  A    between atoms: C6_12  and  O4_13 
REMARK   10  A    between atoms: C7_15  and  O5_16 
REMARK   11  A    between atoms: C7_15  and  C13_23 
REMARK   12  A    between atoms: O5_16  and  C8_17 
REMARK   13  A    between atoms: C8_17  and  C9_19 
REMARK   14  A    between atoms: C9_19  and  C10_20 
REMARK   15  A    between atoms: C13_23  and  N2_24 
REMARK   16  A    between atoms: C13_23  and  O7_28 
REMARK   17  A    between atoms: C15_31  and  C16_32 
REMARK   18  A    between atoms: C18_35  and  O9_36 
REMARK   19  A    between atoms: C18_35  and  O10_38 
REMARK   20  A    between atoms: C20_41  and  O11_42 
ROOT
HETATM    1  C4  UNL     1       0.462   1.495  -5.955  1.00  0.00     0.142 C 
ENDROOT
BRANCH   1   2
HETATM    2  N1  UNL     1      -0.742   1.426  -6.645  1.00  0.00    -0.393 N 
ATOM      3  H1  UNL     1      -0.735   0.849  -7.486  1.00  0.00     0.155 HD
BRANCH   2   4
HETATM    4  C3  UNL     1      -1.977   2.045  -6.342  1.00  0.00     0.142 C 
HETATM    5  C14 UNL     1      -2.165   3.203  -7.330  1.00  0.00     0.061 C 
HETATM    6  C15 UNL     1      -3.449   3.882  -7.272  1.00  0.00     0.120 C 
HETATM    7  C18 UNL     1      -3.882   4.301  -5.894  1.00  0.00     0.172 C 
HETATM    8  C19 UNL     1      -3.530   3.328  -4.849  1.00  0.00     0.103 C 
HETATM    9  C20 UNL     1      -2.257   2.553  -4.989  1.00  0.00     0.161 C 
BRANCH   4  10
HETATM   10  C2  UNL     1      -3.010   1.032  -6.684  1.00  0.00     0.289 C 
HETATM   11  O2  UNL     1      -3.872   1.218  -7.568  1.00  0.00    -0.262 OA
BRANCH  10  12
HETATM   12  O1  UNL     1      -3.044  -0.158  -6.022  1.00  0.00    -0.324 OA
HETATM   13  C1  UNL     1      -4.185  -0.964  -5.827  1.00  0.00     0.213 C 
ENDBRANCH  10  12
ENDBRANCH   4  10
BRANCH   6  14
HETATM   14  C16 UNL     1      -3.308   5.165  -8.073  1.00  0.00     0.132 C 
HETATM   15  C17 UNL     1      -2.115   5.540  -8.830  1.00  0.00     0.091 C 
HETATM   16  O8  UNL     1      -4.247   5.955  -8.103  1.00  0.00    -0.298 OA
ENDBRANCH   6  14
BRANCH   7  17
HETATM   17  O9  UNL     1      -3.375   5.574  -5.566  1.00  0.00    -0.365 OA
ATOM     18  H9  UNL     1      -2.978   5.574  -4.703  1.00  0.00     0.213 HD
ENDBRANCH   7  17
BRANCH   7  19
HETATM   19  O10 UNL     1      -5.264   4.471  -5.916  1.00  0.00    -0.365 OA
ATOM     20  H10 UNL     1      -5.508   4.968  -5.144  1.00  0.00     0.213 HD
ENDBRANCH   7  19
BRANCH   9  21
HETATM   21  O11 UNL     1      -2.481   1.433  -4.118  1.00  0.00    -0.392 OA
ATOM     22  H11 UNL     1      -3.413   1.366  -3.947  1.00  0.00     0.210 HD
ENDBRANCH   9  21
ENDBRANCH   2   4
ENDBRANCH   1   2
BRANCH   1  23
HETATM   23  C5  UNL     1       0.704   0.440  -4.985  1.00  0.00     0.166 C 
BRANCH  23  24
HETATM   24  O3  UNL     1      -0.363  -0.508  -4.846  1.00  0.00    -0.391 OA
ATOM     25  H3  UNL     1      -0.238  -1.152  -4.160  1.00  0.00     0.210 HD
ENDBRANCH  23  24
BRANCH  23  26
HETATM   26  C6  UNL     1       1.028   0.916  -3.578  1.00  0.00     0.197 C 
BRANCH  26  27
HETATM   27  O4  UNL     1       1.521   2.168  -3.457  1.00  0.00    -0.398 OA
ATOM     28  H4  UNL     1       2.347   2.260  -2.997  1.00  0.00     0.209 HD
ENDBRANCH  26  27
ENDBRANCH  23  26
ENDBRANCH   1  23
BRANCH   1  29
HETATM   29  C7  UNL     1       1.530   1.790  -7.002  1.00  0.00     0.212 C 
BRANCH  29  30
HETATM   30  O5  UNL     1       2.582   0.806  -6.799  1.00  0.00    -0.309 OA
BRANCH  30  31
HETATM   31  C8  UNL     1       3.828   1.150  -6.311  1.00  0.00     0.259 C 
HETATM   32  O6  UNL     1       3.870   2.198  -5.630  1.00  0.00    -0.265 OA
BRANCH  31  33
HETATM   33  C9  UNL     1       5.044   0.321  -6.580  1.00  0.00     0.115 C 
BRANCH  33  34
HETATM   34  C10 UNL     1       5.669   0.815  -7.867  1.00  0.00    -0.013 C 
HETATM   35  C11 UNL     1       4.955   0.287  -9.079  1.00  0.00     0.010 C 
HETATM   36  C12 UNL     1       7.117   0.414  -7.952  1.00  0.00     0.010 C 
ENDBRANCH  33  34
ENDBRANCH  31  33
ENDBRANCH  30  31
ENDBRANCH  29  30
BRANCH  29  37
HETATM   37  C13 UNL     1       1.159   1.783  -8.409  1.00  0.00     0.348 C 
BRANCH  37  38
HETATM   38  N2  UNL     1       1.076   0.726  -9.333  1.00  0.00    -0.050 N 
ATOM     39  H23 UNL     1       2.045   0.498  -9.555  1.00  0.00     0.277 HD
ATOM     40  H22 UNL     1       0.747  -0.071  -8.788  1.00  0.00     0.277 HD
ATOM     41  H21 UNL     1       0.582   0.655 -10.222  1.00  0.00     0.277 HD
ENDBRANCH  37  38
BRANCH  37  42
HETATM   42  O7  UNL     1       0.822   2.900  -8.994  1.00  0.00    -0.368 OA
ATOM     43  H7  UNL     1       0.500   2.884  -9.888  1.00  0.00     0.212 HD
ENDBRANCH  37  42
ENDBRANCH  29  37
ENDBRANCH   1  29
TORSDOF 20
ENDMDL
