MODEL 1
REMARK VINA RESULT: -8.861905330      0.000      0.000
REMARK  15 active torsions:
REMARK  status: ('A' for Active; 'I' for Inactive)
REMARK       I    between atoms: N1_2  and  C2_3 
REMARK    1  A    between atoms: N1_2  and  C9_18 
REMARK    2  A    between atoms: C2_3  and  C3_5 
REMARK    3  A    between atoms: C3_5  and  O2_6 
REMARK    4  A    between atoms: C3_5  and  N2_8 
REMARK    5  A    between atoms: N2_8  and  C4_10 
REMARK    6  A    between atoms: C6_13  and  C7_14 
REMARK    7  A    between atoms: C11_21  and  O7_22 
REMARK    8  A    between atoms: C11_21  and  O8_24 
REMARK    9  A    between atoms: O8_24  and  C12_25 
REMARK   10  A    between atoms: C13_27  and  O10_28 
REMARK   11  A    between atoms: O10_28  and  C14_29 
REMARK   12  A    between atoms: C14_29  and  C15_31 
REMARK   13  A    between atoms: C15_31  and  N3_32 
REMARK   14  A    between atoms: C15_31  and  C16_36 
REMARK   15  A    between atoms: C16_36  and  C17_37 
ROOT
HETATM    1  C9  UNL     1      -4.721  -1.337  -3.053  1.00  0.00     0.260 C 
HETATM    2  O6  UNL     1      -5.886  -1.745  -2.479  1.00  0.00    -0.358 OA
HETATM    3  C10 UNL     1      -6.022  -3.109  -2.557  1.00  0.00     0.242 C 
HETATM    4  C11 UNL     1      -4.815  -3.690  -3.199  1.00  0.00     0.223 C 
HETATM    5  C13 UNL     1      -3.876  -2.533  -3.400  1.00  0.00     0.245 C 
ENDROOT
BRANCH   1   6
HETATM    6  N1  UNL     1      -5.052  -0.569  -4.272  1.00  0.00    -0.324 N 
HETATM    7  C1  UNL     1      -4.587  -1.040  -5.541  1.00  0.00     0.155 C 
HETATM    8  C2  UNL     1      -5.827   0.580  -4.117  1.00  0.00     0.270 C 
HETATM    9  O1  UNL     1      -6.215   0.886  -2.924  1.00  0.00    -0.268 OA
BRANCH   8  10
HETATM   10  C3  UNL     1      -6.255   1.481  -5.203  1.00  0.00     0.308 C 
BRANCH  10  11
HETATM   11  O2  UNL     1      -7.343   0.766  -5.843  1.00  0.00    -0.368 OA
ATOM     12  H2  UNL     1      -7.737   1.414  -6.416  1.00  0.00     0.212 HD
ENDBRANCH  10  11
BRANCH  10  13
HETATM   13  N2  UNL     1      -6.845   2.692  -4.764  1.00  0.00    -0.383 N 
ATOM     14  H2  UNL     1      -6.747   2.928  -3.777  1.00  0.00     0.156 HD
BRANCH  13  15
HETATM   15  C4  UNL     1      -7.542   3.578  -5.559  1.00  0.00     0.106 C 
HETATM   16  C5  UNL     1      -8.894   4.028  -4.978  1.00  0.00     0.193 C 
HETATM   17  O3  UNL     1      -8.591   5.166  -4.237  1.00  0.00    -0.373 OA
HETATM   18  C6  UNL     1      -7.831   5.892  -5.165  1.00  0.00     0.224 C 
HETATM   19  C8  UNL     1      -6.806   4.907  -5.621  1.00  0.00     0.070 C 
BRANCH  18  20
HETATM   20  C7  UNL     1      -7.216   7.058  -4.508  1.00  0.00     0.203 C 
HETATM   21  O4  UNL     1      -6.189   6.878  -3.817  1.00  0.00    -0.646 OA
HETATM   22  O5  UNL     1      -7.774   8.304  -4.666  1.00  0.00    -0.646 OA
ENDBRANCH  18  20
ENDBRANCH  13  15
ENDBRANCH  10  13
ENDBRANCH   8  10
ENDBRANCH   1   6
BRANCH   5  23
HETATM   23  O10 UNL     1      -2.714  -2.636  -2.614  1.00  0.00    -0.304 OA
BRANCH  23  24
HETATM   24  C14 UNL     1      -2.542  -2.201  -1.335  1.00  0.00     0.290 C 
HETATM   25  O11 UNL     1      -1.968  -1.066  -1.199  1.00  0.00    -0.263 OA
BRANCH  24  26
HETATM   26  C15 UNL     1      -2.952  -2.907  -0.119  1.00  0.00     0.292 C 
BRANCH  26  27
HETATM   27  N3  UNL     1      -2.319  -4.230  -0.143  1.00  0.00    -0.065 N 
ATOM     28  H33 UNL     1      -2.950  -4.967  -0.457  1.00  0.00     0.275 HD
ATOM     29  H32 UNL     1      -1.623  -4.325  -0.883  1.00  0.00     0.275 HD
ATOM     30  H31 UNL     1      -1.937  -4.404   0.787  1.00  0.00     0.275 HD
ENDBRANCH  26  27
BRANCH  26  31
HETATM   31  C16 UNL     1      -2.529  -2.239   1.144  1.00  0.00     0.156 C 
BRANCH  31  32
HETATM   32  C17 UNL     1      -2.335  -3.192   2.265  1.00  0.00     0.175 C 
HETATM   33  O12 UNL     1      -3.362  -3.568   2.886  1.00  0.00    -0.648 OA
HETATM   34  O13 UNL     1      -1.115  -3.692   2.671  1.00  0.00    -0.648 OA
ENDBRANCH  31  32
ENDBRANCH  26  31
ENDBRANCH  24  26
ENDBRANCH  23  24
ENDBRANCH   5  23
BRANCH   4  35
HETATM   35  O7  UNL     1      -4.272  -4.638  -2.308  1.00  0.00    -0.361 OA
ATOM     36  H7  UNL     1      -3.451  -4.288  -1.981  1.00  0.00     0.213 HD
ENDBRANCH   4  35
BRANCH   4  37
HETATM   37  O8  UNL     1      -5.059  -4.290  -4.461  1.00  0.00    -0.285 OA
BRANCH  37  38
HETATM   38  C12 UNL     1      -5.219  -5.645  -4.632  1.00  0.00     0.401 C 
HETATM   39  O9  UNL     1      -4.223  -6.390  -4.495  1.00  0.00    -0.276 OA
ENDBRANCH  37  38
ENDBRANCH   4  37
TORSDOF 15
ENDMDL
MODEL 2
REMARK VINA RESULT: -8.777556116      3.735      5.693
REMARK  15 active torsions:
REMARK  status: ('A' for Active; 'I' for Inactive)
REMARK       I    between atoms: N1_2  and  C2_3 
REMARK    1  A    between atoms: N1_2  and  C9_18 
REMARK    2  A    between atoms: C2_3  and  C3_5 
REMARK    3  A    between atoms: C3_5  and  O2_6 
REMARK    4  A    between atoms: C3_5  and  N2_8 
REMARK    5  A    between atoms: N2_8  and  C4_10 
REMARK    6  A    between atoms: C6_13  and  C7_14 
REMARK    7  A    between atoms: C11_21  and  O7_22 
REMARK    8  A    between atoms: C11_21  and  O8_24 
REMARK    9  A    between atoms: O8_24  and  C12_25 
REMARK   10  A    between atoms: C13_27  and  O10_28 
REMARK   11  A    between atoms: O10_28  and  C14_29 
REMARK   12  A    between atoms: C14_29  and  C15_31 
REMARK   13  A    between atoms: C15_31  and  N3_32 
REMARK   14  A    between atoms: C15_31  and  C16_36 
REMARK   15  A    between atoms: C16_36  and  C17_37 
ROOT
HETATM    1  C9  UNL     1      -3.629  -1.390  -3.298  1.00  0.00     0.260 C 
HETATM    2  O6  UNL     1      -4.948  -1.700  -3.169  1.00  0.00    -0.358 OA
HETATM    3  C10 UNL     1      -5.144  -3.057  -3.240  1.00  0.00     0.242 C 
HETATM    4  C11 UNL     1      -3.832  -3.740  -3.382  1.00  0.00     0.223 C 
HETATM    5  C13 UNL     1      -2.803  -2.648  -3.272  1.00  0.00     0.245 C 
ENDROOT
BRANCH   1   6
HETATM    6  N1  UNL     1      -3.446  -0.680  -4.582  1.00  0.00    -0.324 N 
HETATM    7  C1  UNL     1      -4.232  -1.069  -5.712  1.00  0.00     0.155 C 
HETATM    8  C2  UNL     1      -2.518   0.360  -4.614  1.00  0.00     0.270 C 
HETATM    9  O1  UNL     1      -1.893   0.641  -3.519  1.00  0.00    -0.268 OA
BRANCH   8  10
HETATM   10  C3  UNL     1      -2.187   1.181  -5.793  1.00  0.00     0.308 C 
BRANCH  10  11
HETATM   11  O2  UNL     1      -3.090   2.313  -5.696  1.00  0.00    -0.368 OA
ATOM     12  H2  UNL     1      -2.886   2.835  -6.464  1.00  0.00     0.212 HD
ENDBRANCH  10  11
BRANCH  10  13
HETATM   13  N2  UNL     1      -0.896   1.763  -5.762  1.00  0.00    -0.383 N 
ATOM     14  H2  UNL     1      -0.772   2.593  -5.183  1.00  0.00     0.156 HD
BRANCH  13  15
HETATM   15  C4  UNL     1       0.208   1.301  -6.447  1.00  0.00     0.106 C 
HETATM   16  C5  UNL     1       1.072   2.405  -7.083  1.00  0.00     0.193 C 
HETATM   17  O3  UNL     1       2.004   2.723  -6.100  1.00  0.00    -0.373 OA
HETATM   18  C6  UNL     1       2.461   1.446  -5.745  1.00  0.00     0.224 C 
HETATM   19  C8  UNL     1       1.204   0.690  -5.475  1.00  0.00     0.070 C 
BRANCH  18  20
HETATM   20  C7  UNL     1       3.317   1.533  -4.549  1.00  0.00     0.203 C 
HETATM   21  O4  UNL     1       4.263   2.351  -4.554  1.00  0.00    -0.646 OA
HETATM   22  O5  UNL     1       3.063   0.726  -3.467  1.00  0.00    -0.646 OA
ENDBRANCH  18  20
ENDBRANCH  13  15
ENDBRANCH  10  13
ENDBRANCH   8  10
ENDBRANCH   1   6
BRANCH   5  23
HETATM   23  O10 UNL     1      -2.010  -2.765  -2.117  1.00  0.00    -0.304 OA
BRANCH  23  24
HETATM   24  C14 UNL     1      -2.248  -2.216  -0.894  1.00  0.00     0.290 C 
HETATM   25  O11 UNL     1      -1.828  -1.020  -0.722  1.00  0.00    -0.263 OA
BRANCH  24  26
HETATM   26  C15 UNL     1      -2.935  -2.863   0.226  1.00  0.00     0.292 C 
BRANCH  26  27
HETATM   27  N3  UNL     1      -2.469  -4.253   0.286  1.00  0.00    -0.065 N 
ATOM     28  H33 UNL     1      -3.206  -4.928   0.088  1.00  0.00     0.275 HD
ATOM     29  H32 UNL     1      -1.851  -4.498  -0.488  1.00  0.00     0.275 HD
ATOM     30  H31 UNL     1      -2.036  -4.392   1.200  1.00  0.00     0.275 HD
ENDBRANCH  26  27
BRANCH  26  31
HETATM   31  C16 UNL     1      -2.651  -2.246   1.553  1.00  0.00     0.156 C 
BRANCH  31  32
HETATM   32  C17 UNL     1      -2.349  -3.248   2.604  1.00  0.00     0.175 C 
HETATM   33  O12 UNL     1      -3.318  -3.683   3.280  1.00  0.00    -0.648 OA
HETATM   34  O13 UNL     1      -1.091  -3.735   2.891  1.00  0.00    -0.648 OA
ENDBRANCH  31  32
ENDBRANCH  26  31
ENDBRANCH  24  26
ENDBRANCH  23  24
ENDBRANCH   5  23
BRANCH   4  35
HETATM   35  O7  UNL     1      -3.712  -4.659  -2.320  1.00  0.00    -0.361 OA
ATOM     36  H7  UNL     1      -3.478  -4.170  -1.540  1.00  0.00     0.213 HD
ENDBRANCH   4  35
BRANCH   4  37
HETATM   37  O8  UNL     1      -3.650  -4.400  -4.624  1.00  0.00    -0.285 OA
BRANCH  37  38
HETATM   38  C12 UNL     1      -4.369  -5.510  -4.998  1.00  0.00     0.401 C 
HETATM   39  O9  UNL     1      -4.152  -6.594  -4.411  1.00  0.00    -0.276 OA
ENDBRANCH  37  38
ENDBRANCH   4  37
TORSDOF 15
ENDMDL
MODEL 3
REMARK VINA RESULT: -8.671023134      4.204      6.491
REMARK  15 active torsions:
REMARK  status: ('A' for Active; 'I' for Inactive)
REMARK       I    between atoms: N1_2  and  C2_3 
REMARK    1  A    between atoms: N1_2  and  C9_18 
REMARK    2  A    between atoms: C2_3  and  C3_5 
REMARK    3  A    between atoms: C3_5  and  O2_6 
REMARK    4  A    between atoms: C3_5  and  N2_8 
REMARK    5  A    between atoms: N2_8  and  C4_10 
REMARK    6  A    between atoms: C6_13  and  C7_14 
REMARK    7  A    between atoms: C11_21  and  O7_22 
REMARK    8  A    between atoms: C11_21  and  O8_24 
REMARK    9  A    between atoms: O8_24  and  C12_25 
REMARK   10  A    between atoms: C13_27  and  O10_28 
REMARK   11  A    between atoms: O10_28  and  C14_29 
REMARK   12  A    between atoms: C14_29  and  C15_31 
REMARK   13  A    between atoms: C15_31  and  N3_32 
REMARK   14  A    between atoms: C15_31  and  C16_36 
REMARK   15  A    between atoms: C16_36  and  C17_37 
ROOT
HETATM    1  C9  UNL     1      -3.840  -1.524  -2.821  1.00  0.00     0.260 C 
HETATM    2  O6  UNL     1      -5.130  -1.089  -2.840  1.00  0.00    -0.358 OA
HETATM    3  C10 UNL     1      -5.994  -2.124  -3.097  1.00  0.00     0.242 C 
HETATM    4  C11 UNL     1      -5.227  -3.391  -3.217  1.00  0.00     0.223 C 
HETATM    5  C13 UNL     1      -3.806  -3.026  -2.888  1.00  0.00     0.245 C 
ENDROOT
BRANCH   1   6
HETATM    6  N1  UNL     1      -3.140  -0.940  -3.986  1.00  0.00    -0.324 N 
HETATM    7  C1  UNL     1      -3.783  -0.953  -5.264  1.00  0.00     0.155 C 
HETATM    8  C2  UNL     1      -1.881  -0.383  -3.766  1.00  0.00     0.270 C 
HETATM    9  O1  UNL     1      -1.418  -0.401  -2.560  1.00  0.00    -0.268 OA
BRANCH   8  10
HETATM   10  C3  UNL     1      -1.024   0.238  -4.793  1.00  0.00     0.308 C 
BRANCH  10  11
HETATM   11  O2  UNL     1      -1.264   1.660  -4.635  1.00  0.00    -0.368 OA
ATOM     12  H2  UNL     1      -1.355   1.977  -5.526  1.00  0.00     0.212 HD
ENDBRANCH  10  11
BRANCH  10  13
HETATM   13  N2  UNL     1       0.367   0.092  -4.565  1.00  0.00    -0.383 N 
ATOM     14  H2  UNL     1       0.728  -0.858  -4.481  1.00  0.00     0.156 HD
BRANCH  13  15
HETATM   15  C4  UNL     1       1.273   1.125  -4.448  1.00  0.00     0.106 C 
HETATM   16  C5  UNL     1       2.525   0.784  -3.621  1.00  0.00     0.193 C 
HETATM   17  O3  UNL     1       3.433   0.296  -4.555  1.00  0.00    -0.373 OA
HETATM   18  C6  UNL     1       3.364   1.292  -5.539  1.00  0.00     0.224 C 
HETATM   19  C8  UNL     1       1.900   1.420  -5.801  1.00  0.00     0.070 C 
BRANCH  18  20
HETATM   20  C7  UNL     1       4.101   0.863  -6.740  1.00  0.00     0.203 C 
HETATM   21  O4  UNL     1       5.338   1.043  -6.774  1.00  0.00    -0.646 OA
HETATM   22  O5  UNL     1       3.425   0.283  -7.786  1.00  0.00    -0.646 OA
ENDBRANCH  18  20
ENDBRANCH  13  15
ENDBRANCH  10  13
ENDBRANCH   8  10
ENDBRANCH   1   6
BRANCH   5  23
HETATM   23  O10 UNL     1      -3.356  -3.623  -1.696  1.00  0.00    -0.304 OA
BRANCH  23  24
HETATM   24  C14 UNL     1      -2.188  -3.377  -1.041  1.00  0.00     0.290 C 
HETATM   25  O11 UNL     1      -1.115  -3.663  -1.677  1.00  0.00    -0.263 OA
BRANCH  24  26
HETATM   26  C15 UNL     1      -2.052  -2.822   0.308  1.00  0.00     0.292 C 
BRANCH  26  27
HETATM   27  N3  UNL     1      -2.596  -1.460   0.281  1.00  0.00    -0.065 N 
ATOM     28  H33 UNL     1      -3.161  -1.273  -0.547  1.00  0.00     0.275 HD
ATOM     29  H32 UNL     1      -3.327  -1.311   0.977  1.00  0.00     0.275 HD
ATOM     30  H31 UNL     1      -1.813  -0.815   0.382  1.00  0.00     0.275 HD
ENDBRANCH  26  27
BRANCH  26  31
HETATM   31  C16 UNL     1      -2.799  -3.575   1.354  1.00  0.00     0.156 C 
BRANCH  31  32
HETATM   32  C17 UNL     1      -2.606  -3.018   2.715  1.00  0.00     0.175 C 
HETATM   33  O12 UNL     1      -1.912  -3.692   3.520  1.00  0.00    -0.648 OA
HETATM   34  O13 UNL     1      -3.130  -1.822   3.159  1.00  0.00    -0.648 OA
ENDBRANCH  31  32
ENDBRANCH  26  31
ENDBRANCH  24  26
ENDBRANCH  23  24
ENDBRANCH   5  23
BRANCH   4  35
HETATM   35  O7  UNL     1      -5.752  -4.298  -2.275  1.00  0.00    -0.361 OA
ATOM     36  H7  UNL     1      -5.044  -4.867  -1.998  1.00  0.00     0.213 HD
ENDBRANCH   4  35
BRANCH   4  37
HETATM   37  O8  UNL     1      -5.251  -3.965  -4.514  1.00  0.00    -0.285 OA
BRANCH  37  38
HETATM   38  C12 UNL     1      -5.342  -5.319  -4.736  1.00  0.00     0.401 C 
HETATM   39  O9  UNL     1      -4.376  -6.047  -4.415  1.00  0.00    -0.276 OA
ENDBRANCH  37  38
ENDBRANCH   4  37
TORSDOF 15
ENDMDL
MODEL 4
REMARK VINA RESULT: -8.592332945      4.755      7.633
REMARK  15 active torsions:
REMARK  status: ('A' for Active; 'I' for Inactive)
REMARK       I    between atoms: N1_2  and  C2_3 
REMARK    1  A    between atoms: N1_2  and  C9_18 
REMARK    2  A    between atoms: C2_3  and  C3_5 
REMARK    3  A    between atoms: C3_5  and  O2_6 
REMARK    4  A    between atoms: C3_5  and  N2_8 
REMARK    5  A    between atoms: N2_8  and  C4_10 
REMARK    6  A    between atoms: C6_13  and  C7_14 
REMARK    7  A    between atoms: C11_21  and  O7_22 
REMARK    8  A    between atoms: C11_21  and  O8_24 
REMARK    9  A    between atoms: O8_24  and  C12_25 
REMARK   10  A    between atoms: C13_27  and  O10_28 
REMARK   11  A    between atoms: O10_28  and  C14_29 
REMARK   12  A    between atoms: C14_29  and  C15_31 
REMARK   13  A    between atoms: C15_31  and  N3_32 
REMARK   14  A    between atoms: C15_31  and  C16_36 
REMARK   15  A    between atoms: C16_36  and  C17_37 
ROOT
HETATM    1  C9  UNL     1      -1.747  -1.922  -2.808  1.00  0.00     0.260 C 
HETATM    2  O6  UNL     1      -1.607  -1.565  -1.502  1.00  0.00    -0.358 OA
HETATM    3  C10 UNL     1      -2.799  -1.676  -0.831  1.00  0.00     0.242 C 
HETATM    4  C11 UNL     1      -3.839  -2.203  -1.752  1.00  0.00     0.223 C 
HETATM    5  C13 UNL     1      -3.114  -2.511  -3.033  1.00  0.00     0.245 C 
ENDROOT
BRANCH   1   6
HETATM    6  N1  UNL     1      -1.565  -0.712  -3.639  1.00  0.00    -0.324 N 
HETATM    7  C1  UNL     1      -2.583  -0.350  -4.577  1.00  0.00     0.155 C 
HETATM    8  C2  UNL     1      -0.402   0.032  -3.444  1.00  0.00     0.270 C 
HETATM    9  O1  UNL     1       0.429  -0.377  -2.544  1.00  0.00    -0.268 OA
BRANCH   8  10
HETATM   10  C3  UNL     1      -0.034   1.260  -4.174  1.00  0.00     0.308 C 
BRANCH  10  11
HETATM   11  O2  UNL     1       0.357   2.185  -3.127  1.00  0.00    -0.368 OA
ATOM     12  H2  UNL     1       0.242   3.041  -3.524  1.00  0.00     0.212 HD
ENDBRANCH  10  11
BRANCH  10  13
HETATM   13  N2  UNL     1       1.123   1.139  -4.982  1.00  0.00    -0.383 N 
ATOM     14  H2  UNL     1       1.978   1.577  -4.641  1.00  0.00     0.156 HD
BRANCH  13  15
HETATM   15  C4  UNL     1       1.191   0.479  -6.191  1.00  0.00     0.106 C 
HETATM   16  C5  UNL     1       1.053   1.391  -7.424  1.00  0.00     0.193 C 
HETATM   17  O3  UNL     1       2.360   1.762  -7.726  1.00  0.00    -0.373 OA
HETATM   18  C6  UNL     1       3.000   0.515  -7.713  1.00  0.00     0.224 C 
HETATM   19  C8  UNL     1       2.591  -0.072  -6.403  1.00  0.00     0.070 C 
BRANCH  18  20
HETATM   20  C7  UNL     1       4.459   0.698  -7.801  1.00  0.00     0.203 C 
HETATM   21  O4  UNL     1       5.142   0.528  -6.767  1.00  0.00    -0.646 OA
HETATM   22  O5  UNL     1       5.033   1.048  -9.000  1.00  0.00    -0.646 OA
ENDBRANCH  18  20
ENDBRANCH  13  15
ENDBRANCH  10  13
ENDBRANCH   8  10
ENDBRANCH   1   6
BRANCH   5  23
HETATM   23  O10 UNL     1      -3.082  -3.888  -3.320  1.00  0.00    -0.304 OA
BRANCH  23  24
HETATM   24  C14 UNL     1      -3.758  -4.540  -4.306  1.00  0.00     0.290 C 
HETATM   25  O11 UNL     1      -3.310  -4.384  -5.494  1.00  0.00    -0.263 OA
BRANCH  24  26
HETATM   26  C15 UNL     1      -4.935  -5.393  -4.129  1.00  0.00     0.292 C 
BRANCH  26  27
HETATM   27  N3  UNL     1      -4.912  -5.898  -2.752  1.00  0.00    -0.065 N 
ATOM     28  H33 UNL     1      -4.640  -6.879  -2.693  1.00  0.00     0.275 HD
ATOM     29  H32 UNL     1      -4.145  -5.513  -2.200  1.00  0.00     0.275 HD
ATOM     30  H31 UNL     1      -5.828  -5.714  -2.342  1.00  0.00     0.275 HD
ENDBRANCH  26  27
BRANCH  26  31
HETATM   31  C16 UNL     1      -6.233  -4.686  -4.317  1.00  0.00     0.156 C 
BRANCH  31  32
HETATM   32  C17 UNL     1      -7.131  -4.804  -3.142  1.00  0.00     0.175 C 
HETATM   33  O12 UNL     1      -7.961  -5.750  -3.145  1.00  0.00    -0.648 OA
HETATM   34  O13 UNL     1      -7.121  -3.956  -2.054  1.00  0.00    -0.648 OA
ENDBRANCH  31  32
ENDBRANCH  26  31
ENDBRANCH  24  26
ENDBRANCH  23  24
ENDBRANCH   5  23
BRANCH   4  35
HETATM   35  O7  UNL     1      -4.368  -3.374  -1.173  1.00  0.00    -0.361 OA
ATOM     36  H7  UNL     1      -4.610  -3.168  -0.277  1.00  0.00     0.213 HD
ENDBRANCH   4  35
BRANCH   4  37
HETATM   37  O8  UNL     1      -4.882  -1.286  -2.039  1.00  0.00    -0.285 OA
BRANCH  37  38
HETATM   38  C12 UNL     1      -5.566  -1.274  -3.232  1.00  0.00     0.401 C 
HETATM   39  O9  UNL     1      -6.690  -0.723  -3.275  1.00  0.00    -0.276 OA
ENDBRANCH  37  38
ENDBRANCH   4  37
TORSDOF 15
ENDMDL
MODEL 5
REMARK VINA RESULT: -8.572865843      2.094      3.173
REMARK  15 active torsions:
REMARK  status: ('A' for Active; 'I' for Inactive)
REMARK       I    between atoms: N1_2  and  C2_3 
REMARK    1  A    between atoms: N1_2  and  C9_18 
REMARK    2  A    between atoms: C2_3  and  C3_5 
REMARK    3  A    between atoms: C3_5  and  O2_6 
REMARK    4  A    between atoms: C3_5  and  N2_8 
REMARK    5  A    between atoms: N2_8  and  C4_10 
REMARK    6  A    between atoms: C6_13  and  C7_14 
REMARK    7  A    between atoms: C11_21  and  O7_22 
REMARK    8  A    between atoms: C11_21  and  O8_24 
REMARK    9  A    between atoms: O8_24  and  C12_25 
REMARK   10  A    between atoms: C13_27  and  O10_28 
REMARK   11  A    between atoms: O10_28  and  C14_29 
REMARK   12  A    between atoms: C14_29  and  C15_31 
REMARK   13  A    between atoms: C15_31  and  N3_32 
REMARK   14  A    between atoms: C15_31  and  C16_36 
REMARK   15  A    between atoms: C16_36  and  C17_37 
ROOT
HETATM    1  C9  UNL     1      -4.953  -1.664  -2.713  1.00  0.00     0.260 C 
HETATM    2  O6  UNL     1      -5.990  -2.347  -2.157  1.00  0.00    -0.358 OA
HETATM    3  C10 UNL     1      -5.860  -3.697  -2.371  1.00  0.00     0.242 C 
HETATM    4  C11 UNL     1      -4.592  -3.964  -3.098  1.00  0.00     0.223 C 
HETATM    5  C13 UNL     1      -3.907  -2.629  -3.201  1.00  0.00     0.245 C 
ENDROOT
BRANCH   1   6
HETATM    6  N1  UNL     1      -5.480  -0.863  -3.839  1.00  0.00    -0.324 N 
HETATM    7  C1  UNL     1      -5.204  -1.280  -5.180  1.00  0.00     0.155 C 
HETATM    8  C2  UNL     1      -6.245   0.260  -3.527  1.00  0.00     0.270 C 
HETATM    9  O1  UNL     1      -6.453   0.516  -2.278  1.00  0.00    -0.268 OA
BRANCH   8  10
HETATM   10  C3  UNL     1      -6.850   1.187  -4.501  1.00  0.00     0.308 C 
BRANCH  10  11
HETATM   11  O2  UNL     1      -7.806   1.945  -3.716  1.00  0.00    -0.368 OA
ATOM     12  H2  UNL     1      -7.868   2.776  -4.172  1.00  0.00     0.212 HD
ENDBRANCH  10  11
BRANCH  10  13
HETATM   13  N2  UNL     1      -5.963   2.166  -5.011  1.00  0.00    -0.383 N 
ATOM     14  H2  UNL     1      -5.209   2.476  -4.399  1.00  0.00     0.156 HD
BRANCH  13  15
HETATM   15  C4  UNL     1      -6.033   2.735  -6.266  1.00  0.00     0.106 C 
HETATM   16  C5  UNL     1      -5.029   3.878  -6.504  1.00  0.00     0.193 C 
HETATM   17  O3  UNL     1      -3.902   3.245  -7.020  1.00  0.00    -0.373 OA
HETATM   18  C6  UNL     1      -4.478   2.456  -8.025  1.00  0.00     0.224 C 
HETATM   19  C8  UNL     1      -5.575   1.735  -7.315  1.00  0.00     0.070 C 
BRANCH  18  20
HETATM   20  C7  UNL     1      -3.474   1.526  -8.570  1.00  0.00     0.203 C 
HETATM   21  O4  UNL     1      -3.009   0.644  -7.814  1.00  0.00    -0.646 OA
HETATM   22  O5  UNL     1      -3.074   1.642  -9.879  1.00  0.00    -0.646 OA
ENDBRANCH  18  20
ENDBRANCH  13  15
ENDBRANCH  10  13
ENDBRANCH   8  10
ENDBRANCH   1   6
BRANCH   5  23
HETATM   23  O10 UNL     1      -2.714  -2.574  -2.457  1.00  0.00    -0.304 OA
BRANCH  23  24
HETATM   24  C14 UNL     1      -2.567  -2.174  -1.164  1.00  0.00     0.290 C 
HETATM   25  O11 UNL     1      -2.000  -1.041  -0.987  1.00  0.00    -0.263 OA
BRANCH  24  26
HETATM   26  C15 UNL     1      -2.994  -2.915   0.025  1.00  0.00     0.292 C 
BRANCH  26  27
HETATM   27  N3  UNL     1      -2.313  -4.214   0.003  1.00  0.00    -0.065 N 
ATOM     28  H33 UNL     1      -2.582  -4.791  -0.793  1.00  0.00     0.275 HD
ATOM     29  H32 UNL     1      -1.319  -4.139  -0.216  1.00  0.00     0.275 HD
ATOM     30  H31 UNL     1      -2.489  -4.668   0.900  1.00  0.00     0.275 HD
ENDBRANCH  26  27
BRANCH  26  31
HETATM   31  C16 UNL     1      -2.641  -2.255   1.313  1.00  0.00     0.156 C 
BRANCH  31  32
HETATM   32  C17 UNL     1      -2.399  -3.222   2.411  1.00  0.00     0.175 C 
HETATM   33  O12 UNL     1      -3.405  -3.649   3.035  1.00  0.00    -0.648 OA
HETATM   34  O13 UNL     1      -1.156  -3.684   2.795  1.00  0.00    -0.648 OA
ENDBRANCH  31  32
ENDBRANCH  26  31
ENDBRANCH  24  26
ENDBRANCH  23  24
ENDBRANCH   5  23
BRANCH   4  35
HETATM   35  O7  UNL     1      -3.837  -4.865  -2.321  1.00  0.00    -0.361 OA
ATOM     36  H7  UNL     1      -2.920  -4.718  -2.520  1.00  0.00     0.213 HD
ENDBRANCH   4  35
BRANCH   4  37
HETATM   37  O8  UNL     1      -4.769  -4.476  -4.408  1.00  0.00    -0.285 OA
BRANCH  37  38
HETATM   38  C12 UNL     1      -5.089  -5.788  -4.666  1.00  0.00     0.401 C 
HETATM   39  O9  UNL     1      -4.304  -6.685  -4.284  1.00  0.00    -0.276 OA
ENDBRANCH  37  38
ENDBRANCH   4  37
TORSDOF 15
ENDMDL
