MODEL 1
REMARK VINA RESULT: -8.348025442      0.000      0.000
REMARK  12 active torsions:
REMARK  status: ('A' for Active; 'I' for Inactive)
REMARK    1  A    between atoms: O1_1  and  N1_3 
REMARK    2  A    between atoms: C1_5  and  N3_6 
REMARK    3  A    between atoms: N3_6  and  O2_7 
REMARK    4  A    between atoms: O2_7  and  C2_8 
REMARK    5  A    between atoms: C2_8  and  C3_9 
REMARK    6  A    between atoms: C3_9  and  O3_10 
REMARK    7  A    between atoms: O3_10  and  C4_11 
REMARK    8  A    between atoms: C4_11  and  C5_12 
REMARK    9  A    between atoms: C5_12  and  N4_13 
REMARK       I    between atoms: N4_13  and  C6_15 
REMARK   10  A    between atoms: C6_15  and  C7_17 
REMARK   11  A    between atoms: C7_17  and  C8_18 
REMARK   12  A    between atoms: C8_18  and  N5_19 
ROOT
HETATM    1  N4  UNL     1       3.723   0.560  -6.080  1.00  0.00    -0.359 N 
ATOM      2  H4  UNL     1       3.331  -0.027  -6.816  1.00  0.00     0.162 HD
HETATM    3  C6  UNL     1       2.978   0.743  -4.831  1.00  0.00     0.222 C 
HETATM    4  O4  UNL     1       3.571   1.489  -4.024  1.00  0.00    -0.273 OA
ENDROOT
BRANCH   3   5
HETATM    5  C7  UNL     1       1.702   0.073  -4.682  1.00  0.00     0.147 C 
BRANCH   5   6
HETATM    6  C8  UNL     1       0.630   0.685  -3.885  1.00  0.00     0.067 C 
BRANCH   6   7
HETATM    7  N5  UNL     1      -0.543  -0.032  -3.717  1.00  0.00    -0.391 N 
HETATM    8  C9  UNL     1      -0.654  -1.339  -3.285  1.00  0.00     0.123 C 
HETATM    9  C10 UNL     1      -2.058  -1.571  -2.706  1.00  0.00     0.047 C 
HETATM   10  C11 UNL     1      -2.179  -3.013  -2.224  1.00  0.00     0.234 C 
HETATM   11  N6  UNL     1      -3.459  -3.237  -1.584  1.00  0.00    -0.074 N 
HETATM   12  C12 UNL     1      -4.462  -3.517  -2.565  1.00  0.00     0.251 C 
ATOM     13  H62 UNL     1      -3.406  -3.967  -0.874  1.00  0.00     0.277 HD
ATOM     14  H61 UNL     1      -3.724  -2.458  -0.981  1.00  0.00     0.277 HD
HETATM   15  C13 UNL     1      -5.647  -2.579  -2.479  1.00  0.00     0.141 C 
HETATM   16  N7  UNL     1      -5.967  -1.979  -3.744  1.00  0.00    -0.420 N 
HETATM   17  C14 UNL     1      -5.920  -0.549  -3.764  1.00  0.00     0.115 C 
ATOM     18  H7  UNL     1      -6.209  -2.531  -4.567  1.00  0.00     0.153 HD
HETATM   19  C15 UNL     1      -5.200  -0.082  -5.029  1.00  0.00     0.038 C 
HETATM   20  C16 UNL     1      -4.534   1.259  -4.821  1.00  0.00     0.115 C 
HETATM   21  N8  UNL     1      -3.364   1.459  -5.601  1.00  0.00    -0.420 N 
HETATM   22  C17 UNL     1      -2.226   0.665  -5.269  1.00  0.00     0.133 C 
ATOM     23  H8  UNL     1      -3.338   2.137  -6.361  1.00  0.00     0.153 HD
HETATM   24  C18 UNL     1      -1.756   0.745  -3.858  1.00  0.00     0.141 C 
ENDBRANCH   6   7
ENDBRANCH   5   6
ENDBRANCH   3   5
BRANCH   1  25
HETATM   25  C5  UNL     1       4.995   1.192  -6.286  1.00  0.00     0.148 C 
BRANCH  25  26
HETATM   26  C4  UNL     1       5.759   0.392  -7.353  1.00  0.00     0.187 C 
BRANCH  26  27
HETATM   27  O3  UNL     1       5.583   1.049  -8.529  1.00  0.00    -0.387 OA
BRANCH  27  28
HETATM   28  C3  UNL     1       5.198   0.355  -9.631  1.00  0.00     0.195 C 
BRANCH  28  29
HETATM   29  C2  UNL     1       3.753   0.089  -9.822  1.00  0.00     0.222 C 
BRANCH  29  30
HETATM   30  O2  UNL     1       2.890   0.946  -9.161  1.00  0.00    -0.281 OA
BRANCH  30  31
HETATM   31  N3  UNL     1       1.919   0.295  -8.514  1.00  0.00    -0.049 NA
BRANCH  31  32
HETATM   32  C1  UNL     1       0.856   1.152  -8.043  1.00  0.00     0.360 C 
HETATM   33  N2  UNL     1       1.424   2.453  -7.749  1.00  0.00    -0.057 NA
HETATM   34  N1  UNL     1       0.514   3.483  -8.032  1.00  0.00    -0.126 N 
HETATM   35  C20 UNL     1      -0.851   3.243  -8.309  1.00  0.00     0.283 C 
HETATM   36  C19 UNL     1      -1.276   1.857  -8.622  1.00  0.00     0.278 C 
HETATM   37  O6  UNL     1      -1.690   4.167  -8.296  1.00  0.00    -0.267 OA
HETATM   38  O5  UNL     1      -0.108   1.188  -9.037  1.00  0.00    -0.343 OA
BRANCH  34  39
HETATM   39  O1  UNL     1       0.977   4.744  -8.037  1.00  0.00    -0.268 OA
ATOM     40  H1  UNL     1       0.394   5.428  -8.343  1.00  0.00     0.246 HD
ENDBRANCH  34  39
ENDBRANCH  31  32
ENDBRANCH  30  31
ENDBRANCH  29  30
ENDBRANCH  28  29
ENDBRANCH  27  28
ENDBRANCH  26  27
ENDBRANCH  25  26
ENDBRANCH   1  25
TORSDOF 12
ENDMDL
MODEL 2
REMARK VINA RESULT: -8.251699635      0.734      2.588
REMARK  12 active torsions:
REMARK  status: ('A' for Active; 'I' for Inactive)
REMARK    1  A    between atoms: O1_1  and  N1_3 
REMARK    2  A    between atoms: C1_5  and  N3_6 
REMARK    3  A    between atoms: N3_6  and  O2_7 
REMARK    4  A    between atoms: O2_7  and  C2_8 
REMARK    5  A    between atoms: C2_8  and  C3_9 
REMARK    6  A    between atoms: C3_9  and  O3_10 
REMARK    7  A    between atoms: O3_10  and  C4_11 
REMARK    8  A    between atoms: C4_11  and  C5_12 
REMARK    9  A    between atoms: C5_12  and  N4_13 
REMARK       I    between atoms: N4_13  and  C6_15 
REMARK   10  A    between atoms: C6_15  and  C7_17 
REMARK   11  A    between atoms: C7_17  and  C8_18 
REMARK   12  A    between atoms: C8_18  and  N5_19 
ROOT
HETATM    1  N4  UNL     1       3.674   0.451  -6.086  1.00  0.00    -0.359 N 
ATOM      2  H4  UNL     1       3.334  -0.157  -6.831  1.00  0.00     0.162 HD
HETATM    3  C6  UNL     1       2.884   0.599  -4.861  1.00  0.00     0.222 C 
HETATM    4  O4  UNL     1       3.414   1.375  -4.040  1.00  0.00    -0.273 OA
ENDROOT
BRANCH   3   5
HETATM    5  C7  UNL     1       1.639  -0.135  -4.748  1.00  0.00     0.147 C 
BRANCH   5   6
HETATM    6  C8  UNL     1       0.847  -0.068  -3.512  1.00  0.00     0.067 C 
BRANCH   6   7
HETATM    7  N5  UNL     1      -0.526   0.066  -3.627  1.00  0.00    -0.391 N 
HETATM    8  C9  UNL     1      -1.212   1.198  -4.021  1.00  0.00     0.123 C 
HETATM    9  C10 UNL     1      -2.598   0.799  -4.552  1.00  0.00     0.047 C 
HETATM   10  C11 UNL     1      -3.354   2.049  -4.992  1.00  0.00     0.234 C 
HETATM   11  N6  UNL     1      -4.626   1.698  -5.589  1.00  0.00    -0.074 N 
HETATM   12  C12 UNL     1      -5.614   1.500  -4.572  1.00  0.00     0.251 C 
ATOM     13  H62 UNL     1      -4.924   2.386  -6.281  1.00  0.00     0.277 HD
ATOM     14  H61 UNL     1      -4.547   0.890  -6.205  1.00  0.00     0.277 HD
HETATM   15  C13 UNL     1      -6.272   0.140  -4.650  1.00  0.00     0.141 C 
HETATM   16  N7  UNL     1      -6.250  -0.554  -3.392  1.00  0.00    -0.420 N 
HETATM   17  C14 UNL     1      -5.583  -1.820  -3.413  1.00  0.00     0.115 C 
ATOM     18  H7  UNL     1      -6.679  -0.174  -2.549  1.00  0.00     0.153 HD
HETATM   19  C15 UNL     1      -4.685  -1.940  -2.181  1.00  0.00     0.038 C 
HETATM   20  C16 UNL     1      -3.509  -2.853  -2.445  1.00  0.00     0.115 C 
HETATM   21  N8  UNL     1      -2.340  -2.529  -1.704  1.00  0.00    -0.420 N 
HETATM   22  C17 UNL     1      -1.677  -1.314  -2.047  1.00  0.00     0.133 C 
ATOM     23  H8  UNL     1      -1.993  -3.137  -0.963  1.00  0.00     0.153 HD
HETATM   24  C18 UNL     1      -1.272  -1.164  -3.472  1.00  0.00     0.141 C 
ENDBRANCH   6   7
ENDBRANCH   5   6
ENDBRANCH   3   5
BRANCH   1  25
HETATM   25  C5  UNL     1       4.918   1.145  -6.257  1.00  0.00     0.148 C 
BRANCH  25  26
HETATM   26  C4  UNL     1       5.743   0.396  -7.316  1.00  0.00     0.187 C 
BRANCH  26  27
HETATM   27  O3  UNL     1       5.624   1.103  -8.470  1.00  0.00    -0.387 OA
BRANCH  27  28
HETATM   28  C3  UNL     1       5.257   0.463  -9.611  1.00  0.00     0.195 C 
BRANCH  28  29
HETATM   29  C2  UNL     1       3.825   0.129  -9.796  1.00  0.00     0.222 C 
BRANCH  29  30
HETATM   30  O2  UNL     1       2.924   0.949  -9.138  1.00  0.00    -0.281 OA
BRANCH  30  31
HETATM   31  N3  UNL     1       1.863   0.279  -8.680  1.00  0.00    -0.049 NA
BRANCH  31  32
HETATM   32  C1  UNL     1       0.876   1.117  -8.040  1.00  0.00     0.360 C 
HETATM   33  N2  UNL     1       1.463   2.426  -7.832  1.00  0.00    -0.057 NA
HETATM   34  N1  UNL     1       0.504   3.442  -7.961  1.00  0.00    -0.126 N 
HETATM   35  C20 UNL     1      -0.883   3.181  -8.019  1.00  0.00     0.283 C 
HETATM   36  C19 UNL     1      -1.332   1.790  -8.270  1.00  0.00     0.278 C 
HETATM   37  O6  UNL     1      -1.724   4.092  -7.868  1.00  0.00    -0.267 OA
HETATM   38  O5  UNL     1      -0.234   1.141  -8.869  1.00  0.00    -0.343 OA
BRANCH  34  39
HETATM   39  O1  UNL     1       0.942   4.710  -8.031  1.00  0.00    -0.268 OA
ATOM     40  H1  UNL     1       0.512   5.293  -8.646  1.00  0.00     0.246 HD
ENDBRANCH  34  39
ENDBRANCH  31  32
ENDBRANCH  30  31
ENDBRANCH  29  30
ENDBRANCH  28  29
ENDBRANCH  27  28
ENDBRANCH  26  27
ENDBRANCH  25  26
ENDBRANCH   1  25
TORSDOF 12
ENDMDL
MODEL 3
REMARK VINA RESULT: -8.174565581      1.625      3.562
REMARK  12 active torsions:
REMARK  status: ('A' for Active; 'I' for Inactive)
REMARK    1  A    between atoms: O1_1  and  N1_3 
REMARK    2  A    between atoms: C1_5  and  N3_6 
REMARK    3  A    between atoms: N3_6  and  O2_7 
REMARK    4  A    between atoms: O2_7  and  C2_8 
REMARK    5  A    between atoms: C2_8  and  C3_9 
REMARK    6  A    between atoms: C3_9  and  O3_10 
REMARK    7  A    between atoms: O3_10  and  C4_11 
REMARK    8  A    between atoms: C4_11  and  C5_12 
REMARK    9  A    between atoms: C5_12  and  N4_13 
REMARK       I    between atoms: N4_13  and  C6_15 
REMARK   10  A    between atoms: C6_15  and  C7_17 
REMARK   11  A    between atoms: C7_17  and  C8_18 
REMARK   12  A    between atoms: C8_18  and  N5_19 
ROOT
HETATM    1  N4  UNL     1       1.196   1.102  -8.367  1.00  0.00    -0.359 N 
ATOM      2  H4  UNL     1       0.968   0.280  -7.808  1.00  0.00     0.162 HD
HETATM    3  C6  UNL     1       0.789   2.428  -7.894  1.00  0.00     0.222 C 
HETATM    4  O4  UNL     1       1.127   3.341  -8.676  1.00  0.00    -0.273 OA
ENDROOT
BRANCH   3   5
HETATM    5  C7  UNL     1       0.076   2.526  -6.636  1.00  0.00     0.147 C 
BRANCH   5   6
HETATM    6  C8  UNL     1      -1.362   2.231  -6.572  1.00  0.00     0.067 C 
BRANCH   6   7
HETATM    7  N5  UNL     1      -1.786   1.256  -5.685  1.00  0.00    -0.391 N 
HETATM    8  C9  UNL     1      -0.982   0.420  -4.936  1.00  0.00     0.123 C 
HETATM    9  C10 UNL     1      -1.767  -0.090  -3.717  1.00  0.00     0.047 C 
HETATM   10  C11 UNL     1      -0.877  -1.010  -2.887  1.00  0.00     0.234 C 
HETATM   11  N6  UNL     1      -1.556  -1.430  -1.678  1.00  0.00    -0.074 N 
HETATM   12  C12 UNL     1      -2.403  -2.551  -1.949  1.00  0.00     0.251 C 
ATOM     13  H62 UNL     1      -0.901  -1.622  -0.920  1.00  0.00     0.277 HD
ATOM     14  H61 UNL     1      -2.068  -0.663  -1.243  1.00  0.00     0.277 HD
HETATM   15  C13 UNL     1      -3.842  -2.311  -1.548  1.00  0.00     0.141 C 
HETATM   16  N7  UNL     1      -4.765  -2.601  -2.610  1.00  0.00    -0.420 N 
HETATM   17  C14 UNL     1      -5.586  -1.500  -3.014  1.00  0.00     0.115 C 
ATOM     18  H7  UNL     1      -4.831  -3.521  -3.043  1.00  0.00     0.153 HD
HETATM   19  C15 UNL     1      -5.638  -1.439  -4.541  1.00  0.00     0.038 C 
HETATM   20  C16 UNL     1      -5.877  -0.028  -5.027  1.00  0.00     0.115 C 
HETATM   21  N8  UNL     1      -5.302   0.259  -6.294  1.00  0.00    -0.420 N 
HETATM   22  C17 UNL     1      -3.878   0.309  -6.359  1.00  0.00     0.133 C 
ATOM     23  H8  UNL     1      -5.880   0.422  -7.118  1.00  0.00     0.153 HD
HETATM   24  C18 UNL     1      -3.208   1.252  -5.420  1.00  0.00     0.141 C 
ENDBRANCH   6   7
ENDBRANCH   5   6
ENDBRANCH   3   5
BRANCH   1  25
HETATM   25  C5  UNL     1       1.910   0.940  -9.600  1.00  0.00     0.148 C 
BRANCH  25  26
HETATM   26  C4  UNL     1       2.474  -0.489  -9.643  1.00  0.00     0.187 C 
BRANCH  26  27
HETATM   27  O3  UNL     1       3.704  -0.403 -10.212  1.00  0.00    -0.387 OA
BRANCH  27  28
HETATM   28  C3  UNL     1       4.542   0.601  -9.845  1.00  0.00     0.195 C 
BRANCH  28  29
HETATM   29  C2  UNL     1       5.639   0.287  -8.900  1.00  0.00     0.222 C 
BRANCH  29  30
HETATM   30  O2  UNL     1       5.629   0.992  -7.708  1.00  0.00    -0.281 OA
BRANCH  30  31
HETATM   31  N3  UNL     1       4.401   1.382  -7.354  1.00  0.00    -0.049 NA
BRANCH  31  32
HETATM   32  C1  UNL     1       4.078   1.107  -5.974  1.00  0.00     0.360 C 
HETATM   33  N2  UNL     1       3.994   2.373  -5.271  1.00  0.00    -0.057 NA
HETATM   34  N1  UNL     1       3.017   2.333  -4.265  1.00  0.00    -0.126 N 
HETATM   35  C20 UNL     1       2.403   1.133  -3.841  1.00  0.00     0.283 C 
HETATM   36  C19 UNL     1       2.555  -0.076  -4.686  1.00  0.00     0.278 C 
HETATM   37  O6  UNL     1       1.743   1.078  -2.783  1.00  0.00    -0.267 OA
HETATM   38  O5  UNL     1       2.887   0.399  -5.969  1.00  0.00    -0.343 OA
BRANCH  34  39
HETATM   39  O1  UNL     1       2.661   3.495  -3.693  1.00  0.00    -0.268 OA
ATOM     40  H1  UNL     1       3.075   4.289  -4.008  1.00  0.00     0.246 HD
ENDBRANCH  34  39
ENDBRANCH  31  32
ENDBRANCH  30  31
ENDBRANCH  29  30
ENDBRANCH  28  29
ENDBRANCH  27  28
ENDBRANCH  26  27
ENDBRANCH  25  26
ENDBRANCH   1  25
TORSDOF 12
ENDMDL
MODEL 4
REMARK VINA RESULT: -7.927715133      2.236      4.670
REMARK  12 active torsions:
REMARK  status: ('A' for Active; 'I' for Inactive)
REMARK    1  A    between atoms: O1_1  and  N1_3 
REMARK    2  A    between atoms: C1_5  and  N3_6 
REMARK    3  A    between atoms: N3_6  and  O2_7 
REMARK    4  A    between atoms: O2_7  and  C2_8 
REMARK    5  A    between atoms: C2_8  and  C3_9 
REMARK    6  A    between atoms: C3_9  and  O3_10 
REMARK    7  A    between atoms: O3_10  and  C4_11 
REMARK    8  A    between atoms: C4_11  and  C5_12 
REMARK    9  A    between atoms: C5_12  and  N4_13 
REMARK       I    between atoms: N4_13  and  C6_15 
REMARK   10  A    between atoms: C6_15  and  C7_17 
REMARK   11  A    between atoms: C7_17  and  C8_18 
REMARK   12  A    between atoms: C8_18  and  N5_19 
ROOT
HETATM    1  N4  UNL     1       2.586   0.993  -9.011  1.00  0.00    -0.359 N 
ATOM      2  H4  UNL     1       3.251   1.700  -8.698  1.00  0.00     0.162 HD
HETATM    3  C6  UNL     1       1.152   1.207  -8.798  1.00  0.00     0.222 C 
HETATM    4  O4  UNL     1       0.457   0.262  -9.224  1.00  0.00    -0.273 OA
ENDROOT
BRANCH   3   5
HETATM    5  C7  UNL     1       0.724   2.431  -8.150  1.00  0.00     0.147 C 
BRANCH   5   6
HETATM    6  C8  UNL     1       0.226   2.405  -6.768  1.00  0.00     0.067 C 
BRANCH   6   7
HETATM    7  N5  UNL     1      -1.139   2.287  -6.573  1.00  0.00    -0.391 N 
HETATM    8  C9  UNL     1      -2.094   3.250  -6.831  1.00  0.00     0.123 C 
HETATM    9  C10 UNL     1      -3.463   2.578  -7.023  1.00  0.00     0.047 C 
HETATM   10  C11 UNL     1      -4.516   3.642  -7.314  1.00  0.00     0.234 C 
HETATM   11  N6  UNL     1      -5.799   3.032  -7.597  1.00  0.00    -0.074 N 
HETATM   12  C12 UNL     1      -6.487   2.733  -6.377  1.00  0.00     0.251 C 
ATOM     13  H62 UNL     1      -6.365   3.607  -8.222  1.00  0.00     0.277 HD
ATOM     14  H61 UNL     1      -5.707   2.209  -8.192  1.00  0.00     0.277 HD
HETATM   15  C13 UNL     1      -6.880   1.276  -6.266  1.00  0.00     0.141 C 
HETATM   16  N7  UNL     1      -6.455   0.685  -5.028  1.00  0.00    -0.420 N 
HETATM   17  C14 UNL     1      -5.583  -0.442  -5.164  1.00  0.00     0.115 C 
ATOM     18  H7  UNL     1      -6.752   1.041  -4.120  1.00  0.00     0.153 HD
HETATM   19  C15 UNL     1      -4.432  -0.316  -4.166  1.00  0.00     0.038 C 
HETATM   20  C16 UNL     1      -3.192  -1.024  -4.664  1.00  0.00     0.115 C 
HETATM   21  N8  UNL     1      -1.972  -0.449  -4.217  1.00  0.00    -0.420 N 
HETATM   22  C17 UNL     1      -1.638   0.837  -4.735  1.00  0.00     0.133 C 
ATOM     23  H8  UNL     1      -1.364  -0.934  -3.558  1.00  0.00     0.153 HD
HETATM   24  C18 UNL     1      -1.589   0.958  -6.218  1.00  0.00     0.141 C 
ENDBRANCH   6   7
ENDBRANCH   5   6
ENDBRANCH   3   5
BRANCH   1  25
HETATM   25  C5  UNL     1       3.072  -0.195  -9.652  1.00  0.00     0.148 C 
BRANCH  25  26
HETATM   26  C4  UNL     1       4.432   0.129 -10.292  1.00  0.00     0.187 C 
BRANCH  26  27
HETATM   27  O3  UNL     1       5.039   1.029  -9.477  1.00  0.00    -0.387 OA
BRANCH  27  28
HETATM   28  C3  UNL     1       6.159   0.667  -8.797  1.00  0.00     0.195 C 
BRANCH  28  29
HETATM   29  C2  UNL     1       6.087   0.591  -7.319  1.00  0.00     0.222 C 
BRANCH  29  30
HETATM   30  O2  UNL     1       4.963   1.156  -6.740  1.00  0.00    -0.281 OA
BRANCH  30  31
HETATM   31  N3  UNL     1       4.039   0.245  -6.421  1.00  0.00    -0.049 NA
BRANCH  31  32
HETATM   32  C1  UNL     1       3.503   0.400  -5.089  1.00  0.00     0.360 C 
HETATM   33  N2  UNL     1       3.697   1.779  -4.683  1.00  0.00    -0.057 NA
HETATM   34  N1  UNL     1       2.644   2.224  -3.870  1.00  0.00    -0.126 N 
HETATM   35  C20 UNL     1       1.679   1.350  -3.321  1.00  0.00     0.283 C 
HETATM   36  C19 UNL     1       1.581  -0.027  -3.863  1.00  0.00     0.278 C 
HETATM   37  O6  UNL     1       0.918   1.716  -2.401  1.00  0.00    -0.267 OA
HETATM   38  O5  UNL     1       2.170   0.028  -5.141  1.00  0.00    -0.343 OA
BRANCH  34  39
HETATM   39  O1  UNL     1       2.563   3.541  -3.616  1.00  0.00    -0.268 OA
ATOM     40  H1  UNL     1       1.735   3.974  -3.784  1.00  0.00     0.246 HD
ENDBRANCH  34  39
ENDBRANCH  31  32
ENDBRANCH  30  31
ENDBRANCH  29  30
ENDBRANCH  28  29
ENDBRANCH  27  28
ENDBRANCH  26  27
ENDBRANCH  25  26
ENDBRANCH   1  25
TORSDOF 12
ENDMDL
MODEL 5
REMARK VINA RESULT: -7.891583271      1.325      3.705
REMARK  12 active torsions:
REMARK  status: ('A' for Active; 'I' for Inactive)
REMARK    1  A    between atoms: O1_1  and  N1_3 
REMARK    2  A    between atoms: C1_5  and  N3_6 
REMARK    3  A    between atoms: N3_6  and  O2_7 
REMARK    4  A    between atoms: O2_7  and  C2_8 
REMARK    5  A    between atoms: C2_8  and  C3_9 
REMARK    6  A    between atoms: C3_9  and  O3_10 
REMARK    7  A    between atoms: O3_10  and  C4_11 
REMARK    8  A    between atoms: C4_11  and  C5_12 
REMARK    9  A    between atoms: C5_12  and  N4_13 
REMARK       I    between atoms: N4_13  and  C6_15 
REMARK   10  A    between atoms: C6_15  and  C7_17 
REMARK   11  A    between atoms: C7_17  and  C8_18 
REMARK   12  A    between atoms: C8_18  and  N5_19 
ROOT
HETATM    1  N4  UNL     1       0.720   2.112  -6.300  1.00  0.00    -0.359 N 
ATOM      2  H4  UNL     1      -0.082   1.485  -6.341  1.00  0.00     0.162 HD
HETATM    3  C6  UNL     1       1.746   1.904  -5.274  1.00  0.00     0.222 C 
HETATM    4  O4  UNL     1       2.665   2.747  -5.336  1.00  0.00    -0.273 OA
ENDROOT
BRANCH   3   5
HETATM    5  C7  UNL     1       1.585   0.800  -4.349  1.00  0.00     0.147 C 
BRANCH   5   6
HETATM    6  C8  UNL     1       0.597   0.878  -3.264  1.00  0.00     0.067 C 
BRANCH   6   7
HETATM    7  N5  UNL     1      -0.511   0.050  -3.334  1.00  0.00    -0.391 N 
HETATM    8  C9  UNL     1      -0.589  -1.259  -2.901  1.00  0.00     0.123 C 
HETATM    9  C10 UNL     1      -2.058  -1.624  -2.636  1.00  0.00     0.047 C 
HETATM   10  C11 UNL     1      -2.144  -3.068  -2.152  1.00  0.00     0.234 C 
HETATM   11  N6  UNL     1      -3.506  -3.413  -1.800  1.00  0.00    -0.074 N 
HETATM   12  C12 UNL     1      -4.238  -3.798  -2.968  1.00  0.00     0.251 C 
ATOM     13  H62 UNL     1      -3.542  -4.130  -1.074  1.00  0.00     0.277 HD
ATOM     14  H61 UNL     1      -3.970  -2.661  -1.290  1.00  0.00     0.277 HD
HETATM   15  C13 UNL     1      -5.496  -2.981  -3.168  1.00  0.00     0.141 C 
HETATM   16  N7  UNL     1      -5.586  -2.424  -4.489  1.00  0.00    -0.420 N 
HETATM   17  C14 UNL     1      -5.672  -0.996  -4.538  1.00  0.00     0.115 C 
ATOM     18  H7  UNL     1      -5.588  -3.003  -5.329  1.00  0.00     0.153 HD
HETATM   19  C15 UNL     1      -4.739  -0.469  -5.629  1.00  0.00     0.038 C 
HETATM   20  C16 UNL     1      -4.266   0.933  -5.318  1.00  0.00     0.115 C 
HETATM   21  N8  UNL     1      -2.977   1.242  -5.829  1.00  0.00    -0.420 N 
HETATM   22  C17 UNL     1      -1.870   0.567  -5.236  1.00  0.00     0.133 C 
ATOM     23  H8  UNL     1      -2.850   1.914  -6.585  1.00  0.00     0.153 HD
HETATM   24  C18 UNL     1      -1.731   0.702  -3.759  1.00  0.00     0.141 C 
ENDBRANCH   6   7
ENDBRANCH   5   6
ENDBRANCH   3   5
BRANCH   1  25
HETATM   25  C5  UNL     1       0.826   3.183  -7.249  1.00  0.00     0.148 C 
BRANCH  25  26
HETATM   26  C4  UNL     1      -0.584   3.497  -7.776  1.00  0.00     0.187 C 
BRANCH  26  27
HETATM   27  O3  UNL     1      -1.150   2.305  -8.100  1.00  0.00    -0.387 OA
BRANCH  27  28
HETATM   28  C3  UNL     1      -1.166   1.905  -9.398  1.00  0.00     0.195 C 
BRANCH  28  29
HETATM   29  C2  UNL     1      -0.116   0.963  -9.854  1.00  0.00     0.222 C 
BRANCH  29  30
HETATM   30  O2  UNL     1       0.492   0.212  -8.862  1.00  0.00    -0.281 OA
BRANCH  30  31
HETATM   31  N3  UNL     1       1.563  -0.452  -9.307  1.00  0.00    -0.049 NA
BRANCH  31  32
HETATM   32  C1  UNL     1       2.778   0.328  -9.296  1.00  0.00     0.360 C 
HETATM   33  N2  UNL     1       3.088   0.661  -7.919  1.00  0.00    -0.057 NA
HETATM   34  N1  UNL     1       4.474   0.698  -7.702  1.00  0.00    -0.126 N 
HETATM   35  C20 UNL     1       5.414   0.674  -8.756  1.00  0.00     0.283 C 
HETATM   36  C19 UNL     1       4.950   0.283 -10.109  1.00  0.00     0.278 C 
HETATM   37  O6  UNL     1       6.612   0.971  -8.567  1.00  0.00    -0.267 OA
HETATM   38  O5  UNL     1       3.758  -0.439  -9.906  1.00  0.00    -0.343 OA
BRANCH  34  39
HETATM   39  O1  UNL     1       4.907   0.757  -6.432  1.00  0.00    -0.268 OA
ATOM     40  H1  UNL     1       5.844   0.805  -6.286  1.00  0.00     0.246 HD
ENDBRANCH  34  39
ENDBRANCH  31  32
ENDBRANCH  30  31
ENDBRANCH  29  30
ENDBRANCH  28  29
ENDBRANCH  27  28
ENDBRANCH  26  27
ENDBRANCH  25  26
ENDBRANCH   1  25
TORSDOF 12
ENDMDL
