MODEL 1
REMARK VINA RESULT: -7.209360938      0.000      0.000
REMARK  15 active torsions:
REMARK  status: ('A' for Active; 'I' for Inactive)
REMARK    1  A    between atoms: O1_2  and  C2_3 
REMARK    2  A    between atoms: C2_3  and  C3_4 
REMARK    3  A    between atoms: C2_3  and  C17_34 
REMARK    4  A    between atoms: C6_8  and  O2_9 
REMARK    5  A    between atoms: C7_11  and  O3_12 
REMARK    6  A    between atoms: C8_14  and  C9_15 
REMARK    7  A    between atoms: C9_15  and  O4_16 
REMARK    8  A    between atoms: C9_15  and  C10_18 
REMARK    9  A    between atoms: C10_18  and  O5_19 
REMARK   10  A    between atoms: C10_18  and  O6_21 
REMARK   11  A    between atoms: O6_21  and  C12_22 
REMARK   12  A    between atoms: C14_25  and  O8_26 
REMARK   13  A    between atoms: C15_28  and  O9_29 
REMARK   14  A    between atoms: C16_31  and  O10_32 
REMARK   15  A    between atoms: C17_34  and  S1_35 
ROOT
HETATM    1  C9  UNL     1      -3.438   2.352  -4.899  1.00  0.00     0.198 C 
ENDROOT
BRANCH   1   2
HETATM    2  C8  UNL     1      -3.789   2.420  -6.321  1.00  0.00     0.148 C 
HETATM    3  N1  UNL     1      -4.576   3.553  -6.732  1.00  0.00    -0.381 N 
HETATM    4  C3  UNL     1      -5.004   4.495  -5.853  1.00  0.00     0.091 C 
HETATM    5  C4  UNL     1      -5.301   3.165  -7.891  1.00  0.00     0.125 C 
HETATM    6  C5  UNL     1      -4.437   2.537  -8.959  1.00  0.00     0.054 C 
HETATM    7  C6  UNL     1      -2.975   2.485  -8.682  1.00  0.00     0.150 C 
HETATM    8  C7  UNL     1      -2.569   2.408  -7.242  1.00  0.00     0.172 C 
BRANCH   4   9
HETATM    9  C2  UNL     1      -5.084   5.931  -6.333  1.00  0.00     0.170 C 
BRANCH   9  10
HETATM   10  O1  UNL     1      -4.096   6.669  -5.696  1.00  0.00    -0.385 OA
HETATM   11  C1  UNL     1      -3.553   7.696  -6.409  1.00  0.00     0.202 C 
ENDBRANCH   9  10
BRANCH   9  12
HETATM   12  C17 UNL     1      -6.457   6.508  -6.071  1.00  0.00     0.145 C 
BRANCH  12  13
HETATM   13  S1  UNL     1      -6.614   7.244  -4.484  1.00  0.00     0.013 S 
HETATM   14  C18 UNL     1      -7.158   8.935  -4.638  1.00  0.00     0.127 C 
HETATM   15  O11 UNL     1      -7.805   6.423  -3.632  1.00  0.00    -0.258 OA
ENDBRANCH  12  13
ENDBRANCH   9  12
ENDBRANCH   4   9
BRANCH   7  16
HETATM   16  O2  UNL     1      -2.267   3.527  -9.281  1.00  0.00    -0.393 OA
ATOM     17  H2  UNL     1      -1.724   4.009  -8.668  1.00  0.00     0.210 HD
ENDBRANCH   7  16
BRANCH   8  18
HETATM   18  O3  UNL     1      -1.791   3.500  -6.857  1.00  0.00    -0.391 OA
ATOM     19  H3  UNL     1      -0.869   3.365  -7.041  1.00  0.00     0.210 HD
ENDBRANCH   8  18
ENDBRANCH   1   2
BRANCH   1  20
HETATM   20  O4  UNL     1      -4.625   2.070  -4.161  1.00  0.00    -0.388 OA
ATOM     21  H4  UNL     1      -5.087   2.888  -4.020  1.00  0.00     0.210 HD
ENDBRANCH   1  20
BRANCH   1  22
HETATM   22  C10 UNL     1      -2.547   1.155  -4.571  1.00  0.00     0.293 C 
BRANCH  22  23
HETATM   23  O5  UNL     1      -3.308   0.136  -4.041  1.00  0.00    -0.363 OA
HETATM   24  C11 UNL     1      -3.320  -1.044  -4.729  1.00  0.00     0.204 C 
ENDBRANCH  22  23
BRANCH  22  25
HETATM   25  O6  UNL     1      -1.552   1.546  -3.653  1.00  0.00    -0.326 OA
BRANCH  25  26
HETATM   26  C12 UNL     1      -0.342   0.973  -4.028  1.00  0.00     0.294 C 
HETATM   27  O7  UNL     1       0.029   1.507  -5.253  1.00  0.00    -0.356 OA
HETATM   28  C13 UNL     1       1.353   1.247  -5.582  1.00  0.00     0.205 C 
HETATM   29  C14 UNL     1       1.935   0.107  -4.776  1.00  0.00     0.173 C 
HETATM   30  C15 UNL     1       1.935   0.406  -3.300  1.00  0.00     0.182 C 
HETATM   31  C16 UNL     1       0.706   1.185  -2.960  1.00  0.00     0.204 C 
BRANCH  29  32
HETATM   32  O8  UNL     1       3.255  -0.063  -5.192  1.00  0.00    -0.391 OA
ATOM     33  H8  UNL     1       3.360  -0.976  -5.433  1.00  0.00     0.210 HD
ENDBRANCH  29  32
BRANCH  30  34
HETATM   34  O9  UNL     1       3.052   1.170  -2.918  1.00  0.00    -0.390 OA
ATOM     35  H9  UNL     1       2.963   1.514  -2.037  1.00  0.00     0.210 HD
ENDBRANCH  30  34
BRANCH  31  36
HETATM   36  O10 UNL     1       0.973   2.535  -2.754  1.00  0.00    -0.388 OA
ATOM     37  H10 UNL     1       1.655   2.855  -3.333  1.00  0.00     0.210 HD
ENDBRANCH  31  36
ENDBRANCH  25  26
ENDBRANCH  22  25
ENDBRANCH   1  22
TORSDOF 15
ENDMDL
MODEL 2
REMARK VINA RESULT: -7.109962781      3.296      7.452
REMARK  15 active torsions:
REMARK  status: ('A' for Active; 'I' for Inactive)
REMARK    1  A    between atoms: O1_2  and  C2_3 
REMARK    2  A    between atoms: C2_3  and  C3_4 
REMARK    3  A    between atoms: C2_3  and  C17_34 
REMARK    4  A    between atoms: C6_8  and  O2_9 
REMARK    5  A    between atoms: C7_11  and  O3_12 
REMARK    6  A    between atoms: C8_14  and  C9_15 
REMARK    7  A    between atoms: C9_15  and  O4_16 
REMARK    8  A    between atoms: C9_15  and  C10_18 
REMARK    9  A    between atoms: C10_18  and  O5_19 
REMARK   10  A    between atoms: C10_18  and  O6_21 
REMARK   11  A    between atoms: O6_21  and  C12_22 
REMARK   12  A    between atoms: C14_25  and  O8_26 
REMARK   13  A    between atoms: C15_28  and  O9_29 
REMARK   14  A    between atoms: C16_31  and  O10_32 
REMARK   15  A    between atoms: C17_34  and  S1_35 
ROOT
HETATM    1  C9  UNL     1      -5.136  -0.433  -4.953  1.00  0.00     0.198 C 
ENDROOT
BRANCH   1   2
HETATM    2  C8  UNL     1      -5.171  -1.789  -4.398  1.00  0.00     0.148 C 
HETATM    3  N1  UNL     1      -3.930  -2.300  -3.878  1.00  0.00    -0.381 N 
HETATM    4  C3  UNL     1      -2.776  -1.585  -3.924  1.00  0.00     0.091 C 
HETATM    5  C4  UNL     1      -3.987  -3.718  -3.966  1.00  0.00     0.125 C 
HETATM    6  C5  UNL     1      -5.245  -4.306  -3.374  1.00  0.00     0.054 C 
HETATM    7  C6  UNL     1      -6.186  -3.348  -2.731  1.00  0.00     0.150 C 
HETATM    8  C7  UNL     1      -6.190  -1.950  -3.270  1.00  0.00     0.172 C 
BRANCH   4   9
HETATM    9  C2  UNL     1      -1.799  -1.737  -2.774  1.00  0.00     0.170 C 
BRANCH   9  10
HETATM   10  O1  UNL     1      -2.320  -1.093  -1.661  1.00  0.00    -0.385 OA
HETATM   11  C1  UNL     1      -2.538  -1.866  -0.561  1.00  0.00     0.202 C 
ENDBRANCH   9  10
BRANCH   9  12
HETATM   12  C17 UNL     1      -0.442  -1.184  -3.147  1.00  0.00     0.145 C 
BRANCH  12  13
HETATM   13  S1  UNL     1      -0.504   0.463  -3.754  1.00  0.00     0.013 S 
HETATM   14  C18 UNL     1       0.868   1.408  -3.117  1.00  0.00     0.127 C 
HETATM   15  O11 UNL     1      -0.335   0.422  -5.424  1.00  0.00    -0.258 OA
ENDBRANCH  12  13
ENDBRANCH   9  12
ENDBRANCH   4   9
BRANCH   7  16
HETATM   16  O2  UNL     1      -6.039  -3.282  -1.346  1.00  0.00    -0.393 OA
ATOM     17  H2  UNL     1      -6.853  -3.095  -0.893  1.00  0.00     0.210 HD
ENDBRANCH   7  16
BRANCH   8  18
HETATM   18  O3  UNL     1      -5.834  -1.013  -2.300  1.00  0.00    -0.391 OA
ATOM     19  H3  UNL     1      -4.918  -0.769  -2.358  1.00  0.00     0.210 HD
ENDBRANCH   8  18
ENDBRANCH   1   2
BRANCH   1  20
HETATM   20  O4  UNL     1      -5.898  -0.425  -6.158  1.00  0.00    -0.388 OA
ATOM     21  H4  UNL     1      -5.345  -0.094  -6.857  1.00  0.00     0.210 HD
ENDBRANCH   1  20
BRANCH   1  22
HETATM   22  C10 UNL     1      -5.877   0.578  -4.080  1.00  0.00     0.293 C 
BRANCH  22  23
HETATM   23  O5  UNL     1      -7.046   0.963  -4.700  1.00  0.00    -0.363 OA
HETATM   24  C11 UNL     1      -8.081   1.328  -3.887  1.00  0.00     0.204 C 
ENDBRANCH  22  23
BRANCH  22  25
HETATM   25  O6  UNL     1      -5.054   1.700  -3.856  1.00  0.00    -0.326 OA
BRANCH  25  26
HETATM   26  C12 UNL     1      -4.781   2.308  -5.076  1.00  0.00     0.294 C 
HETATM   27  O7  UNL     1      -5.458   3.517  -5.120  1.00  0.00    -0.356 OA
HETATM   28  C13 UNL     1      -5.025   4.349  -6.145  1.00  0.00     0.205 C 
HETATM   29  C14 UNL     1      -4.260   3.599  -7.212  1.00  0.00     0.173 C 
HETATM   30  C15 UNL     1      -3.016   2.952  -6.661  1.00  0.00     0.182 C 
HETATM   31  C16 UNL     1      -3.291   2.470  -5.273  1.00  0.00     0.204 C 
BRANCH  29  32
HETATM   32  O8  UNL     1      -3.883   4.527  -8.181  1.00  0.00    -0.391 OA
ATOM     33  H8  UNL     1      -3.801   4.059  -9.004  1.00  0.00     0.210 HD
ENDBRANCH  29  32
BRANCH  30  34
HETATM   34  O9  UNL     1      -1.938   3.853  -6.602  1.00  0.00    -0.390 OA
ATOM     35  H9  UNL     1      -1.229   3.596  -7.181  1.00  0.00     0.210 HD
ENDBRANCH  30  34
BRANCH  31  36
HETATM   36  O10 UNL     1      -2.724   3.291  -4.304  1.00  0.00    -0.388 OA
ATOM     37  H10 UNL     1      -2.544   4.163  -4.637  1.00  0.00     0.210 HD
ENDBRANCH  31  36
ENDBRANCH  25  26
ENDBRANCH  22  25
ENDBRANCH   1  22
TORSDOF 15
ENDMDL
MODEL 3
REMARK VINA RESULT: -7.015632597      1.064      1.064
REMARK  15 active torsions:
REMARK  status: ('A' for Active; 'I' for Inactive)
REMARK    1  A    between atoms: O1_2  and  C2_3 
REMARK    2  A    between atoms: C2_3  and  C3_4 
REMARK    3  A    between atoms: C2_3  and  C17_34 
REMARK    4  A    between atoms: C6_8  and  O2_9 
REMARK    5  A    between atoms: C7_11  and  O3_12 
REMARK    6  A    between atoms: C8_14  and  C9_15 
REMARK    7  A    between atoms: C9_15  and  O4_16 
REMARK    8  A    between atoms: C9_15  and  C10_18 
REMARK    9  A    between atoms: C10_18  and  O5_19 
REMARK   10  A    between atoms: C10_18  and  O6_21 
REMARK   11  A    between atoms: O6_21  and  C12_22 
REMARK   12  A    between atoms: C14_25  and  O8_26 
REMARK   13  A    between atoms: C15_28  and  O9_29 
REMARK   14  A    between atoms: C16_31  and  O10_32 
REMARK   15  A    between atoms: C17_34  and  S1_35 
ROOT
HETATM    1  C9  UNL     1      -3.482   2.302  -4.867  1.00  0.00     0.198 C 
ENDROOT
BRANCH   1   2
HETATM    2  C8  UNL     1      -3.813   2.393  -6.293  1.00  0.00     0.148 C 
HETATM    3  N1  UNL     1      -4.561   3.551  -6.703  1.00  0.00    -0.381 N 
HETATM    4  C3  UNL     1      -4.973   4.498  -5.820  1.00  0.00     0.091 C 
HETATM    5  C4  UNL     1      -5.283   3.195  -7.874  1.00  0.00     0.125 C 
HETATM    6  C5  UNL     1      -4.424   2.552  -8.937  1.00  0.00     0.054 C 
HETATM    7  C6  UNL     1      -2.967   2.455  -8.642  1.00  0.00     0.150 C 
HETATM    8  C7  UNL     1      -2.582   2.353  -7.198  1.00  0.00     0.172 C 
BRANCH   4   9
HETATM    9  C2  UNL     1      -5.006   5.941  -6.288  1.00  0.00     0.170 C 
BRANCH   9  10
HETATM   10  O1  UNL     1      -3.720   6.322  -6.643  1.00  0.00    -0.385 OA
HETATM   11  C1  UNL     1      -3.505   6.568  -7.966  1.00  0.00     0.202 C 
ENDBRANCH   9  10
BRANCH   9  12
HETATM   12  C17 UNL     1      -5.571   6.840  -5.212  1.00  0.00     0.145 C 
BRANCH  12  13
HETATM   13  S1  UNL     1      -5.681   8.524  -5.699  1.00  0.00     0.013 S 
HETATM   14  C18 UNL     1      -6.875   9.383  -4.690  1.00  0.00     0.127 C 
HETATM   15  O11 UNL     1      -4.195   9.256  -5.427  1.00  0.00    -0.258 OA
ENDBRANCH  12  13
ENDBRANCH   9  12
ENDBRANCH   4   9
BRANCH   7  16
HETATM   16  O2  UNL     1      -2.222   3.482  -9.222  1.00  0.00    -0.393 OA
ATOM     17  H2  UNL     1      -2.375   3.572 -10.155  1.00  0.00     0.210 HD
ENDBRANCH   7  16
BRANCH   8  18
HETATM   18  O3  UNL     1      -1.778   3.420  -6.793  1.00  0.00    -0.391 OA
ATOM     19  H3  UNL     1      -1.809   3.553  -5.853  1.00  0.00     0.210 HD
ENDBRANCH   8  18
ENDBRANCH   1   2
BRANCH   1  20
HETATM   20  O4  UNL     1      -4.676   1.989  -4.153  1.00  0.00    -0.388 OA
ATOM     21  H4  UNL     1      -4.822   2.670  -3.507  1.00  0.00     0.210 HD
ENDBRANCH   1  20
BRANCH   1  22
HETATM   22  C10 UNL     1      -2.579   1.112  -4.549  1.00  0.00     0.293 C 
BRANCH  22  23
HETATM   23  O5  UNL     1      -3.328   0.085  -4.018  1.00  0.00    -0.363 OA
HETATM   24  C11 UNL     1      -3.369  -1.079  -4.731  1.00  0.00     0.204 C 
ENDBRANCH  22  23
BRANCH  22  25
HETATM   25  O6  UNL     1      -1.582   1.509  -3.635  1.00  0.00    -0.326 OA
BRANCH  25  26
HETATM   26  C12 UNL     1      -0.370   0.944  -4.017  1.00  0.00     0.294 C 
HETATM   27  O7  UNL     1      -0.010   1.479  -5.245  1.00  0.00    -0.356 OA
HETATM   28  C13 UNL     1       1.314   1.228  -5.582  1.00  0.00     0.205 C 
HETATM   29  C14 UNL     1       1.908   0.093  -4.779  1.00  0.00     0.173 C 
HETATM   30  C15 UNL     1       1.915   0.393  -3.303  1.00  0.00     0.182 C 
HETATM   31  C16 UNL     1       0.683   1.164  -2.956  1.00  0.00     0.204 C 
BRANCH  29  32
HETATM   32  O8  UNL     1       3.227  -0.068  -5.203  1.00  0.00    -0.391 OA
ATOM     33  H8  UNL     1       3.373  -0.999  -5.325  1.00  0.00     0.210 HD
ENDBRANCH  29  32
BRANCH  30  34
HETATM   34  O9  UNL     1       3.030   1.165  -2.929  1.00  0.00    -0.390 OA
ATOM     35  H9  UNL     1       3.268   1.027  -2.019  1.00  0.00     0.210 HD
ENDBRANCH  30  34
BRANCH  31  36
HETATM   36  O10 UNL     1       0.942   2.515  -2.752  1.00  0.00    -0.388 OA
ATOM     37  H10 UNL     1       1.873   2.693  -2.687  1.00  0.00     0.210 HD
ENDBRANCH  31  36
ENDBRANCH  25  26
ENDBRANCH  22  25
ENDBRANCH   1  22
TORSDOF 15
ENDMDL
MODEL 4
REMARK VINA RESULT: -7.013528648      3.704      6.607
REMARK  15 active torsions:
REMARK  status: ('A' for Active; 'I' for Inactive)
REMARK    1  A    between atoms: O1_2  and  C2_3 
REMARK    2  A    between atoms: C2_3  and  C3_4 
REMARK    3  A    between atoms: C2_3  and  C17_34 
REMARK    4  A    between atoms: C6_8  and  O2_9 
REMARK    5  A    between atoms: C7_11  and  O3_12 
REMARK    6  A    between atoms: C8_14  and  C9_15 
REMARK    7  A    between atoms: C9_15  and  O4_16 
REMARK    8  A    between atoms: C9_15  and  C10_18 
REMARK    9  A    between atoms: C10_18  and  O5_19 
REMARK   10  A    between atoms: C10_18  and  O6_21 
REMARK   11  A    between atoms: O6_21  and  C12_22 
REMARK   12  A    between atoms: C14_25  and  O8_26 
REMARK   13  A    between atoms: C15_28  and  O9_29 
REMARK   14  A    between atoms: C16_31  and  O10_32 
REMARK   15  A    between atoms: C17_34  and  S1_35 
ROOT
HETATM    1  C9  UNL     1      -3.907   1.434  -4.812  1.00  0.00     0.198 C 
ENDROOT
BRANCH   1   2
HETATM    2  C8  UNL     1      -3.289   1.936  -6.043  1.00  0.00     0.148 C 
HETATM    3  N1  UNL     1      -1.851   1.898  -6.098  1.00  0.00    -0.381 N 
HETATM    4  C3  UNL     1      -1.097   1.455  -5.058  1.00  0.00     0.091 C 
HETATM    5  C4  UNL     1      -1.436   2.916  -6.998  1.00  0.00     0.125 C 
HETATM    6  C5  UNL     1      -2.150   2.870  -8.328  1.00  0.00     0.054 C 
HETATM    7  C6  UNL     1      -3.108   1.747  -8.527  1.00  0.00     0.150 C 
HETATM    8  C7  UNL     1      -3.770   1.205  -7.296  1.00  0.00     0.172 C 
BRANCH   4   9
HETATM    9  C2  UNL     1       0.184   0.709  -5.375  1.00  0.00     0.170 C 
BRANCH   9  10
HETATM   10  O1  UNL     1       0.110  -0.560  -4.818  1.00  0.00    -0.385 OA
HETATM   11  C1  UNL     1       0.208  -0.632  -3.461  1.00  0.00     0.202 C 
ENDBRANCH   9  10
BRANCH   9  12
HETATM   12  C17 UNL     1       1.387   1.467  -4.862  1.00  0.00     0.145 C 
BRANCH  12  13
HETATM   13  S1  UNL     1       2.897   0.963  -5.604  1.00  0.00     0.013 S 
HETATM   14  C18 UNL     1       2.676   0.731  -7.359  1.00  0.00     0.127 C 
HETATM   15  O11 UNL     1       4.022   2.195  -5.413  1.00  0.00    -0.258 OA
ENDBRANCH  12  13
ENDBRANCH   9  12
ENDBRANCH   4   9
BRANCH   7  16
HETATM   16  O2  UNL     1      -2.558   0.677  -9.234  1.00  0.00    -0.393 OA
ATOM     17  H2  UNL     1      -1.722   0.390  -8.886  1.00  0.00     0.210 HD
ENDBRANCH   7  16
BRANCH   8  18
HETATM   18  O3  UNL     1      -3.472  -0.142  -7.090  1.00  0.00    -0.391 OA
ATOM     19  H3  UNL     1      -3.985  -0.711  -7.651  1.00  0.00     0.210 HD
ENDBRANCH   8  18
ENDBRANCH   1   2
BRANCH   1  20
HETATM   20  O4  UNL     1      -4.032   2.524  -3.901  1.00  0.00    -0.388 OA
ATOM     21  H4  UNL     1      -4.455   2.204  -3.112  1.00  0.00     0.210 HD
ENDBRANCH   1  20
BRANCH   1  22
HETATM   22  C10 UNL     1      -5.357   1.000  -5.018  1.00  0.00     0.293 C 
BRANCH  22  23
HETATM   23  O5  UNL     1      -6.128   1.425  -3.957  1.00  0.00    -0.363 OA
HETATM   24  C11 UNL     1      -7.455   1.629  -4.205  1.00  0.00     0.204 C 
ENDBRANCH  22  23
BRANCH  22  25
HETATM   25  O6  UNL     1      -5.417  -0.403  -5.131  1.00  0.00    -0.326 OA
BRANCH  25  26
HETATM   26  C12 UNL     1      -4.956  -0.970  -3.948  1.00  0.00     0.294 C 
HETATM   27  O7  UNL     1      -5.884  -1.910  -3.527  1.00  0.00    -0.356 OA
HETATM   28  C13 UNL     1      -5.397  -2.753  -2.536  1.00  0.00     0.205 C 
HETATM   29  C14 UNL     1      -4.172  -2.190  -1.852  1.00  0.00     0.173 C 
HETATM   30  C15 UNL     1      -3.031  -1.994  -2.816  1.00  0.00     0.182 C 
HETATM   31  C16 UNL     1      -3.578  -1.560  -4.137  1.00  0.00     0.204 C 
BRANCH  29  32
HETATM   32  O8  UNL     1      -3.778  -3.112  -0.883  1.00  0.00    -0.391 OA
ATOM     33  H8  UNL     1      -3.423  -2.619  -0.152  1.00  0.00     0.210 HD
ENDBRANCH  29  32
BRANCH  30  34
HETATM   34  O9  UNL     1      -2.303  -3.181  -3.016  1.00  0.00    -0.390 OA
ATOM     35  H9  UNL     1      -1.981  -3.253  -3.907  1.00  0.00     0.210 HD
ENDBRANCH  30  34
BRANCH  31  36
HETATM   36  O10 UNL     1      -3.574  -2.586  -5.076  1.00  0.00    -0.388 OA
ATOM     37  H10 UNL     1      -2.706  -2.949  -5.204  1.00  0.00     0.210 HD
ENDBRANCH  31  36
ENDBRANCH  25  26
ENDBRANCH  22  25
ENDBRANCH   1  22
TORSDOF 15
ENDMDL
MODEL 5
REMARK VINA RESULT: -7.012745461      3.656      6.893
REMARK  15 active torsions:
REMARK  status: ('A' for Active; 'I' for Inactive)
REMARK    1  A    between atoms: O1_2  and  C2_3 
REMARK    2  A    between atoms: C2_3  and  C3_4 
REMARK    3  A    between atoms: C2_3  and  C17_34 
REMARK    4  A    between atoms: C6_8  and  O2_9 
REMARK    5  A    between atoms: C7_11  and  O3_12 
REMARK    6  A    between atoms: C8_14  and  C9_15 
REMARK    7  A    between atoms: C9_15  and  O4_16 
REMARK    8  A    between atoms: C9_15  and  C10_18 
REMARK    9  A    between atoms: C10_18  and  O5_19 
REMARK   10  A    between atoms: C10_18  and  O6_21 
REMARK   11  A    between atoms: O6_21  and  C12_22 
REMARK   12  A    between atoms: C14_25  and  O8_26 
REMARK   13  A    between atoms: C15_28  and  O9_29 
REMARK   14  A    between atoms: C16_31  and  O10_32 
REMARK   15  A    between atoms: C17_34  and  S1_35 
ROOT
HETATM    1  C9  UNL     1      -3.358   1.793  -4.747  1.00  0.00     0.198 C 
ENDROOT
BRANCH   1   2
HETATM    2  C8  UNL     1      -2.878   2.168  -6.081  1.00  0.00     0.148 C 
HETATM    3  N1  UNL     1      -1.463   2.039  -6.310  1.00  0.00    -0.381 N 
HETATM    4  C3  UNL     1      -0.606   1.627  -5.341  1.00  0.00     0.091 C 
HETATM    5  C4  UNL     1      -1.115   2.964  -7.332  1.00  0.00     0.125 C 
HETATM    6  C5  UNL     1      -1.996   2.868  -8.555  1.00  0.00     0.054 C 
HETATM    7  C6  UNL     1      -3.027   1.793  -8.546  1.00  0.00     0.150 C 
HETATM    8  C7  UNL     1      -3.553   1.381  -7.204  1.00  0.00     0.172 C 
BRANCH   4   9
HETATM    9  C2  UNL     1       0.584   0.783  -5.755  1.00  0.00     0.170 C 
BRANCH   9  10
HETATM   10  O1  UNL     1       0.464  -0.472  -5.176  1.00  0.00    -0.385 OA
HETATM   11  C1  UNL     1      -0.051  -0.509  -3.915  1.00  0.00     0.202 C 
ENDBRANCH   9  10
BRANCH   9  12
HETATM   12  C17 UNL     1       1.880   1.452  -5.357  1.00  0.00     0.145 C 
BRANCH  12  13
HETATM   13  S1  UNL     1       3.298   0.714  -6.084  1.00  0.00     0.013 S 
HETATM   14  C18 UNL     1       3.020   0.419  -7.821  1.00  0.00     0.127 C 
HETATM   15  O11 UNL     1       4.578   1.793  -5.971  1.00  0.00    -0.258 OA
ENDBRANCH  12  13
ENDBRANCH   9  12
ENDBRANCH   4   9
BRANCH   7  16
HETATM   16  O2  UNL     1      -2.628   0.645  -9.230  1.00  0.00    -0.393 OA
ATOM     17  H2  UNL     1      -2.544  -0.115  -8.666  1.00  0.00     0.210 HD
ENDBRANCH   7  16
BRANCH   8  18
HETATM   18  O3  UNL     1      -3.300   0.037  -6.932  1.00  0.00    -0.391 OA
ATOM     19  H3  UNL     1      -3.686  -0.240  -6.109  1.00  0.00     0.210 HD
ENDBRANCH   8  18
ENDBRANCH   1   2
BRANCH   1  20
HETATM   20  O4  UNL     1      -3.416   2.972  -3.947  1.00  0.00    -0.388 OA
ATOM     21  H4  UNL     1      -4.174   3.477  -4.218  1.00  0.00     0.210 HD
ENDBRANCH   1  20
BRANCH   1  22
HETATM   22  C10 UNL     1      -4.812   1.323  -4.757  1.00  0.00     0.293 C 
BRANCH  22  23
HETATM   23  O5  UNL     1      -5.656   2.411  -4.738  1.00  0.00    -0.363 OA
HETATM   24  C11 UNL     1      -6.939   2.202  -5.157  1.00  0.00     0.204 C 
ENDBRANCH  22  23
BRANCH  22  25
HETATM   25  O6  UNL     1      -5.049   0.504  -3.635  1.00  0.00    -0.326 OA
BRANCH  25  26
HETATM   26  C12 UNL     1      -4.720  -0.808  -3.957  1.00  0.00     0.294 C 
HETATM   27  O7  UNL     1      -3.542  -1.132  -3.302  1.00  0.00    -0.356 OA
HETATM   28  C13 UNL     1      -3.278  -2.496  -3.298  1.00  0.00     0.205 C 
HETATM   29  C14 UNL     1      -4.066  -3.239  -4.352  1.00  0.00     0.173 C 
HETATM   30  C15 UNL     1      -5.552  -3.113  -4.136  1.00  0.00     0.182 C 
HETATM   31  C16 UNL     1      -5.853  -1.746  -3.613  1.00  0.00     0.204 C 
BRANCH  29  32
HETATM   32  O8  UNL     1      -3.719  -4.586  -4.257  1.00  0.00    -0.391 OA
ATOM     33  H8  UNL     1      -3.843  -4.972  -5.116  1.00  0.00     0.210 HD
ENDBRANCH  29  32
BRANCH  30  34
HETATM   34  O9  UNL     1      -6.028  -4.050  -3.202  1.00  0.00    -0.390 OA
ATOM     35  H9  UNL     1      -6.938  -3.896  -2.977  1.00  0.00     0.210 HD
ENDBRANCH  30  34
BRANCH  31  36
HETATM   36  O10 UNL     1      -6.132  -1.749  -2.250  1.00  0.00    -0.388 OA
ATOM     37  H10 UNL     1      -7.053  -1.899  -2.075  1.00  0.00     0.210 HD
ENDBRANCH  31  36
ENDBRANCH  25  26
ENDBRANCH  22  25
ENDBRANCH   1  22
TORSDOF 15
ENDMDL
