MODEL 1
REMARK VINA RESULT: -6.774908193      0.000      0.000
REMARK  11 active torsions:
REMARK  status: ('A' for Active; 'I' for Inactive)
REMARK    1  A    between atoms: C2_2  and  C3_3 
REMARK    2  A    between atoms: C3_3  and  N1_4 
REMARK       I    between atoms: N1_4  and  C4_6 
REMARK       I    between atoms: C4_6  and  N3_11 
REMARK    3  A    between atoms: N2_7  and  O1_9 
REMARK    4  A    between atoms: N3_11  and  C5_13 
REMARK    5  A    between atoms: C6_16  and  N5_17 
REMARK    6  A    between atoms: C11_27  and  N8_28 
REMARK    7  A    between atoms: N8_28  and  C12_30 
REMARK    8  A    between atoms: C12_30  and  O2_31 
REMARK    9  A    between atoms: C12_30  and  C13_33 
REMARK   10  A    between atoms: C13_33  and  N9_34 
REMARK   11  A    between atoms: C13_33  and  O3_38 
ROOT
HETATM    1  C5  UNL     1      -8.604   1.595  22.436  1.00  0.00     0.734 A 
HETATM    2  N4  UNL     1      -7.875   1.117  23.461  1.00  0.00    -0.020 N 
ATOM      3  H4  UNL     1      -7.087   1.665  23.808  1.00  0.00     0.203 HD
HETATM    4  C6  UNL     1      -8.157  -0.063  24.040  1.00  0.00     0.706 A 
HETATM    5  N6  UNL     1      -9.194  -0.777  23.580  1.00  0.00    -0.021 N 
ATOM      6  H6  UNL     1      -9.414  -1.673  24.014  1.00  0.00     0.203 HD
HETATM    7  C8  UNL     1      -9.953  -0.338  22.557  1.00  0.00     0.719 A 
HETATM    8  N7  UNL     1     -11.000  -1.096  22.117  1.00  0.00    -0.200 N 
ATOM      9  H7  UNL     1     -11.193  -1.987  22.574  1.00  0.00     0.183 HD
HETATM   10  C9  UNL     1     -11.783  -0.700  21.102  1.00  0.00     0.110 A 
HETATM   11  C10 UNL     1     -11.485   0.513  20.514  1.00  0.00     0.067 A 
HETATM   12  C11 UNL     1     -10.424   1.262  20.972  1.00  0.00     0.146 A 
HETATM   13  N10 UNL     1      -9.636   0.844  22.007  1.00  0.00     0.039 N 
ENDROOT
BRANCH   1  14
HETATM   14  N3  UNL     1      -8.371   2.693  21.869  1.00  0.00    -0.019 N 
HETATM   15  C4  UNL     1      -8.316   3.973  22.399  1.00  0.00     0.712 C 
HETATM   16  N1  UNL     1      -9.416   4.709  22.917  1.00  0.00    -0.224 N 
HETATM   17  N2  UNL     1      -7.160   4.566  22.433  1.00  0.00    -0.098 N 
ATOM     18  H1  UNL     1      -9.941   4.333  23.707  1.00  0.00     0.177 HD
ATOM     19  H2  UNL     1      -7.117   5.507  22.824  1.00  0.00     0.213 HD
ATOM     20  H3  UNL     1      -8.197   2.633  20.865  1.00  0.00     0.203 HD
BRANCH  16  21
HETATM   21  C3  UNL     1      -9.808   5.984  22.346  1.00  0.00     0.138 C 
BRANCH  21  22
HETATM   22  C2  UNL     1      -9.609   7.116  23.329  1.00  0.00     0.016 C 
HETATM   23  C1  UNL     1      -9.792   6.549  24.728  1.00  0.00     0.006 C 
ENDBRANCH  21  22
ENDBRANCH  16  21
BRANCH  17  24
HETATM   24  O1  UNL     1      -6.007   4.013  21.983  1.00  0.00    -0.276 OA
ATOM     25  H1  UNL     1      -5.528   3.331  22.439  1.00  0.00     0.245 HD
ENDBRANCH  17  24
ENDBRANCH   1  14
BRANCH   4  26
HETATM   26  N5  UNL     1      -7.451  -0.526  25.032  1.00  0.00    -0.229 N 
HETATM   27  C7  UNL     1      -6.219   0.068  25.444  1.00  0.00     0.165 C 
ATOM     28  H5  UNL     1      -7.792  -1.346  25.535  1.00  0.00     0.177 HD
ENDBRANCH   4  26
BRANCH  12  29
HETATM   29  N8  UNL     1     -10.143   2.374  20.438  1.00  0.00    -0.345 N 
ATOM     30  H8  UNL     1     -10.105   3.164  21.083  1.00  0.00     0.163 HD
BRANCH  29  31
HETATM   31  C12 UNL     1      -9.875   2.694  19.082  1.00  0.00     0.275 C 
BRANCH  31  32
HETATM   32  O2  UNL     1      -8.519   2.902  18.796  1.00  0.00    -0.372 OA
ATOM     33  H2  UNL     1      -8.243   3.809  18.845  1.00  0.00     0.212 HD
ENDBRANCH  31  32
BRANCH  31  34
HETATM   34  C13 UNL     1     -10.749   3.814  18.555  1.00  0.00     0.365 C 
BRANCH  34  35
HETATM   35  N9  UNL     1      -9.901   4.823  17.950  1.00  0.00    -0.049 N 
ATOM     36  H93 UNL     1      -9.220   4.424  17.304  1.00  0.00     0.277 HD
ATOM     37  H92 UNL     1     -10.405   5.406  17.282  1.00  0.00     0.277 HD
ATOM     38  H91 UNL     1      -9.462   5.370  18.691  1.00  0.00     0.277 HD
ENDBRANCH  34  35
BRANCH  34  39
HETATM   39  O3  UNL     1     -11.503   3.243  17.505  1.00  0.00    -0.367 OA
ATOM     40  H3  UNL     1     -11.560   3.916  16.838  1.00  0.00     0.212 HD
ENDBRANCH  34  39
ENDBRANCH  31  34
ENDBRANCH  29  31
ENDBRANCH  12  29
TORSDOF 11
ENDMDL
MODEL 2
REMARK VINA RESULT: -6.660246507      4.459      7.085
REMARK  11 active torsions:
REMARK  status: ('A' for Active; 'I' for Inactive)
REMARK    1  A    between atoms: C2_2  and  C3_3 
REMARK    2  A    between atoms: C3_3  and  N1_4 
REMARK       I    between atoms: N1_4  and  C4_6 
REMARK       I    between atoms: C4_6  and  N3_11 
REMARK    3  A    between atoms: N2_7  and  O1_9 
REMARK    4  A    between atoms: N3_11  and  C5_13 
REMARK    5  A    between atoms: C6_16  and  N5_17 
REMARK    6  A    between atoms: C11_27  and  N8_28 
REMARK    7  A    between atoms: N8_28  and  C12_30 
REMARK    8  A    between atoms: C12_30  and  O2_31 
REMARK    9  A    between atoms: C12_30  and  C13_33 
REMARK   10  A    between atoms: C13_33  and  N9_34 
REMARK   11  A    between atoms: C13_33  and  O3_38 
ROOT
HETATM    1  C5  UNL     1      -7.290   0.494  25.186  1.00  0.00     0.734 A 
HETATM    2  N4  UNL     1      -6.137   1.000  24.712  1.00  0.00    -0.020 N 
ATOM      3  H4  UNL     1      -5.304   0.972  25.300  1.00  0.00     0.203 HD
HETATM    4  C6  UNL     1      -6.053   1.540  23.484  1.00  0.00     0.706 A 
HETATM    5  N6  UNL     1      -7.152   1.572  22.716  1.00  0.00    -0.021 N 
ATOM      6  H6  UNL     1      -7.096   1.981  21.783  1.00  0.00     0.203 HD
HETATM    7  C8  UNL     1      -8.328   1.078  23.148  1.00  0.00     0.719 A 
HETATM    8  N7  UNL     1      -9.424   1.130  22.336  1.00  0.00    -0.200 N 
ATOM      9  H7  UNL     1      -9.334   1.545  21.409  1.00  0.00     0.183 HD
HETATM   10  C9  UNL     1     -10.615   0.650  22.723  1.00  0.00     0.110 A 
HETATM   11  C10 UNL     1     -10.691   0.098  23.986  1.00  0.00     0.067 A 
HETATM   12  C11 UNL     1      -9.574   0.055  24.790  1.00  0.00     0.146 A 
HETATM   13  N10 UNL     1      -8.367   0.548  24.381  1.00  0.00     0.039 N 
ENDROOT
BRANCH   1  14
HETATM   14  N3  UNL     1      -7.408  -0.018  26.329  1.00  0.00    -0.019 N 
HETATM   15  C4  UNL     1      -6.797   0.327  27.525  1.00  0.00     0.712 C 
HETATM   16  N1  UNL     1      -5.416   0.182  27.828  1.00  0.00    -0.224 N 
HETATM   17  N2  UNL     1      -7.542   0.832  28.463  1.00  0.00    -0.098 N 
ATOM     18  H1  UNL     1      -4.726   0.670  27.258  1.00  0.00     0.177 HD
ATOM     19  H2  UNL     1      -7.094   1.087  29.343  1.00  0.00     0.213 HD
ATOM     20  H3  UNL     1      -8.050  -0.809  26.384  1.00  0.00     0.203 HD
BRANCH  16  21
HETATM   21  C3  UNL     1      -4.968  -0.646  28.931  1.00  0.00     0.138 C 
BRANCH  21  22
HETATM   22  C2  UNL     1      -3.494  -0.969  28.820  1.00  0.00     0.016 C 
HETATM   23  C1  UNL     1      -2.926  -0.135  27.683  1.00  0.00     0.006 C 
ENDBRANCH  21  22
ENDBRANCH  16  21
BRANCH  17  24
HETATM   24  O1  UNL     1      -8.876   1.040  28.346  1.00  0.00    -0.276 OA
ATOM     25  H1  UNL     1      -9.283   1.509  27.627  1.00  0.00     0.245 HD
ENDBRANCH  17  24
ENDBRANCH   1  14
BRANCH   4  26
HETATM   26  N5  UNL     1      -4.937   2.029  23.025  1.00  0.00    -0.229 N 
HETATM   27  C7  UNL     1      -3.700   1.924  23.732  1.00  0.00     0.165 C 
ATOM     28  H5  UNL     1      -4.946   2.507  22.123  1.00  0.00     0.177 HD
ENDBRANCH   4  26
BRANCH  12  29
HETATM   29  N8  UNL     1      -9.634  -0.449  25.949  1.00  0.00    -0.345 N 
ATOM     30  H8  UNL     1      -8.957  -0.078  26.617  1.00  0.00     0.163 HD
BRANCH  29  31
HETATM   31  C12 UNL     1     -10.497  -1.450  26.466  1.00  0.00     0.275 C 
BRANCH  31  32
HETATM   32  O2  UNL     1     -11.587  -0.954  27.192  1.00  0.00    -0.372 OA
ATOM     33  H2  UNL     1     -12.413  -0.975  26.722  1.00  0.00     0.212 HD
ENDBRANCH  31  32
BRANCH  31  34
HETATM   34  C13 UNL     1      -9.756  -2.538  27.217  1.00  0.00     0.365 C 
BRANCH  34  35
HETATM   35  N9  UNL     1      -8.704  -3.059  26.366  1.00  0.00    -0.049 N 
ATOM     36  H93 UNL     1      -9.022  -3.831  25.780  1.00  0.00     0.277 HD
ATOM     37  H92 UNL     1      -8.449  -2.411  25.620  1.00  0.00     0.277 HD
ATOM     38  H91 UNL     1      -7.907  -3.315  26.949  1.00  0.00     0.277 HD
ENDBRANCH  34  35
BRANCH  34  39
HETATM   39  O3  UNL     1      -9.114  -1.883  28.292  1.00  0.00    -0.367 OA
ATOM     40  H3  UNL     1      -8.424  -2.473  28.573  1.00  0.00     0.212 HD
ENDBRANCH  34  39
ENDBRANCH  31  34
ENDBRANCH  29  31
ENDBRANCH  12  29
TORSDOF 11
ENDMDL
MODEL 3
REMARK VINA RESULT: -6.660229357      1.288      1.374
REMARK  11 active torsions:
REMARK  status: ('A' for Active; 'I' for Inactive)
REMARK    1  A    between atoms: C2_2  and  C3_3 
REMARK    2  A    between atoms: C3_3  and  N1_4 
REMARK       I    between atoms: N1_4  and  C4_6 
REMARK       I    between atoms: C4_6  and  N3_11 
REMARK    3  A    between atoms: N2_7  and  O1_9 
REMARK    4  A    between atoms: N3_11  and  C5_13 
REMARK    5  A    between atoms: C6_16  and  N5_17 
REMARK    6  A    between atoms: C11_27  and  N8_28 
REMARK    7  A    between atoms: N8_28  and  C12_30 
REMARK    8  A    between atoms: C12_30  and  O2_31 
REMARK    9  A    between atoms: C12_30  and  C13_33 
REMARK   10  A    between atoms: C13_33  and  N9_34 
REMARK   11  A    between atoms: C13_33  and  O3_38 
ROOT
HETATM    1  C5  UNL     1      -9.210   2.123  22.018  1.00  0.00     0.734 A 
HETATM    2  N4  UNL     1      -9.055   1.683  23.280  1.00  0.00    -0.020 N 
ATOM      3  H4  UNL     1      -8.541   2.259  23.947  1.00  0.00     0.203 HD
HETATM    4  C6  UNL     1      -9.560   0.506  23.686  1.00  0.00     0.706 A 
HETATM    5  N6  UNL     1     -10.236  -0.246  22.804  1.00  0.00    -0.021 N 
ATOM      6  H6  UNL     1     -10.621  -1.141  23.105  1.00  0.00     0.203 HD
HETATM    7  C8  UNL     1     -10.416   0.153  21.531  1.00  0.00     0.719 A 
HETATM    8  N7  UNL     1     -11.110  -0.641  20.663  1.00  0.00    -0.200 N 
ATOM      9  H7  UNL     1     -11.483  -1.530  20.996  1.00  0.00     0.183 HD
HETATM   10  C9  UNL     1     -11.315  -0.285  19.386  1.00  0.00     0.110 A 
HETATM   11  C10 UNL     1     -10.792   0.926  18.979  1.00  0.00     0.067 A 
HETATM   12  C11 UNL     1     -10.095   1.713  19.870  1.00  0.00     0.146 A 
HETATM   13  N10 UNL     1      -9.895   1.335  21.167  1.00  0.00     0.039 N 
ENDROOT
BRANCH   1  14
HETATM   14  N3  UNL     1      -8.752   3.218  21.601  1.00  0.00    -0.019 N 
HETATM   15  C4  UNL     1      -8.552   4.412  22.277  1.00  0.00     0.712 C 
HETATM   16  N1  UNL     1      -9.570   5.265  22.781  1.00  0.00    -0.224 N 
HETATM   17  N2  UNL     1      -7.327   4.798  22.476  1.00  0.00    -0.098 N 
ATOM     18  H1  UNL     1     -10.225   4.905  23.476  1.00  0.00     0.177 HD
ATOM     19  H2  UNL     1      -7.178   5.676  22.973  1.00  0.00     0.213 HD
ATOM     20  H3  UNL     1      -8.489   3.229  20.615  1.00  0.00     0.203 HD
BRANCH  16  21
HETATM   21  C3  UNL     1      -9.698   6.638  22.328  1.00  0.00     0.138 C 
BRANCH  21  22
HETATM   22  C2  UNL     1      -9.553   7.615  23.473  1.00  0.00     0.016 C 
HETATM   23  C1  UNL     1      -9.850   6.862  24.761  1.00  0.00     0.006 C 
ENDBRANCH  21  22
ENDBRANCH  16  21
BRANCH  17  24
HETATM   24  O1  UNL     1      -6.235   4.109  22.064  1.00  0.00    -0.276 OA
ATOM     25  H1  UNL     1      -5.346   4.303  22.337  1.00  0.00     0.245 HD
ENDBRANCH  17  24
ENDBRANCH   1  14
BRANCH   4  26
HETATM   26  N5  UNL     1      -9.411   0.079  24.907  1.00  0.00    -0.229 N 
HETATM   27  C7  UNL     1      -8.127  -0.122  25.502  1.00  0.00     0.165 C 
ATOM     28  H5  UNL     1     -10.244  -0.119  25.462  1.00  0.00     0.177 HD
ENDBRANCH   4  26
BRANCH  12  29
HETATM   29  N8  UNL     1      -9.612   2.824  19.505  1.00  0.00    -0.345 N 
ATOM     30  H8  UNL     1      -8.802   3.138  20.039  1.00  0.00     0.163 HD
BRANCH  29  31
HETATM   31  C12 UNL     1     -10.022   3.702  18.467  1.00  0.00     0.275 C 
BRANCH  31  32
HETATM   32  O2  UNL     1      -9.068   3.887  17.459  1.00  0.00    -0.372 OA
ATOM     33  H2  UNL     1      -9.153   4.707  16.986  1.00  0.00     0.212 HD
ENDBRANCH  31  32
BRANCH  31  34
HETATM   34  C13 UNL     1     -10.569   5.016  18.988  1.00  0.00     0.365 C 
BRANCH  34  35
HETATM   35  N9  UNL     1     -11.482   5.563  18.004  1.00  0.00    -0.049 N 
ATOM     36  H93 UNL     1     -11.229   6.510  17.720  1.00  0.00     0.277 HD
ATOM     37  H92 UNL     1     -11.391   5.113  17.093  1.00  0.00     0.277 HD
ATOM     38  H91 UNL     1     -12.432   5.509  18.372  1.00  0.00     0.277 HD
ENDBRANCH  34  35
BRANCH  34  39
HETATM   39  O3  UNL     1     -11.350   4.679  20.116  1.00  0.00    -0.367 OA
ATOM     40  H3  UNL     1     -11.604   3.773  19.988  1.00  0.00     0.212 HD
ENDBRANCH  34  39
ENDBRANCH  31  34
ENDBRANCH  29  31
ENDBRANCH  12  29
TORSDOF 11
ENDMDL
MODEL 4
REMARK VINA RESULT: -6.629193923      2.080      3.629
REMARK  11 active torsions:
REMARK  status: ('A' for Active; 'I' for Inactive)
REMARK    1  A    between atoms: C2_2  and  C3_3 
REMARK    2  A    between atoms: C3_3  and  N1_4 
REMARK       I    between atoms: N1_4  and  C4_6 
REMARK       I    between atoms: C4_6  and  N3_11 
REMARK    3  A    between atoms: N2_7  and  O1_9 
REMARK    4  A    between atoms: N3_11  and  C5_13 
REMARK    5  A    between atoms: C6_16  and  N5_17 
REMARK    6  A    between atoms: C11_27  and  N8_28 
REMARK    7  A    between atoms: N8_28  and  C12_30 
REMARK    8  A    between atoms: C12_30  and  O2_31 
REMARK    9  A    between atoms: C12_30  and  C13_33 
REMARK   10  A    between atoms: C13_33  and  N9_34 
REMARK   11  A    between atoms: C13_33  and  O3_38 
ROOT
HETATM    1  C5  UNL     1      -7.696   1.551  23.282  1.00  0.00     0.734 A 
HETATM    2  N4  UNL     1      -6.426   1.987  23.198  1.00  0.00    -0.020 N 
ATOM      3  H4  UNL     1      -6.210   2.770  22.580  1.00  0.00     0.203 HD
HETATM    4  C6  UNL     1      -5.435   1.420  23.906  1.00  0.00     0.706 A 
HETATM    5  N6  UNL     1      -5.726   0.392  24.716  1.00  0.00    -0.021 N 
ATOM      6  H6  UNL     1      -4.979  -0.044  25.257  1.00  0.00     0.203 HD
HETATM    7  C8  UNL     1      -6.982  -0.079  24.833  1.00  0.00     0.719 A 
HETATM    8  N7  UNL     1      -7.238  -1.128  25.669  1.00  0.00    -0.200 N 
ATOM      9  H7  UNL     1      -6.468  -1.541  26.195  1.00  0.00     0.183 HD
HETATM   10  C9  UNL     1      -8.473  -1.630  25.818  1.00  0.00     0.110 A 
HETATM   11  C10 UNL     1      -9.484  -1.041  25.085  1.00  0.00     0.067 A 
HETATM   12  C11 UNL     1      -9.205   0.017  24.248  1.00  0.00     0.146 A 
HETATM   13  N10 UNL     1      -7.942   0.516  24.108  1.00  0.00     0.039 N 
ENDROOT
BRANCH   1  14
HETATM   14  N3  UNL     1      -8.650   2.055  22.635  1.00  0.00    -0.019 N 
HETATM   15  C4  UNL     1      -8.704   3.233  21.905  1.00  0.00     0.712 C 
HETATM   16  N1  UNL     1      -8.640   4.548  22.439  1.00  0.00    -0.224 N 
HETATM   17  N2  UNL     1      -8.821   3.141  20.613  1.00  0.00    -0.098 N 
ATOM     18  H1  UNL     1      -7.814   4.834  22.965  1.00  0.00     0.177 HD
ATOM     19  H2  UNL     1      -8.860   4.006  20.075  1.00  0.00     0.213 HD
ATOM     20  H3  UNL     1      -9.516   1.516  22.651  1.00  0.00     0.203 HD
BRANCH  16  21
HETATM   21  C3  UNL     1      -9.725   5.493  22.251  1.00  0.00     0.138 C 
BRANCH  21  22
HETATM   22  C2  UNL     1     -10.560   5.634  23.504  1.00  0.00     0.016 C 
HETATM   23  C1  UNL     1      -9.763   6.467  24.496  1.00  0.00     0.006 C 
ENDBRANCH  21  22
ENDBRANCH  16  21
BRANCH  17  24
HETATM   24  O1  UNL     1      -8.896   1.969  19.937  1.00  0.00    -0.276 OA
ATOM     25  H1  UNL     1      -8.248   1.672  19.309  1.00  0.00     0.245 HD
ENDBRANCH  17  24
ENDBRANCH   1  14
BRANCH   4  26
HETATM   26  N5  UNL     1      -4.205   1.842  23.825  1.00  0.00    -0.229 N 
HETATM   27  C7  UNL     1      -3.292   1.769  24.922  1.00  0.00     0.165 C 
ATOM     28  H5  UNL     1      -3.881   2.241  22.944  1.00  0.00     0.177 HD
ENDBRANCH   4  26
BRANCH  12  29
HETATM   29  N8  UNL     1     -10.126   0.562  23.573  1.00  0.00    -0.345 N 
ATOM     30  H8  UNL     1     -10.343   1.524  23.837  1.00  0.00     0.163 HD
BRANCH  29  31
HETATM   31  C12 UNL     1     -10.905   0.045  22.505  1.00  0.00     0.275 C 
BRANCH  31  32
HETATM   32  O2  UNL     1     -10.156  -0.415  21.415  1.00  0.00    -0.372 OA
ATOM     33  H2  UNL     1     -10.568  -0.276  20.570  1.00  0.00     0.212 HD
ENDBRANCH  31  32
BRANCH  31  34
HETATM   34  C13 UNL     1     -12.019   0.981  22.080  1.00  0.00     0.365 C 
BRANCH  34  35
HETATM   35  N9  UNL     1     -12.203   1.985  23.110  1.00  0.00    -0.049 N 
ATOM     36  H93 UNL     1     -12.228   1.582  24.048  1.00  0.00     0.277 HD
ATOM     37  H92 UNL     1     -11.380   2.575  23.231  1.00  0.00     0.277 HD
ATOM     38  H91 UNL     1     -13.042   2.525  22.896  1.00  0.00     0.277 HD
ENDBRANCH  34  35
BRANCH  34  39
HETATM   39  O3  UNL     1     -11.529   1.660  20.942  1.00  0.00    -0.367 OA
ATOM     40  H3  UNL     1     -10.994   1.026  20.479  1.00  0.00     0.212 HD
ENDBRANCH  34  39
ENDBRANCH  31  34
ENDBRANCH  29  31
ENDBRANCH  12  29
TORSDOF 11
ENDMDL
MODEL 5
REMARK VINA RESULT: -6.561488243      2.551      6.408
REMARK  11 active torsions:
REMARK  status: ('A' for Active; 'I' for Inactive)
REMARK    1  A    between atoms: C2_2  and  C3_3 
REMARK    2  A    between atoms: C3_3  and  N1_4 
REMARK       I    between atoms: N1_4  and  C4_6 
REMARK       I    between atoms: C4_6  and  N3_11 
REMARK    3  A    between atoms: N2_7  and  O1_9 
REMARK    4  A    between atoms: N3_11  and  C5_13 
REMARK    5  A    between atoms: C6_16  and  N5_17 
REMARK    6  A    between atoms: C11_27  and  N8_28 
REMARK    7  A    between atoms: N8_28  and  C12_30 
REMARK    8  A    between atoms: C12_30  and  O2_31 
REMARK    9  A    between atoms: C12_30  and  C13_33 
REMARK   10  A    between atoms: C13_33  and  N9_34 
REMARK   11  A    between atoms: C13_33  and  O3_38 
ROOT
HETATM    1  C5  UNL     1      -9.968   4.693  20.719  1.00  0.00     0.734 A 
HETATM    2  N4  UNL     1      -9.941   3.940  19.605  1.00  0.00    -0.020 N 
ATOM      3  H4  UNL     1      -9.421   3.062  19.612  1.00  0.00     0.203 HD
HETATM    4  C6  UNL     1     -10.581   4.312  18.483  1.00  0.00     0.706 A 
HETATM    5  N6  UNL     1     -11.264   5.466  18.482  1.00  0.00    -0.021 N 
ATOM      6  H6  UNL     1     -11.752   5.756  17.634  1.00  0.00     0.203 HD
HETATM    7  C8  UNL     1     -11.319   6.253  19.573  1.00  0.00     0.719 A 
HETATM    8  N7  UNL     1     -12.025   7.421  19.531  1.00  0.00    -0.200 N 
ATOM      9  H7  UNL     1     -12.501   7.681  18.667  1.00  0.00     0.183 HD
HETATM   10  C9  UNL     1     -12.108   8.237  20.593  1.00  0.00     0.110 A 
HETATM   11  C10 UNL     1     -11.447   7.846  21.740  1.00  0.00     0.067 A 
HETATM   12  C11 UNL     1     -10.741   6.663  21.762  1.00  0.00     0.146 A 
HETATM   13  N10 UNL     1     -10.665   5.844  20.671  1.00  0.00     0.039 N 
ENDROOT
BRANCH   1  14
HETATM   14  N3  UNL     1      -9.382   4.379  21.786  1.00  0.00    -0.019 N 
HETATM   15  C4  UNL     1      -8.764   3.190  22.144  1.00  0.00     0.712 C 
HETATM   16  N1  UNL     1      -9.417   1.950  22.379  1.00  0.00    -0.224 N 
HETATM   17  N2  UNL     1      -7.472   3.195  22.279  1.00  0.00    -0.098 N 
ATOM     18  H1  UNL     1      -9.958   1.520  21.629  1.00  0.00     0.177 HD
ATOM     19  H2  UNL     1      -7.016   2.321  22.541  1.00  0.00     0.213 HD
ATOM     20  H3  UNL     1      -9.357   5.110  22.498  1.00  0.00     0.203 HD
BRANCH  16  21
HETATM   21  C3  UNL     1      -9.330   1.282  23.664  1.00  0.00     0.138 C 
BRANCH  21  22
HETATM   22  C2  UNL     1      -8.591  -0.033  23.557  1.00  0.00     0.016 C 
HETATM   23  C1  UNL     1      -7.299   0.100  24.349  1.00  0.00     0.006 C 
ENDBRANCH  21  22
ENDBRANCH  16  21
BRANCH  17  24
HETATM   24  O1  UNL     1      -6.690   4.287  22.094  1.00  0.00    -0.276 OA
ATOM     25  H1  UNL     1      -6.345   4.560  21.252  1.00  0.00     0.245 HD
ENDBRANCH  17  24
ENDBRANCH   1  14
BRANCH   4  26
HETATM   26  N5  UNL     1     -10.556   3.582  17.404  1.00  0.00    -0.229 N 
HETATM   27  C7  UNL     1     -10.596   2.154  17.438  1.00  0.00     0.165 C 
ATOM     28  H5  UNL     1     -10.504   4.049  16.498  1.00  0.00     0.177 HD
ENDBRANCH   4  26
BRANCH  12  29
HETATM   29  N8  UNL     1     -10.131   6.298  22.809  1.00  0.00    -0.345 N 
ATOM     30  H8  UNL     1     -10.373   5.365  23.145  1.00  0.00     0.163 HD
BRANCH  29  31
HETATM   31  C12 UNL     1      -9.163   6.983  23.588  1.00  0.00     0.275 C 
BRANCH  31  32
HETATM   32  O2  UNL     1      -9.697   7.715  24.657  1.00  0.00    -0.372 OA
ATOM     33  H2  UNL     1      -9.682   8.656  24.533  1.00  0.00     0.212 HD
ENDBRANCH  31  32
BRANCH  31  34
HETATM   34  C13 UNL     1      -8.207   7.808  22.751  1.00  0.00     0.365 C 
BRANCH  34  35
HETATM   35  N9  UNL     1      -7.265   8.469  23.633  1.00  0.00    -0.049 N 
ATOM     36  H93 UNL     1      -6.374   7.975  23.693  1.00  0.00     0.277 HD
ATOM     37  H92 UNL     1      -6.915   9.345  23.244  1.00  0.00     0.277 HD
ATOM     38  H91 UNL     1      -7.703   8.594  24.546  1.00  0.00     0.277 HD
ENDBRANCH  34  35
BRANCH  34  39
HETATM   39  O3  UNL     1      -7.461   6.872  21.998  1.00  0.00    -0.367 OA
ATOM     40  H3  UNL     1      -7.788   6.943  21.109  1.00  0.00     0.212 HD
ENDBRANCH  34  39
ENDBRANCH  31  34
ENDBRANCH  29  31
ENDBRANCH  12  29
TORSDOF 11
ENDMDL
