MODEL 1
REMARK VINA RESULT: -5.955569988      0.000      0.000
REMARK  7 active torsions:
REMARK  status: ('A' for Active; 'I' for Inactive)
REMARK    1  A    between atoms: C2_2  and  N1_3 
REMARK    2  A    between atoms: N1_3  and  C3_5 
REMARK    3  A    between atoms: C3_5  and  O1_6 
REMARK    4  A    between atoms: C3_5  and  C4_8 
REMARK    5  A    between atoms: C4_8  and  N2_9 
REMARK    6  A    between atoms: C4_8  and  C5_13 
REMARK    7  A    between atoms: C11_27  and  N6_28 
ROOT
HETATM    1  C1  UNL     1     -11.695   4.197  22.150  1.00  0.00     0.041 C 
HETATM    2  C2  UNL     1     -10.320   3.753  21.538  1.00  0.00     0.059 C 
HETATM    3  C6  UNL     1      -9.549   3.115  22.614  1.00  0.00     0.172 C 
HETATM    4  S2  UNL     1     -10.414   1.907  23.586  1.00  0.00     0.148 S 
HETATM    5  O2  UNL     1      -9.355   1.333  24.527  1.00  0.00    -0.228 OA
HETATM    6  O3  UNL     1     -11.468   2.472  24.452  1.00  0.00    -0.228 OA
HETATM    7  C7  UNL     1     -10.951   0.536  22.600  1.00  0.00     0.160 C 
HETATM    8  C8  UNL     1     -10.056   0.551  21.377  1.00  0.00     0.141 C 
HETATM    9  N3  UNL     1     -10.550   1.520  20.412  1.00  0.00    -0.346 N 
HETATM   10  C9  UNL     1     -11.002   0.800  19.259  1.00  0.00     0.186 C 
HETATM   11  N4  UNL     1     -11.254  -0.616  19.403  1.00  0.00    -0.064 NA
HETATM   12  N5  UNL     1     -11.171   1.396  18.146  1.00  0.00    -0.362 N 
ATOM     13  H5  UNL     1     -11.495   0.840  17.355  1.00  0.00     0.162 HD
HETATM   14  C10 UNL     1     -10.937   2.792  17.926  1.00  0.00     0.157 C 
HETATM   15  C11 UNL     1     -10.058   3.391  19.026  1.00  0.00     0.226 C 
HETATM   16  C12 UNL     1     -10.673   2.932  20.364  1.00  0.00     0.147 C 
ENDROOT
BRANCH   2  17
HETATM   17  N1  UNL     1      -9.653   4.930  21.053  1.00  0.00    -0.384 N 
ATOM     18  H1  UNL     1      -8.884   4.830  20.390  1.00  0.00     0.156 HD
BRANCH  17  19
HETATM   19  C3  UNL     1     -10.036   6.209  21.470  1.00  0.00     0.245 C 
BRANCH  19  20
HETATM   20  O1  UNL     1     -10.593   6.980  20.404  1.00  0.00    -0.375 OA
ATOM     21  H1  UNL     1     -11.156   6.461  19.842  1.00  0.00     0.212 HD
ENDBRANCH  19  20
BRANCH  19  22
HETATM   22  C4  UNL     1      -8.905   7.035  22.023  1.00  0.00     0.241 C 
BRANCH  22  23
HETATM   23  N2  UNL     1      -7.715   6.308  22.320  1.00  0.00    -0.070 N 
ATOM     24  H23 UNL     1      -7.830   5.327  22.066  1.00  0.00     0.274 HD
ATOM     25  H22 UNL     1      -6.971   6.573  21.676  1.00  0.00     0.274 HD
ATOM     26  H21 UNL     1      -7.391   6.386  23.285  1.00  0.00     0.274 HD
ENDBRANCH  22  23
BRANCH  22  27
HETATM   27  C5  UNL     1      -9.316   7.727  23.331  1.00  0.00     0.123 C 
HETATM   28  S1  UNL     1      -9.855   6.502  24.548  1.00  0.00    -0.095 SA
ENDBRANCH  22  27
ENDBRANCH  19  22
ENDBRANCH  17  19
ENDBRANCH   2  17
BRANCH  15  29
HETATM   29  N6  UNL     1      -8.740   2.900  18.805  1.00  0.00    -0.071 N 
ATOM     30  H63 UNL     1      -8.714   1.912  18.551  1.00  0.00     0.274 HD
ATOM     31  H62 UNL     1      -8.313   3.262  17.952  1.00  0.00     0.274 HD
ATOM     32  H61 UNL     1      -8.205   3.114  19.646  1.00  0.00     0.274 HD
ENDBRANCH  15  29
TORSDOF 7
ENDMDL
MODEL 2
REMARK VINA RESULT: -5.483936599      6.284      8.036
REMARK  7 active torsions:
REMARK  status: ('A' for Active; 'I' for Inactive)
REMARK    1  A    between atoms: C2_2  and  N1_3 
REMARK    2  A    between atoms: N1_3  and  C3_5 
REMARK    3  A    between atoms: C3_5  and  O1_6 
REMARK    4  A    between atoms: C3_5  and  C4_8 
REMARK    5  A    between atoms: C4_8  and  N2_9 
REMARK    6  A    between atoms: C4_8  and  C5_13 
REMARK    7  A    between atoms: C11_27  and  N6_28 
ROOT
HETATM    1  C1  UNL     1      -6.385  -0.747  24.547  1.00  0.00     0.041 C 
HETATM    2  C2  UNL     1      -6.313   0.479  25.524  1.00  0.00     0.059 C 
HETATM    3  C6  UNL     1      -7.587   0.531  26.254  1.00  0.00     0.172 C 
HETATM    4  S2  UNL     1      -8.156  -1.004  26.944  1.00  0.00     0.148 S 
HETATM    5  O2  UNL     1      -9.411  -0.634  27.735  1.00  0.00    -0.228 OA
HETATM    6  O3  UNL     1      -8.584  -1.996  25.937  1.00  0.00    -0.228 OA
HETATM    7  C7  UNL     1      -7.020  -1.642  28.145  1.00  0.00     0.160 C 
HETATM    8  C8  UNL     1      -6.210  -0.445  28.603  1.00  0.00     0.141 C 
HETATM    9  N3  UNL     1      -5.147  -0.172  27.650  1.00  0.00    -0.346 N 
HETATM   10  C9  UNL     1      -3.898  -0.434  28.300  1.00  0.00     0.186 C 
HETATM   11  N4  UNL     1      -3.917  -1.234  29.504  1.00  0.00    -0.064 NA
HETATM   12  N5  UNL     1      -2.810   0.030  27.827  1.00  0.00    -0.362 N 
ATOM     13  H5  UNL     1      -1.946  -0.186  28.325  1.00  0.00     0.162 HD
HETATM   14  C10 UNL     1      -2.713   0.833  26.645  1.00  0.00     0.157 C 
HETATM   15  C11 UNL     1      -4.066   1.434  26.265  1.00  0.00     0.226 C 
HETATM   16  C12 UNL     1      -5.079   0.271  26.305  1.00  0.00     0.147 C 
ENDROOT
BRANCH   2  17
HETATM   17  N1  UNL     1      -6.125   1.663  24.731  1.00  0.00    -0.384 N 
ATOM     18  H1  UNL     1      -6.166   2.577  25.182  1.00  0.00     0.156 HD
BRANCH  17  19
HETATM   19  C3  UNL     1      -5.885   1.589  23.355  1.00  0.00     0.245 C 
BRANCH  19  20
HETATM   20  O1  UNL     1      -4.633   2.172  22.993  1.00  0.00    -0.375 OA
ATOM     21  H1  UNL     1      -4.535   2.258  22.052  1.00  0.00     0.212 HD
ENDBRANCH  19  20
BRANCH  19  22
HETATM   22  C4  UNL     1      -6.920   2.293  22.517  1.00  0.00     0.241 C 
BRANCH  22  23
HETATM   23  N2  UNL     1      -6.839   3.715  22.525  1.00  0.00    -0.070 N 
ATOM     24  H23 UNL     1      -6.992   4.072  23.468  1.00  0.00     0.274 HD
ATOM     25  H22 UNL     1      -5.874   4.013  22.377  1.00  0.00     0.274 HD
ATOM     26  H21 UNL     1      -7.457   4.188  21.865  1.00  0.00     0.274 HD
ENDBRANCH  22  23
BRANCH  22  27
HETATM   27  C5  UNL     1      -8.341   1.947  22.992  1.00  0.00     0.123 C 
HETATM   28  S1  UNL     1      -9.516   3.196  22.416  1.00  0.00    -0.095 SA
ENDBRANCH  22  27
ENDBRANCH  19  22
ENDBRANCH  17  19
ENDBRANCH   2  17
BRANCH  15  29
HETATM   29  N6  UNL     1      -4.336   2.459  27.217  1.00  0.00    -0.071 N 
ATOM     30  H63 UNL     1      -4.014   2.231  28.158  1.00  0.00     0.274 HD
ATOM     31  H62 UNL     1      -3.765   3.293  27.085  1.00  0.00     0.274 HD
ATOM     32  H61 UNL     1      -5.338   2.644  27.168  1.00  0.00     0.274 HD
ENDBRANCH  15  29
TORSDOF 7
ENDMDL
MODEL 3
REMARK VINA RESULT: -5.469808732      1.497      1.592
REMARK  7 active torsions:
REMARK  status: ('A' for Active; 'I' for Inactive)
REMARK    1  A    between atoms: C2_2  and  N1_3 
REMARK    2  A    between atoms: N1_3  and  C3_5 
REMARK    3  A    between atoms: C3_5  and  O1_6 
REMARK    4  A    between atoms: C3_5  and  C4_8 
REMARK    5  A    between atoms: C4_8  and  N2_9 
REMARK    6  A    between atoms: C4_8  and  C5_13 
REMARK    7  A    between atoms: C11_27  and  N6_28 
ROOT
HETATM    1  C1  UNL     1     -11.475   4.937  22.138  1.00  0.00     0.041 C 
HETATM    2  C2  UNL     1     -10.353   4.842  21.045  1.00  0.00     0.059 C 
HETATM    3  C6  UNL     1      -9.186   4.205  21.670  1.00  0.00     0.172 C 
HETATM    4  S2  UNL     1      -9.508   2.732  22.609  1.00  0.00     0.148 S 
HETATM    5  O2  UNL     1      -8.127   2.229  23.030  1.00  0.00    -0.228 OA
HETATM    6  O3  UNL     1     -10.258   2.966  23.860  1.00  0.00    -0.228 OA
HETATM    7  C7  UNL     1     -10.183   1.445  21.596  1.00  0.00     0.160 C 
HETATM    8  C8  UNL     1      -9.775   1.798  20.179  1.00  0.00     0.141 C 
HETATM    9  N3  UNL     1     -10.687   2.791  19.634  1.00  0.00    -0.346 N 
HETATM   10  C9  UNL     1     -11.418   2.177  18.568  1.00  0.00     0.186 C 
HETATM   11  N4  UNL     1     -11.431   0.732  18.501  1.00  0.00    -0.064 NA
HETATM   12  N5  UNL     1     -12.032   2.887  17.707  1.00  0.00    -0.362 N 
ATOM     13  H5  UNL     1     -12.540   2.402  16.967  1.00  0.00     0.162 HD
HETATM   14  C10 UNL     1     -12.060   4.319  17.704  1.00  0.00     0.157 C 
HETATM   15  C11 UNL     1     -10.935   4.901  18.561  1.00  0.00     0.226 C 
HETATM   16  C12 UNL     1     -10.989   4.150  19.907  1.00  0.00     0.147 C 
ENDROOT
BRANCH   2  17
HETATM   17  N1  UNL     1     -10.044   6.178  20.615  1.00  0.00    -0.384 N 
ATOM     18  H1  UNL     1      -9.694   6.329  19.668  1.00  0.00     0.156 HD
BRANCH  17  19
HETATM   19  C3  UNL     1     -10.212   7.275  21.465  1.00  0.00     0.245 C 
BRANCH  19  20
HETATM   20  O1  UNL     1     -11.209   8.180  20.989  1.00  0.00    -0.375 OA
ATOM     21  H1  UNL     1     -12.064   8.001  21.364  1.00  0.00     0.212 HD
ENDBRANCH  19  20
BRANCH  19  22
HETATM   22  C4  UNL     1      -8.966   8.101  21.649  1.00  0.00     0.241 C 
BRANCH  22  23
HETATM   23  N2  UNL     1      -8.045   8.056  20.562  1.00  0.00    -0.070 N 
ATOM     24  H23 UNL     1      -8.219   8.830  19.922  1.00  0.00     0.274 HD
ATOM     25  H22 UNL     1      -7.108   8.297  20.884  1.00  0.00     0.274 HD
ATOM     26  H21 UNL     1      -8.024   7.174  20.050  1.00  0.00     0.274 HD
ENDBRANCH  22  23
BRANCH  22  27
HETATM   27  C5  UNL     1      -8.180   7.644  22.888  1.00  0.00     0.123 C 
HETATM   28  S1  UNL     1      -9.316   7.113  24.192  1.00  0.00    -0.095 SA
ENDBRANCH  22  27
ENDBRANCH  19  22
ENDBRANCH  17  19
ENDBRANCH   2  17
BRANCH  15  29
HETATM   29  N6  UNL     1      -9.726   4.694  17.838  1.00  0.00    -0.071 N 
ATOM     30  H63 UNL     1      -9.843   4.104  17.014  1.00  0.00     0.274 HD
ATOM     31  H62 UNL     1      -9.398   5.528  17.353  1.00  0.00     0.274 HD
ATOM     32  H61 UNL     1      -9.049   4.324  18.506  1.00  0.00     0.274 HD
ENDBRANCH  15  29
TORSDOF 7
ENDMDL
MODEL 4
REMARK VINA RESULT: -5.343202161      6.506      8.332
REMARK  7 active torsions:
REMARK  status: ('A' for Active; 'I' for Inactive)
REMARK    1  A    between atoms: C2_2  and  N1_3 
REMARK    2  A    between atoms: N1_3  and  C3_5 
REMARK    3  A    between atoms: C3_5  and  O1_6 
REMARK    4  A    between atoms: C3_5  and  C4_8 
REMARK    5  A    between atoms: C4_8  and  N2_9 
REMARK    6  A    between atoms: C4_8  and  C5_13 
REMARK    7  A    between atoms: C11_27  and  N6_28 
ROOT
HETATM    1  C1  UNL     1      -4.906  -0.920  25.253  1.00  0.00     0.041 C 
HETATM    2  C2  UNL     1      -5.819   0.050  26.080  1.00  0.00     0.059 C 
HETATM    3  C6  UNL     1      -6.013   1.263  25.274  1.00  0.00     0.172 C 
HETATM    4  S2  UNL     1      -6.460   1.008  23.574  1.00  0.00     0.148 S 
HETATM    5  O2  UNL     1      -6.711   2.411  23.022  1.00  0.00    -0.228 OA
HETATM    6  O3  UNL     1      -5.381   0.430  22.747  1.00  0.00    -0.228 OA
HETATM    7  C7  UNL     1      -8.011   0.164  23.424  1.00  0.00     0.160 C 
HETATM    8  C8  UNL     1      -8.722   0.403  24.741  1.00  0.00     0.141 C 
HETATM    9  N3  UNL     1      -8.239  -0.533  25.743  1.00  0.00    -0.346 N 
HETATM   10  C9  UNL     1      -9.316  -1.415  26.076  1.00  0.00     0.186 C 
HETATM   11  N4  UNL     1     -10.436  -1.489  25.164  1.00  0.00    -0.064 NA
HETATM   12  N5  UNL     1      -9.283  -2.106  27.146  1.00  0.00    -0.362 N 
ATOM     13  H5  UNL     1     -10.074  -2.721  27.338  1.00  0.00     0.162 HD
HETATM   14  C10 UNL     1      -8.214  -2.081  28.098  1.00  0.00     0.157 C 
HETATM   15  C11 UNL     1      -7.342  -0.837  27.926  1.00  0.00     0.226 C 
HETATM   16  C12 UNL     1      -7.012  -0.748  26.422  1.00  0.00     0.147 C 
ENDROOT
BRANCH   2  17
HETATM   17  N1  UNL     1      -5.140   0.352  27.311  1.00  0.00    -0.384 N 
ATOM     18  H1  UNL     1      -5.685   0.627  28.128  1.00  0.00     0.156 HD
BRANCH  17  19
HETATM   19  C3  UNL     1      -3.747   0.277  27.411  1.00  0.00     0.245 C 
BRANCH  19  20
HETATM   20  O1  UNL     1      -3.326  -0.328  28.635  1.00  0.00    -0.375 OA
ATOM     21  H1  UNL     1      -2.381  -0.318  28.734  1.00  0.00     0.212 HD
ENDBRANCH  19  20
BRANCH  19  22
HETATM   22  C4  UNL     1      -3.058   1.615  27.359  1.00  0.00     0.241 C 
BRANCH  22  23
HETATM   23  N2  UNL     1      -3.927   2.744  27.412  1.00  0.00    -0.070 N 
ATOM     24  H23 UNL     1      -4.554   2.669  28.213  1.00  0.00     0.274 HD
ATOM     25  H22 UNL     1      -3.403   3.579  27.673  1.00  0.00     0.274 HD
ATOM     26  H21 UNL     1      -4.462   2.917  26.560  1.00  0.00     0.274 HD
ENDBRANCH  22  23
BRANCH  22  27
HETATM   27  C5  UNL     1      -2.244   1.766  26.065  1.00  0.00     0.123 C 
HETATM   28  S1  UNL     1      -1.178   0.325  25.821  1.00  0.00    -0.095 SA
ENDBRANCH  22  27
ENDBRANCH  19  22
ENDBRANCH  17  19
ENDBRANCH   2  17
BRANCH  15  29
HETATM   29  N6  UNL     1      -8.105   0.264  28.410  1.00  0.00    -0.071 N 
ATOM     30  H63 UNL     1      -8.803   0.595  27.744  1.00  0.00     0.274 HD
ATOM     31  H62 UNL     1      -8.752   0.009  29.156  1.00  0.00     0.274 HD
ATOM     32  H61 UNL     1      -7.436   0.983  28.684  1.00  0.00     0.274 HD
ENDBRANCH  15  29
TORSDOF 7
ENDMDL
MODEL 5
REMARK VINA RESULT: -5.270102442      4.825      6.725
REMARK  7 active torsions:
REMARK  status: ('A' for Active; 'I' for Inactive)
REMARK    1  A    between atoms: C2_2  and  N1_3 
REMARK    2  A    between atoms: N1_3  and  C3_5 
REMARK    3  A    between atoms: C3_5  and  O1_6 
REMARK    4  A    between atoms: C3_5  and  C4_8 
REMARK    5  A    between atoms: C4_8  and  N2_9 
REMARK    6  A    between atoms: C4_8  and  C5_13 
REMARK    7  A    between atoms: C11_27  and  N6_28 
ROOT
HETATM    1  C1  UNL     1      -8.545  -0.743  22.704  1.00  0.00     0.041 C 
HETATM    2  C2  UNL     1      -8.403   0.148  23.986  1.00  0.00     0.059 C 
HETATM    3  C6  UNL     1      -8.789   1.516  23.613  1.00  0.00     0.172 C 
HETATM    4  S2  UNL     1     -10.300   1.679  22.694  1.00  0.00     0.148 S 
HETATM    5  O2  UNL     1     -10.510   3.187  22.554  1.00  0.00    -0.228 OA
HETATM    6  O3  UNL     1     -10.230   1.146  21.318  1.00  0.00    -0.228 OA
HETATM    7  C7  UNL     1     -11.695   1.099  23.620  1.00  0.00     0.160 C 
HETATM    8  C8  UNL     1     -11.260   1.154  25.071  1.00  0.00     0.141 C 
HETATM    9  N3  UNL     1     -10.473  -0.024  25.398  1.00  0.00    -0.346 N 
HETATM   10  C9  UNL     1     -11.221  -0.804  26.337  1.00  0.00     0.186 C 
HETATM   11  N4  UNL     1     -12.637  -0.538  26.461  1.00  0.00    -0.064 NA
HETATM   12  N5  UNL     1     -10.649  -1.699  27.041  1.00  0.00    -0.362 N 
ATOM     13  H5  UNL     1     -11.225  -2.229  27.695  1.00  0.00     0.162 HD
HETATM   14  C10 UNL     1      -9.253  -2.014  26.978  1.00  0.00     0.157 C 
HETATM   15  C11 UNL     1      -8.456  -0.889  26.317  1.00  0.00     0.226 C 
HETATM   16  C12 UNL     1      -9.207  -0.537  25.017  1.00  0.00     0.147 C 
ENDROOT
BRANCH   2  17
HETATM   17  N1  UNL     1      -7.031   0.097  24.409  1.00  0.00    -0.384 N 
ATOM     18  H1  UNL     1      -6.711  -0.694  24.969  1.00  0.00     0.156 HD
BRANCH  17  19
HETATM   19  C3  UNL     1      -6.125   1.106  24.070  1.00  0.00     0.245 C 
BRANCH  19  20
HETATM   20  O1  UNL     1      -5.469   0.849  22.828  1.00  0.00    -0.375 OA
ATOM     21  H1  UNL     1      -4.534   1.014  22.874  1.00  0.00     0.212 HD
ENDBRANCH  19  20
BRANCH  19  22
HETATM   22  C4  UNL     1      -5.024   1.303  25.080  1.00  0.00     0.241 C 
BRANCH  22  23
HETATM   23  N2  UNL     1      -3.815   1.845  24.556  1.00  0.00    -0.070 N 
ATOM     24  H23 UNL     1      -3.594   1.412  23.660  1.00  0.00     0.274 HD
ATOM     25  H22 UNL     1      -3.961   2.809  24.257  1.00  0.00     0.274 HD
ATOM     26  H21 UNL     1      -3.010   1.790  25.182  1.00  0.00     0.274 HD
ENDBRANCH  22  23
BRANCH  22  27
HETATM   27  C5  UNL     1      -4.640  -0.029  25.742  1.00  0.00     0.123 C 
HETATM   28  S1  UNL     1      -4.589   0.155  27.541  1.00  0.00    -0.095 SA
ENDBRANCH  22  27
ENDBRANCH  19  22
ENDBRANCH  17  19
ENDBRANCH   2  17
BRANCH  15  29
HETATM   29  N6  UNL     1      -8.407   0.180  27.257  1.00  0.00    -0.071 N 
ATOM     30  H63 UNL     1      -7.684   0.062  27.966  1.00  0.00     0.274 HD
ATOM     31  H62 UNL     1      -8.055   1.050  26.859  1.00  0.00     0.274 HD
ATOM     32  H61 UNL     1      -9.345   0.265  27.648  1.00  0.00     0.274 HD
ENDBRANCH  15  29
TORSDOF 7
ENDMDL
