MODEL 1
REMARK VINA RESULT: -8.181810413      0.000      0.000
REMARK  12 active torsions:
REMARK  status: ('A' for Active; 'I' for Inactive)
REMARK    1  A    between atoms: O1_2  and  C2_3 
REMARK    2  A    between atoms: C2_3  and  C3_5 
REMARK    3  A    between atoms: C6_8  and  N1_9 
REMARK    4  A    between atoms: N1_9  and  C7_11 
REMARK    5  A    between atoms: C13_19  and  O3_20 
REMARK    6  A    between atoms: C13_19  and  O4_22 
REMARK    7  A    between atoms: C14_24  and  N3_25 
REMARK    8  A    between atoms: C15_28  and  N5_29 
REMARK    9  A    between atoms: N5_29  and  C16_31 
REMARK   10  A    between atoms: C16_31  and  C17_32 
REMARK   11  A    between atoms: C18_38  and  S1_39 
REMARK   12  A    between atoms: C20_41  and  C21_42 
ROOT
HETATM    1  C7  UNL     1      27.568  26.976  25.845  1.00  0.00     0.035 A 
HETATM    2  C8  UNL     1      27.252  28.293  25.868  1.00  0.00     0.030 A 
HETATM    3  C9  UNL     1      27.239  29.078  24.718  1.00  0.00     0.017 A 
HETATM    4  C10 UNL     1      27.554  28.513  23.513  1.00  0.00     0.010 A 
HETATM    5  C11 UNL     1      27.880  27.153  23.501  1.00  0.00     0.046 A 
HETATM    6  C12 UNL     1      27.890  26.387  24.640  1.00  0.00     0.059 A 
HETATM    7  N2  UNL     1      28.211  26.550  22.261  1.00  0.00    -0.329 N 
ATOM      8  H2  UNL     1      28.448  25.557  22.263  1.00  0.00     0.165 HD
HETATM    9  C13 UNL     1      28.235  27.227  21.023  1.00  0.00     0.294 A 
HETATM   10  C14 UNL     1      27.873  28.679  21.136  1.00  0.00     0.139 A 
HETATM   11  C20 UNL     1      27.561  29.289  22.248  1.00  0.00     0.085 A 
ENDROOT
BRANCH  10  12
HETATM   12  N3  UNL     1      27.906  29.344  19.869  1.00  0.00    -0.215 N 
HETATM   13  N4  UNL     1      28.969  29.728  19.173  1.00  0.00    -0.123 N 
HETATM   14  C15 UNL     1      28.567  30.255  17.991  1.00  0.00     0.695 A 
ATOM     15  H4  UNL     1      29.938  29.640  19.479  1.00  0.00     0.206 HD
HETATM   16  N7  UNL     1      27.225  30.180  17.993  1.00  0.00    -0.167 N 
HETATM   17  C18 UNL     1      26.790  29.625  19.136  1.00  0.00     0.181 A 
ATOM     18  H7  UNL     1      26.623  30.500  17.235  1.00  0.00     0.186 HD
BRANCH  14  19
HETATM   19  N5  UNL     1      29.307  30.733  17.050  1.00  0.00    -0.220 N 
ATOM     20  H5  UNL     1      29.280  30.311  16.122  1.00  0.00     0.178 HD
BRANCH  19  21
HETATM   21  C16 UNL     1      30.174  31.860  17.300  1.00  0.00     0.182 C 
BRANCH  21  22
HETATM   22  C17 UNL     1      31.573  31.575  16.859  1.00  0.00     0.073 C 
HETATM   23  N6  UNL     1      32.457  31.219  17.705  1.00  0.00    -0.410 N 
ATOM     24  H62 UNL     1      32.191  31.132  18.686  1.00  0.00     0.155 HD
ATOM     25  H61 UNL     1      33.411  31.024  17.403  1.00  0.00     0.155 HD
ENDBRANCH  21  22
ENDBRANCH  19  21
ENDBRANCH  14  19
BRANCH  17  26
HETATM   26  S1  UNL     1      25.077  29.345  19.537  1.00  0.00    -0.096 SA
HETATM   27  C19 UNL     1      24.418  27.891  18.720  1.00  0.00     0.099 C 
ENDBRANCH  17  26
ENDBRANCH  10  12
BRANCH   9  28
HETATM   28  O3  UNL     1      27.336  26.628  20.143  1.00  0.00    -0.344 OA
ATOM     29  H3  UNL     1      27.762  26.470  19.309  1.00  0.00     0.215 HD
ENDBRANCH   9  28
BRANCH   9  30
HETATM   30  O4  UNL     1      29.535  27.201  20.489  1.00  0.00    -0.344 OA
ATOM     31  H4  UNL     1      29.809  28.082  20.264  1.00  0.00     0.215 HD
ENDBRANCH   9  30
BRANCH  11  32
HETATM   32  C21 UNL     1      27.224  30.698  22.262  1.00  0.00     0.212 C 
HETATM   33  O5  UNL     1      28.141  31.599  22.189  1.00  0.00    -0.644 OA
HETATM   34  O6  UNL     1      25.973  31.266  22.345  1.00  0.00    -0.644 OA
ENDBRANCH  11  32
BRANCH   1  35
HETATM   35  N1  UNL     1      27.562  26.169  26.980  1.00  0.00    -0.342 N 
ATOM     36  H1  UNL     1      28.430  25.667  27.168  1.00  0.00     0.167 HD
BRANCH  35  37
HETATM   37  C6  UNL     1      26.514  25.949  27.911  1.00  0.00     0.105 A 
HETATM   38  C5  UNL     1      25.480  25.051  27.593  1.00  0.00     0.050 A 
HETATM   39  C4  UNL     1      24.434  24.817  28.455  1.00  0.00     0.022 A 
HETATM   40  C3  UNL     1      24.346  25.455  29.676  1.00  0.00     0.055 A 
HETATM   41  C22 UNL     1      25.375  26.329  29.959  1.00  0.00     0.107 A 
HETATM   42  N8  UNL     1      26.383  26.536  29.099  1.00  0.00    -0.351 N 
ATOM     43  H8  UNL     1      27.109  27.197  29.378  1.00  0.00     0.166 HD
BRANCH  40  44
HETATM   44  C2  UNL     1      23.245  25.220  30.602  1.00  0.00     0.294 C 
HETATM   45  O2  UNL     1      22.589  26.161  31.101  1.00  0.00    -0.259 OA
BRANCH  44  46
HETATM   46  O1  UNL     1      22.907  23.936  30.944  1.00  0.00    -0.322 OA
HETATM   47  C1  UNL     1      21.641  23.560  31.461  1.00  0.00     0.213 C 
ENDBRANCH  44  46
ENDBRANCH  40  44
ENDBRANCH  35  37
ENDBRANCH   1  35
TORSDOF 12
ENDMDL
MODEL 2
REMARK VINA RESULT: -8.138518466      0.724      1.103
REMARK  12 active torsions:
REMARK  status: ('A' for Active; 'I' for Inactive)
REMARK    1  A    between atoms: O1_2  and  C2_3 
REMARK    2  A    between atoms: C2_3  and  C3_5 
REMARK    3  A    between atoms: C6_8  and  N1_9 
REMARK    4  A    between atoms: N1_9  and  C7_11 
REMARK    5  A    between atoms: C13_19  and  O3_20 
REMARK    6  A    between atoms: C13_19  and  O4_22 
REMARK    7  A    between atoms: C14_24  and  N3_25 
REMARK    8  A    between atoms: C15_28  and  N5_29 
REMARK    9  A    between atoms: N5_29  and  C16_31 
REMARK   10  A    between atoms: C16_31  and  C17_32 
REMARK   11  A    between atoms: C18_38  and  S1_39 
REMARK   12  A    between atoms: C20_41  and  C21_42 
ROOT
HETATM    1  C7  UNL     1      27.421  26.605  25.737  1.00  0.00     0.035 A 
HETATM    2  C8  UNL     1      27.211  27.940  25.822  1.00  0.00     0.030 A 
HETATM    3  C9  UNL     1      27.263  28.777  24.710  1.00  0.00     0.017 A 
HETATM    4  C10 UNL     1      27.535  28.245  23.480  1.00  0.00     0.010 A 
HETATM    5  C11 UNL     1      27.750  26.865  23.403  1.00  0.00     0.046 A 
HETATM    6  C12 UNL     1      27.697  26.049  24.506  1.00  0.00     0.059 A 
HETATM    7  N2  UNL     1      28.034  26.295  22.136  1.00  0.00    -0.329 N 
ATOM      8  H2  UNL     1      28.191  25.288  22.092  1.00  0.00     0.165 HD
HETATM    9  C13 UNL     1      28.115  27.025  20.931  1.00  0.00     0.294 A 
HETATM   10  C14 UNL     1      27.870  28.495  21.112  1.00  0.00     0.139 A 
HETATM   11  C20 UNL     1      27.606  29.076  22.252  1.00  0.00     0.085 A 
ENDROOT
BRANCH  10  12
HETATM   12  N3  UNL     1      27.959  29.213  19.877  1.00  0.00    -0.215 N 
HETATM   13  N4  UNL     1      29.048  29.511  19.179  1.00  0.00    -0.123 N 
HETATM   14  C15 UNL     1      28.690  30.137  18.032  1.00  0.00     0.695 A 
ATOM     15  H4  UNL     1      30.005  29.302  19.462  1.00  0.00     0.206 HD
HETATM   16  N7  UNL     1      27.348  30.211  18.056  1.00  0.00    -0.167 N 
HETATM   17  C18 UNL     1      26.870  29.651  19.181  1.00  0.00     0.181 A 
ATOM     18  H7  UNL     1      26.775  30.631  17.326  1.00  0.00     0.186 HD
BRANCH  14  19
HETATM   19  N5  UNL     1      29.465  30.575  17.100  1.00  0.00    -0.220 N 
ATOM     20  H5  UNL     1      29.537  30.064  16.220  1.00  0.00     0.178 HD
BRANCH  19  21
HETATM   21  C16 UNL     1      30.233  31.783  17.292  1.00  0.00     0.182 C 
BRANCH  21  22
HETATM   22  C17 UNL     1      31.642  31.609  16.828  1.00  0.00     0.073 C 
HETATM   23  N6  UNL     1      32.559  31.289  17.653  1.00  0.00    -0.410 N 
ATOM     24  H62 UNL     1      32.312  31.155  18.634  1.00  0.00     0.155 HD
ATOM     25  H61 UNL     1      33.521  31.170  17.336  1.00  0.00     0.155 HD
ENDBRANCH  21  22
ENDBRANCH  19  21
ENDBRANCH  14  19
BRANCH  17  26
HETATM   26  S1  UNL     1      25.144  29.544  19.601  1.00  0.00    -0.096 SA
HETATM   27  C19 UNL     1      24.339  31.147  19.578  1.00  0.00     0.099 C 
ENDBRANCH  17  26
ENDBRANCH  10  12
BRANCH   9  28
HETATM   28  O3  UNL     1      27.172  26.542  20.025  1.00  0.00    -0.344 OA
ATOM     29  H3  UNL     1      26.413  27.113  20.019  1.00  0.00     0.215 HD
ENDBRANCH   9  28
BRANCH   9  30
HETATM   30  O4  UNL     1      29.410  26.920  20.394  1.00  0.00    -0.344 OA
ATOM     31  H4  UNL     1      29.463  26.160  19.827  1.00  0.00     0.215 HD
ENDBRANCH   9  30
BRANCH  11  32
HETATM   32  C21 UNL     1      27.383  30.505  22.331  1.00  0.00     0.212 C 
HETATM   33  O5  UNL     1      26.202  30.982  22.518  1.00  0.00    -0.644 OA
HETATM   34  O6  UNL     1      28.317  31.511  22.231  1.00  0.00    -0.644 OA
ENDBRANCH  11  32
BRANCH   1  35
HETATM   35  N1  UNL     1      27.348  25.749  26.834  1.00  0.00    -0.342 N 
ATOM     36  H1  UNL     1      28.171  25.170  26.995  1.00  0.00     0.167 HD
BRANCH  35  37
HETATM   37  C6  UNL     1      26.285  25.572  27.756  1.00  0.00     0.105 A 
HETATM   38  C5  UNL     1      26.287  26.291  28.965  1.00  0.00     0.050 A 
HETATM   39  C4  UNL     1      25.288  26.140  29.899  1.00  0.00     0.022 A 
HETATM   40  C3  UNL     1      24.232  25.275  29.696  1.00  0.00     0.055 A 
HETATM   41  C22 UNL     1      24.258  24.585  28.501  1.00  0.00     0.107 A 
HETATM   42  N8  UNL     1      25.245  24.753  27.609  1.00  0.00    -0.351 N 
ATOM     43  H8  UNL     1      25.196  24.208  26.747  1.00  0.00     0.166 HD
BRANCH  40  44
HETATM   44  C2  UNL     1      23.165  25.102  30.673  1.00  0.00     0.294 C 
HETATM   45  O2  UNL     1      22.530  26.075  31.137  1.00  0.00    -0.259 OA
BRANCH  44  46
HETATM   46  O1  UNL     1      22.837  23.843  31.105  1.00  0.00    -0.322 OA
HETATM   47  C1  UNL     1      21.528  23.450  31.484  1.00  0.00     0.213 C 
ENDBRANCH  44  46
ENDBRANCH  40  44
ENDBRANCH  35  37
ENDBRANCH   1  35
TORSDOF 12
ENDMDL
MODEL 3
REMARK VINA RESULT: -7.955209083      0.900      2.397
REMARK  12 active torsions:
REMARK  status: ('A' for Active; 'I' for Inactive)
REMARK    1  A    between atoms: O1_2  and  C2_3 
REMARK    2  A    between atoms: C2_3  and  C3_5 
REMARK    3  A    between atoms: C6_8  and  N1_9 
REMARK    4  A    between atoms: N1_9  and  C7_11 
REMARK    5  A    between atoms: C13_19  and  O3_20 
REMARK    6  A    between atoms: C13_19  and  O4_22 
REMARK    7  A    between atoms: C14_24  and  N3_25 
REMARK    8  A    between atoms: C15_28  and  N5_29 
REMARK    9  A    between atoms: N5_29  and  C16_31 
REMARK   10  A    between atoms: C16_31  and  C17_32 
REMARK   11  A    between atoms: C18_38  and  S1_39 
REMARK   12  A    between atoms: C20_41  and  C21_42 
ROOT
HETATM    1  C7  UNL     1      27.580  26.880  25.845  1.00  0.00     0.035 A 
HETATM    2  C8  UNL     1      27.832  25.960  24.884  1.00  0.00     0.030 A 
HETATM    3  C9  UNL     1      27.881  26.287  23.531  1.00  0.00     0.017 A 
HETATM    4  C10 UNL     1      27.669  27.581  23.143  1.00  0.00     0.010 A 
HETATM    5  C11 UNL     1      27.409  28.523  24.144  1.00  0.00     0.046 A 
HETATM    6  C12 UNL     1      27.362  28.191  25.475  1.00  0.00     0.059 A 
HETATM    7  N2  UNL     1      27.186  29.871  23.760  1.00  0.00    -0.329 N 
ATOM      8  H2  UNL     1      26.996  30.549  24.498  1.00  0.00     0.165 HD
HETATM    9  C13 UNL     1      27.209  30.338  22.429  1.00  0.00     0.294 A 
HETATM   10  C14 UNL     1      27.495  29.256  21.427  1.00  0.00     0.139 A 
HETATM   11  C20 UNL     1      27.707  28.001  21.720  1.00  0.00     0.085 A 
ENDROOT
BRANCH  10  12
HETATM   12  N3  UNL     1      27.510  29.754  20.085  1.00  0.00    -0.215 N 
HETATM   13  N4  UNL     1      28.523  30.305  19.428  1.00  0.00    -0.123 N 
HETATM   14  C15 UNL     1      28.141  30.573  18.156  1.00  0.00     0.695 A 
ATOM     15  H4  UNL     1      29.445  30.496  19.819  1.00  0.00     0.206 HD
HETATM   16  N7  UNL     1      26.862  30.169  18.063  1.00  0.00    -0.167 N 
HETATM   17  C18 UNL     1      26.447  29.661  19.235  1.00  0.00     0.181 A 
ATOM     18  H7  UNL     1      26.290  30.237  17.222  1.00  0.00     0.186 HD
BRANCH  14  19
HETATM   19  N5  UNL     1      28.847  31.105  17.218  1.00  0.00    -0.220 N 
ATOM     20  H5  UNL     1      28.464  31.876  16.671  1.00  0.00     0.178 HD
BRANCH  19  21
HETATM   21  C16 UNL     1      30.177  30.618  16.935  1.00  0.00     0.182 C 
BRANCH  21  22
HETATM   22  C17 UNL     1      31.212  31.637  17.285  1.00  0.00     0.073 C 
HETATM   23  N6  UNL     1      32.391  31.275  17.607  1.00  0.00    -0.410 N 
ATOM     24  H62 UNL     1      32.613  30.280  17.621  1.00  0.00     0.155 HD
ATOM     25  H61 UNL     1      33.097  31.971  17.846  1.00  0.00     0.155 HD
ENDBRANCH  21  22
ENDBRANCH  19  21
ENDBRANCH  14  19
BRANCH  17  26
HETATM   26  S1  UNL     1      24.815  29.016  19.536  1.00  0.00    -0.096 SA
HETATM   27  C19 UNL     1      24.542  27.448  18.708  1.00  0.00     0.099 C 
ENDBRANCH  17  26
ENDBRANCH  10  12
BRANCH   9  28
HETATM   28  O3  UNL     1      28.189  31.318  22.292  1.00  0.00    -0.344 OA
ATOM     29  H3  UNL     1      28.316  31.518  21.372  1.00  0.00     0.215 HD
ENDBRANCH   9  28
BRANCH   9  30
HETATM   30  O4  UNL     1      25.948  30.852  22.081  1.00  0.00    -0.344 OA
ATOM     31  H4  UNL     1      25.987  31.249  21.219  1.00  0.00     0.215 HD
ENDBRANCH   9  30
BRANCH  11  32
HETATM   32  C21 UNL     1      27.976  27.025  20.684  1.00  0.00     0.212 C 
HETATM   33  O5  UNL     1      29.064  27.070  19.997  1.00  0.00    -0.644 OA
HETATM   34  O6  UNL     1      27.182  25.970  20.292  1.00  0.00    -0.644 OA
ENDBRANCH  11  32
BRANCH   1  35
HETATM   35  N1  UNL     1      27.552  26.578  27.204  1.00  0.00    -0.342 N 
ATOM     36  H1  UNL     1      28.453  26.610  27.681  1.00  0.00     0.167 HD
BRANCH  35  37
HETATM   37  C6  UNL     1      26.442  26.230  28.017  1.00  0.00     0.105 A 
HETATM   38  C5  UNL     1      26.378  26.697  29.342  1.00  0.00     0.050 A 
HETATM   39  C4  UNL     1      25.331  26.373  30.174  1.00  0.00     0.022 A 
HETATM   40  C3  UNL     1      24.290  25.571  29.749  1.00  0.00     0.055 A 
HETATM   41  C22 UNL     1      24.382  25.130  28.445  1.00  0.00     0.107 A 
HETATM   42  N8  UNL     1      25.414  25.463  27.657  1.00  0.00    -0.351 N 
ATOM     43  H8  UNL     1      25.413  25.100  26.703  1.00  0.00     0.166 HD
BRANCH  40  44
HETATM   44  C2  UNL     1      23.174  25.217  30.616  1.00  0.00     0.294 C 
HETATM   45  O2  UNL     1      22.570  26.073  31.299  1.00  0.00    -0.259 OA
BRANCH  44  46
HETATM   46  O1  UNL     1      22.762  23.912  30.694  1.00  0.00    -0.322 OA
HETATM   47  C1  UNL     1      21.618  23.482  31.414  1.00  0.00     0.213 C 
ENDBRANCH  44  46
ENDBRANCH  40  44
ENDBRANCH  35  37
ENDBRANCH   1  35
TORSDOF 12
ENDMDL
MODEL 4
REMARK VINA RESULT: -7.946245082      1.156      1.648
REMARK  12 active torsions:
REMARK  status: ('A' for Active; 'I' for Inactive)
REMARK    1  A    between atoms: O1_2  and  C2_3 
REMARK    2  A    between atoms: C2_3  and  C3_5 
REMARK    3  A    between atoms: C6_8  and  N1_9 
REMARK    4  A    between atoms: N1_9  and  C7_11 
REMARK    5  A    between atoms: C13_19  and  O3_20 
REMARK    6  A    between atoms: C13_19  and  O4_22 
REMARK    7  A    between atoms: C14_24  and  N3_25 
REMARK    8  A    between atoms: C15_28  and  N5_29 
REMARK    9  A    between atoms: N5_29  and  C16_31 
REMARK   10  A    between atoms: C16_31  and  C17_32 
REMARK   11  A    between atoms: C18_38  and  S1_39 
REMARK   12  A    between atoms: C20_41  and  C21_42 
ROOT
HETATM    1  C7  UNL     1      27.455  26.662  25.810  1.00  0.00     0.035 A 
HETATM    2  C8  UNL     1      27.237  27.997  25.855  1.00  0.00     0.030 A 
HETATM    3  C9  UNL     1      27.278  28.801  24.719  1.00  0.00     0.017 A 
HETATM    4  C10 UNL     1      27.547  28.234  23.503  1.00  0.00     0.010 A 
HETATM    5  C11 UNL     1      27.771  26.854  23.468  1.00  0.00     0.046 A 
HETATM    6  C12 UNL     1      27.729  26.071  24.594  1.00  0.00     0.059 A 
HETATM    7  N2  UNL     1      28.053  26.248  22.216  1.00  0.00    -0.329 N 
ATOM      8  H2  UNL     1      28.217  25.241  22.201  1.00  0.00     0.165 HD
HETATM    9  C13 UNL     1      28.123  26.942  20.989  1.00  0.00     0.294 A 
HETATM   10  C14 UNL     1      27.869  28.415  21.128  1.00  0.00     0.139 A 
HETATM   11  C20 UNL     1      27.606  29.028  22.251  1.00  0.00     0.085 A 
ENDROOT
BRANCH  10  12
HETATM   12  N3  UNL     1      27.947  29.097  19.871  1.00  0.00    -0.215 N 
HETATM   13  N4  UNL     1      29.028  29.363  19.149  1.00  0.00    -0.123 N 
HETATM   14  C15 UNL     1      28.660  29.959  17.990  1.00  0.00     0.695 A 
ATOM     15  H4  UNL     1      29.987  29.152  19.425  1.00  0.00     0.206 HD
HETATM   16  N7  UNL     1      27.319  30.047  18.031  1.00  0.00    -0.167 N 
HETATM   17  C18 UNL     1      26.853  29.525  19.178  1.00  0.00     0.181 A 
ATOM     18  H7  UNL     1      26.739  30.453  17.298  1.00  0.00     0.186 HD
BRANCH  14  19
HETATM   19  N5  UNL     1      29.426  30.362  17.035  1.00  0.00    -0.220 N 
ATOM     20  H5  UNL     1      30.261  30.907  17.251  1.00  0.00     0.178 HD
BRANCH  19  21
HETATM   21  C16 UNL     1      29.111  30.049  15.660  1.00  0.00     0.182 C 
BRANCH  21  22
HETATM   22  C17 UNL     1      29.416  28.620  15.347  1.00  0.00     0.073 C 
HETATM   23  N6  UNL     1      29.042  28.107  14.243  1.00  0.00    -0.410 N 
ATOM     24  H62 UNL     1      28.531  28.689  13.579  1.00  0.00     0.155 HD
ATOM     25  H61 UNL     1      29.250  27.132  14.030  1.00  0.00     0.155 HD
ENDBRANCH  21  22
ENDBRANCH  19  21
ENDBRANCH  14  19
BRANCH  17  26
HETATM   26  S1  UNL     1      25.131  29.448  19.627  1.00  0.00    -0.096 SA
HETATM   27  C19 UNL     1      24.342  31.058  19.568  1.00  0.00     0.099 C 
ENDBRANCH  17  26
ENDBRANCH  10  12
BRANCH   9  28
HETATM   28  O3  UNL     1      27.179  26.426  20.104  1.00  0.00    -0.344 OA
ATOM     29  H3  UNL     1      27.223  26.896  19.279  1.00  0.00     0.215 HD
ENDBRANCH   9  28
BRANCH   9  30
HETATM   30  O4  UNL     1      29.416  26.830  20.449  1.00  0.00    -0.344 OA
ATOM     31  H4  UNL     1      29.981  27.495  20.824  1.00  0.00     0.215 HD
ENDBRANCH   9  30
BRANCH  11  32
HETATM   32  C21 UNL     1      27.374  30.458  22.289  1.00  0.00     0.212 C 
HETATM   33  O5  UNL     1      26.201  30.932  22.530  1.00  0.00    -0.644 OA
HETATM   34  O6  UNL     1      28.290  31.467  22.092  1.00  0.00    -0.644 OA
ENDBRANCH  11  32
BRANCH   1  35
HETATM   35  N1  UNL     1      27.394  25.838  26.932  1.00  0.00    -0.342 N 
ATOM     36  H1  UNL     1      28.237  25.301  27.130  1.00  0.00     0.167 HD
BRANCH  35  37
HETATM   37  C6  UNL     1      26.318  25.645  27.837  1.00  0.00     0.105 A 
HETATM   38  C5  UNL     1      26.275  26.383  29.032  1.00  0.00     0.050 A 
HETATM   39  C4  UNL     1      25.263  26.219  29.949  1.00  0.00     0.022 A 
HETATM   40  C3  UNL     1      24.237  25.318  29.740  1.00  0.00     0.055 A 
HETATM   41  C22 UNL     1      24.307  24.610  28.558  1.00  0.00     0.107 A 
HETATM   42  N8  UNL     1      25.306  24.793  27.683  1.00  0.00    -0.351 N 
ATOM     43  H8  UNL     1      25.291  24.233  26.830  1.00  0.00     0.166 HD
BRANCH  40  44
HETATM   44  C2  UNL     1      23.156  25.130  30.700  1.00  0.00     0.294 C 
HETATM   45  O2  UNL     1      22.492  26.092  31.144  1.00  0.00    -0.259 OA
BRANCH  44  46
HETATM   46  O1  UNL     1      22.848  23.867  31.136  1.00  0.00    -0.322 OA
HETATM   47  C1  UNL     1      21.542  23.451  31.502  1.00  0.00     0.213 C 
ENDBRANCH  44  46
ENDBRANCH  40  44
ENDBRANCH  35  37
ENDBRANCH   1  35
TORSDOF 12
ENDMDL
MODEL 5
REMARK VINA RESULT: -7.887197410      3.863      9.923
REMARK  12 active torsions:
REMARK  status: ('A' for Active; 'I' for Inactive)
REMARK    1  A    between atoms: O1_2  and  C2_3 
REMARK    2  A    between atoms: C2_3  and  C3_5 
REMARK    3  A    between atoms: C6_8  and  N1_9 
REMARK    4  A    between atoms: N1_9  and  C7_11 
REMARK    5  A    between atoms: C13_19  and  O3_20 
REMARK    6  A    between atoms: C13_19  and  O4_22 
REMARK    7  A    between atoms: C14_24  and  N3_25 
REMARK    8  A    between atoms: C15_28  and  N5_29 
REMARK    9  A    between atoms: N5_29  and  C16_31 
REMARK   10  A    between atoms: C16_31  and  C17_32 
REMARK   11  A    between atoms: C18_38  and  S1_39 
REMARK   12  A    between atoms: C20_41  and  C21_42 
ROOT
HETATM    1  C7  UNL     1      27.742  30.057  24.215  1.00  0.00     0.035 A 
HETATM    2  C8  UNL     1      27.628  30.266  25.548  1.00  0.00     0.030 A 
HETATM    3  C9  UNL     1      27.483  29.223  26.459  1.00  0.00     0.017 A 
HETATM    4  C10 UNL     1      27.454  27.933  26.005  1.00  0.00     0.010 A 
HETATM    5  C11 UNL     1      27.574  27.728  24.627  1.00  0.00     0.046 A 
HETATM    6  C12 UNL     1      27.715  28.764  23.737  1.00  0.00     0.059 A 
HETATM    7  N2  UNL     1      27.545  26.396  24.138  1.00  0.00    -0.329 N 
ATOM      8  H2  UNL     1      27.632  26.258  23.131  1.00  0.00     0.165 HD
HETATM    9  C13 UNL     1      27.406  25.249  24.948  1.00  0.00     0.294 A 
HETATM   10  C14 UNL     1      27.285  25.569  26.410  1.00  0.00     0.139 A 
HETATM   11  C20 UNL     1      27.303  26.772  26.918  1.00  0.00     0.085 A 
ENDROOT
BRANCH  10  12
HETATM   12  N3  UNL     1      27.143  24.390  27.210  1.00  0.00    -0.215 N 
HETATM   13  N4  UNL     1      28.079  23.511  27.547  1.00  0.00    -0.123 N 
HETATM   14  C15 UNL     1      27.545  22.581  28.374  1.00  0.00     0.695 A 
ATOM     15  H4  UNL     1      29.048  23.533  27.231  1.00  0.00     0.206 HD
HETATM   16  N7  UNL     1      26.254  22.923  28.528  1.00  0.00    -0.167 N 
HETATM   17  C18 UNL     1      25.978  24.032  27.822  1.00  0.00     0.181 A 
ATOM     18  H7  UNL     1      25.581  22.413  29.099  1.00  0.00     0.186 HD
BRANCH  14  19
HETATM   19  N5  UNL     1      28.140  21.572  28.911  1.00  0.00    -0.220 N 
ATOM     20  H5  UNL     1      28.882  21.727  29.594  1.00  0.00     0.178 HD
BRANCH  19  21
HETATM   21  C16 UNL     1      27.766  20.224  28.554  1.00  0.00     0.182 C 
BRANCH  21  22
HETATM   22  C17 UNL     1      28.135  19.916  27.139  1.00  0.00     0.073 C 
HETATM   23  N6  UNL     1      29.355  19.935  26.772  1.00  0.00    -0.410 N 
ATOM     24  H62 UNL     1      30.072  20.163  27.461  1.00  0.00     0.155 HD
ATOM     25  H61 UNL     1      29.607  19.725  25.806  1.00  0.00     0.155 HD
ENDBRANCH  21  22
ENDBRANCH  19  21
ENDBRANCH  14  19
BRANCH  17  26
HETATM   26  S1  UNL     1      24.380  24.815  27.755  1.00  0.00    -0.096 SA
HETATM   27  C19 UNL     1      23.610  24.926  29.371  1.00  0.00     0.099 C 
ENDBRANCH  17  26
ENDBRANCH  10  12
BRANCH   9  28
HETATM   28  O3  UNL     1      28.513  24.420  24.781  1.00  0.00    -0.344 OA
ATOM     29  H3  UNL     1      28.524  23.759  25.464  1.00  0.00     0.215 HD
ENDBRANCH   9  28
BRANCH   9  30
HETATM   30  O4  UNL     1      26.225  24.566  24.611  1.00  0.00    -0.344 OA
ATOM     31  H4  UNL     1      25.470  25.087  24.857  1.00  0.00     0.215 HD
ENDBRANCH   9  30
BRANCH  11  32
HETATM   32  C21 UNL     1      27.180  26.985  28.346  1.00  0.00     0.212 C 
HETATM   33  O5  UNL     1      26.077  27.409  28.859  1.00  0.00    -0.644 OA
HETATM   34  O6  UNL     1      28.137  26.787  29.314  1.00  0.00    -0.644 OA
ENDBRANCH  11  32
BRANCH   1  35
HETATM   35  N1  UNL     1      27.913  31.086  23.292  1.00  0.00    -0.342 N 
ATOM     36  H1  UNL     1      28.859  31.459  23.220  1.00  0.00     0.167 HD
BRANCH  35  37
HETATM   37  C6  UNL     1      26.952  31.685  22.438  1.00  0.00     0.105 A 
HETATM   38  C5  UNL     1      25.865  32.380  22.997  1.00  0.00     0.050 A 
HETATM   39  C4  UNL     1      24.897  32.964  22.211  1.00  0.00     0.022 A 
HETATM   40  C3  UNL     1      24.946  32.895  20.833  1.00  0.00     0.055 A 
HETATM   41  C22 UNL     1      26.024  32.206  20.316  1.00  0.00     0.107 A 
HETATM   42  N8  UNL     1      26.952  31.649  21.107  1.00  0.00    -0.351 N 
ATOM     43  H8  UNL     1      27.721  31.156  20.652  1.00  0.00     0.166 HD
BRANCH  40  44
HETATM   44  C2  UNL     1      23.930  33.506  19.985  1.00  0.00     0.294 C 
HETATM   45  O2  UNL     1      24.210  34.407  19.164  1.00  0.00    -0.259 OA
BRANCH  44  46
HETATM   46  O1  UNL     1      22.627  33.090  20.078  1.00  0.00    -0.322 OA
HETATM   47  C1  UNL     1      21.546  33.939  20.424  1.00  0.00     0.213 C 
ENDBRANCH  44  46
ENDBRANCH  40  44
ENDBRANCH  35  37
ENDBRANCH   1  35
TORSDOF 12
ENDMDL
