MODEL 1
REMARK VINA RESULT: -8.744011001      0.000      0.000
REMARK  10 active torsions:
REMARK  status: ('A' for Active; 'I' for Inactive)
REMARK    1  A    between atoms: N2_3  and  C2_5 
REMARK    2  A    between atoms: C3_10  and  C4_11 
REMARK    3  A    between atoms: C4_11  and  S1_12 
REMARK    4  A    between atoms: S1_12  and  C5_13 
REMARK    5  A    between atoms: C6_18  and  S2_19 
REMARK    6  A    between atoms: S2_19  and  C7_20 
REMARK    7  A    between atoms: C7_20  and  C8_21 
REMARK       I    between atoms: C8_21  and  N7_23 
REMARK    8  A    between atoms: N7_23  and  N8_25 
REMARK       I    between atoms: N8_25  and  C9_27 
REMARK       I    between atoms: C9_27  and  N9_29 
REMARK    9  A    between atoms: N9_29  and  N10_31 
REMARK   10  A    between atoms: C10_33  and  C11_34 
ROOT
HETATM    1  N1  UNL     1      26.825  28.329  27.432  1.00  0.00    -0.171 NA
HETATM    2  C1  UNL     1      26.926  29.177  26.649  1.00  0.00     0.196 C 
HETATM    3  N2  UNL     1      27.070  30.195  25.702  1.00  0.00    -0.124 N 
ATOM      4  H2  UNL     1      27.939  30.724  25.632  1.00  0.00     0.197 HD
ENDROOT
BRANCH   3   5
HETATM    5  C2  UNL     1      26.062  30.455  24.905  1.00  0.00     0.707 A 
HETATM    6  N3  UNL     1      25.154  29.598  24.425  1.00  0.00    -0.130 N 
HETATM    7  N4  UNL     1      24.292  30.225  23.654  1.00  0.00    -0.274 N 
ATOM      8  H3  UNL     1      25.133  28.599  24.629  1.00  0.00     0.205 HD
HETATM    9  C3  UNL     1      24.644  31.516  23.630  1.00  0.00     0.122 A 
ATOM     10  H4  UNL     1      23.502  29.805  23.166  1.00  0.00     0.189 HD
HETATM   11  N14 UNL     1      25.733  31.650  24.401  1.00  0.00    -0.176 N 
ATOM     12  H14 UNL     1      26.231  32.522  24.576  1.00  0.00     0.185 HD
BRANCH   9  13
HETATM   13  C4  UNL     1      23.941  32.595  22.877  1.00  0.00     0.160 C 
BRANCH  13  14
HETATM   14  S1  UNL     1      24.899  32.944  21.352  1.00  0.00    -0.096 SA
BRANCH  14  15
HETATM   15  C5  UNL     1      25.320  31.361  20.589  1.00  0.00     0.129 A 
HETATM   16  N5  UNL     1      24.560  30.614  19.795  1.00  0.00    -0.287 N 
HETATM   17  N6  UNL     1      25.005  29.525  19.341  1.00  0.00    -0.287 N 
ATOM     18  H5  UNL     1      23.617  30.921  19.553  1.00  0.00     0.188 HD
HETATM   19  C6  UNL     1      26.232  29.123  19.653  1.00  0.00     0.129 A 
ATOM     20  H6  UNL     1      24.421  28.952  18.733  1.00  0.00     0.188 HD
HETATM   21  S3  UNL     1      26.744  30.420  20.666  1.00  0.00    -0.038 SA
BRANCH  19  22
HETATM   22  S2  UNL     1      27.090  27.630  19.134  1.00  0.00    -0.094 SA
BRANCH  22  23
HETATM   23  C7  UNL     1      28.705  27.497  19.950  1.00  0.00     0.186 C 
BRANCH  23  24
HETATM   24  C8  UNL     1      28.539  26.528  21.050  1.00  0.00     0.245 C 
HETATM   25  O1  UNL     1      27.704  25.615  20.944  1.00  0.00    -0.271 OA
HETATM   26  N7  UNL     1      29.324  26.641  22.212  1.00  0.00    -0.265 N 
ATOM     27  H7  UNL     1      30.002  27.401  22.269  1.00  0.00     0.190 HD
BRANCH  26  28
HETATM   28  N8  UNL     1      29.221  25.755  23.301  1.00  0.00    -0.248 N 
HETATM   29  C9  UNL     1      28.348  26.106  24.362  1.00  0.00     0.353 C 
HETATM   30  O2  UNL     1      27.677  27.146  24.376  1.00  0.00    -0.244 OA
HETATM   31  N9  UNL     1      28.224  25.218  25.488  1.00  0.00    -0.251 N 
ATOM     32  H9  UNL     1      28.762  24.351  25.502  1.00  0.00     0.191 HD
ATOM     33  H8  UNL     1      29.757  24.888  23.326  1.00  0.00     0.192 HD
BRANCH  31  34
HETATM   34  N10 UNL     1      27.391  25.515  26.551  1.00  0.00    -0.304 N 
HETATM   35  C10 UNL     1      26.444  24.710  26.873  1.00  0.00     0.155 C 
ATOM     36  H10 UNL     1      27.529  26.376  27.080  1.00  0.00     0.186 HD
BRANCH  35  37
HETATM   37  C11 UNL     1      25.543  25.007  27.999  1.00  0.00     0.123 A 
HETATM   38  N11 UNL     1      25.874  25.751  29.044  1.00  0.00    -0.328 N 
HETATM   39  C12 UNL     1      25.015  25.990  30.050  1.00  0.00     0.101 A 
ATOM     40  H11 UNL     1      26.811  26.153  29.088  1.00  0.00     0.169 HD
HETATM   41  N12 UNL     1      25.399  26.720  31.036  1.00  0.00    -0.385 N 
HETATM   42  C13 UNL     1      23.742  25.460  30.015  1.00  0.00     0.065 A 
ATOM     43 2H12 UNL     1      26.341  27.112  31.061  1.00  0.00     0.157 HD
ATOM     44 1H12 UNL     1      24.747  26.902  31.798  1.00  0.00     0.157 HD
HETATM   45  C14 UNL     1      23.403  24.688  28.924  1.00  0.00     0.093 A 
HETATM   46  N13 UNL     1      24.307  24.492  27.964  1.00  0.00    -0.351 N 
ATOM     47  H13 UNL     1      24.044  23.919  27.162  1.00  0.00     0.166 HD
ENDBRANCH  35  37
ENDBRANCH  31  34
ENDBRANCH  26  28
ENDBRANCH  23  24
ENDBRANCH  22  23
ENDBRANCH  19  22
ENDBRANCH  14  15
ENDBRANCH  13  14
ENDBRANCH   9  13
ENDBRANCH   3   5
TORSDOF 10
ENDMDL
MODEL 2
REMARK VINA RESULT: -8.459617383      1.020      1.352
REMARK  10 active torsions:
REMARK  status: ('A' for Active; 'I' for Inactive)
REMARK    1  A    between atoms: N2_3  and  C2_5 
REMARK    2  A    between atoms: C3_10  and  C4_11 
REMARK    3  A    between atoms: C4_11  and  S1_12 
REMARK    4  A    between atoms: S1_12  and  C5_13 
REMARK    5  A    between atoms: C6_18  and  S2_19 
REMARK    6  A    between atoms: S2_19  and  C7_20 
REMARK    7  A    between atoms: C7_20  and  C8_21 
REMARK       I    between atoms: C8_21  and  N7_23 
REMARK    8  A    between atoms: N7_23  and  N8_25 
REMARK       I    between atoms: N8_25  and  C9_27 
REMARK       I    between atoms: C9_27  and  N9_29 
REMARK    9  A    between atoms: N9_29  and  N10_31 
REMARK   10  A    between atoms: C10_33  and  C11_34 
ROOT
HETATM    1  N1  UNL     1      26.805  28.320  27.396  1.00  0.00    -0.171 NA
HETATM    2  C1  UNL     1      26.863  29.202  26.648  1.00  0.00     0.196 C 
HETATM    3  N2  UNL     1      26.956  30.264  25.743  1.00  0.00    -0.124 N 
ATOM      4  H2  UNL     1      27.790  30.849  25.708  1.00  0.00     0.197 HD
ENDROOT
BRANCH   3   5
HETATM    5  C2  UNL     1      25.944  30.491  24.940  1.00  0.00     0.707 A 
HETATM    6  N3  UNL     1      25.084  29.601  24.434  1.00  0.00    -0.130 N 
HETATM    7  N4  UNL     1      24.200  30.201  23.665  1.00  0.00    -0.274 N 
ATOM      8  H3  UNL     1      25.107  28.598  24.619  1.00  0.00     0.205 HD
HETATM    9  C3  UNL     1      24.491  31.508  23.668  1.00  0.00     0.122 A 
ATOM     10  H4  UNL     1      23.436  29.754  23.160  1.00  0.00     0.189 HD
HETATM   11  N14 UNL     1      25.564  31.678  24.454  1.00  0.00    -0.176 N 
ATOM     12  H14 UNL     1      26.018  32.570  24.650  1.00  0.00     0.185 HD
BRANCH   9  13
HETATM   13  C4  UNL     1      23.746  32.567  22.928  1.00  0.00     0.160 C 
BRANCH  13  14
HETATM   14  S1  UNL     1      24.754  33.068  21.479  1.00  0.00    -0.096 SA
BRANCH  14  15
HETATM   15  C5  UNL     1      25.681  31.620  20.924  1.00  0.00     0.129 A 
HETATM   16  N5  UNL     1      26.960  31.336  21.153  1.00  0.00    -0.287 N 
HETATM   17  N6  UNL     1      27.460  30.276  20.691  1.00  0.00    -0.287 N 
ATOM     18  H5  UNL     1      27.535  31.976  21.703  1.00  0.00     0.188 HD
HETATM   19  C6  UNL     1      26.714  29.440  19.976  1.00  0.00     0.129 A 
ATOM     20  H6  UNL     1      28.441  30.059  20.866  1.00  0.00     0.188 HD
HETATM   21  S3  UNL     1      25.204  30.270  19.992  1.00  0.00    -0.038 SA
BRANCH  19  22
HETATM   22  S2  UNL     1      27.188  27.877  19.222  1.00  0.00    -0.094 SA
BRANCH  22  23
HETATM   23  C7  UNL     1      28.691  27.218  19.994  1.00  0.00     0.186 C 
BRANCH  23  24
HETATM   24  C8  UNL     1      28.246  26.272  21.035  1.00  0.00     0.245 C 
HETATM   25  O1  UNL     1      27.164  25.675  20.902  1.00  0.00    -0.271 OA
HETATM   26  N7  UNL     1      29.045  26.046  22.171  1.00  0.00    -0.265 N 
ATOM     27  H7  UNL     1      29.928  26.550  22.251  1.00  0.00     0.190 HD
BRANCH  26  28
HETATM   28  N8  UNL     1      28.685  25.160  23.203  1.00  0.00    -0.248 N 
HETATM   29  C9  UNL     1      28.046  25.698  24.348  1.00  0.00     0.353 C 
HETATM   30  O2  UNL     1      27.791  26.902  24.483  1.00  0.00    -0.244 OA
HETATM   31  N9  UNL     1      27.668  24.813  25.419  1.00  0.00    -0.251 N 
ATOM     32  H9  UNL     1      27.862  23.815  25.334  1.00  0.00     0.191 HD
ATOM     33  H8  UNL     1      28.879  24.161  23.129  1.00  0.00     0.192 HD
BRANCH  31  34
HETATM   34  N10 UNL     1      27.047  25.288  26.560  1.00  0.00    -0.304 N 
HETATM   35  C10 UNL     1      26.240  24.535  27.215  1.00  0.00     0.155 C 
ATOM     36  H10 UNL     1      27.231  26.238  26.881  1.00  0.00     0.186 HD
BRANCH  35  37
HETATM   37  C11 UNL     1      25.565  25.019  28.431  1.00  0.00     0.123 A 
HETATM   38  N11 UNL     1      24.394  24.573  28.863  1.00  0.00    -0.328 N 
HETATM   39  C12 UNL     1      23.818  25.050  29.980  1.00  0.00     0.101 A 
ATOM     40  H11 UNL     1      23.916  23.845  28.332  1.00  0.00     0.169 HD
HETATM   41  N12 UNL     1      22.681  24.574  30.344  1.00  0.00    -0.385 N 
HETATM   42  C13 UNL     1      24.444  26.033  30.718  1.00  0.00     0.065 A 
ATOM     43 2H12 UNL     1      22.218  23.847  29.798  1.00  0.00     0.157 HD
ATOM     44 1H12 UNL     1      22.243  24.936  31.191  1.00  0.00     0.157 HD
HETATM   45  C14 UNL     1      25.661  26.493  30.263  1.00  0.00     0.093 A 
HETATM   46  N13 UNL     1      26.173  25.974  29.146  1.00  0.00    -0.351 N 
ATOM     47  H13 UNL     1      27.075  26.322  28.821  1.00  0.00     0.166 HD
ENDBRANCH  35  37
ENDBRANCH  31  34
ENDBRANCH  26  28
ENDBRANCH  23  24
ENDBRANCH  22  23
ENDBRANCH  19  22
ENDBRANCH  14  15
ENDBRANCH  13  14
ENDBRANCH   9  13
ENDBRANCH   3   5
TORSDOF 10
ENDMDL
MODEL 3
REMARK VINA RESULT: -8.408922988      1.188      1.362
REMARK  10 active torsions:
REMARK  status: ('A' for Active; 'I' for Inactive)
REMARK    1  A    between atoms: N2_3  and  C2_5 
REMARK    2  A    between atoms: C3_10  and  C4_11 
REMARK    3  A    between atoms: C4_11  and  S1_12 
REMARK    4  A    between atoms: S1_12  and  C5_13 
REMARK    5  A    between atoms: C6_18  and  S2_19 
REMARK    6  A    between atoms: S2_19  and  C7_20 
REMARK    7  A    between atoms: C7_20  and  C8_21 
REMARK       I    between atoms: C8_21  and  N7_23 
REMARK    8  A    between atoms: N7_23  and  N8_25 
REMARK       I    between atoms: N8_25  and  C9_27 
REMARK       I    between atoms: C9_27  and  N9_29 
REMARK    9  A    between atoms: N9_29  and  N10_31 
REMARK   10  A    between atoms: C10_33  and  C11_34 
ROOT
HETATM    1  N1  UNL     1      26.865  28.404  27.413  1.00  0.00    -0.171 NA
HETATM    2  C1  UNL     1      26.629  28.639  26.303  1.00  0.00     0.196 C 
HETATM    3  N2  UNL     1      26.329  28.904  24.963  1.00  0.00    -0.124 N 
ATOM      4  H2  UNL     1      26.158  28.143  24.307  1.00  0.00     0.197 HD
ENDROOT
BRANCH   3   5
HETATM    5  C2  UNL     1      26.273  30.153  24.571  1.00  0.00     0.707 A 
HETATM    6  N3  UNL     1      27.135  31.138  24.844  1.00  0.00    -0.130 N 
HETATM    7  N4  UNL     1      26.747  32.260  24.276  1.00  0.00    -0.274 N 
ATOM      8  H3  UNL     1      27.975  31.035  25.413  1.00  0.00     0.205 HD
HETATM    9  C3  UNL     1      25.609  32.002  23.619  1.00  0.00     0.122 A 
ATOM     10  H4  UNL     1      27.225  33.159  24.327  1.00  0.00     0.189 HD
HETATM   11  N14 UNL     1      25.325  30.705  23.805  1.00  0.00    -0.176 N 
ATOM     12  H14 UNL     1      24.515  30.217  23.423  1.00  0.00     0.185 HD
BRANCH   9  13
HETATM   13  C4  UNL     1      24.818  32.989  22.829  1.00  0.00     0.160 C 
BRANCH  13  14
HETATM   14  S1  UNL     1      25.533  33.076  21.142  1.00  0.00    -0.096 SA
BRANCH  14  15
HETATM   15  C5  UNL     1      26.101  31.419  20.696  1.00  0.00     0.129 A 
HETATM   16  N5  UNL     1      27.349  30.961  20.693  1.00  0.00    -0.287 N 
HETATM   17  N6  UNL     1      27.580  29.770  20.354  1.00  0.00    -0.287 N 
ATOM     18  H5  UNL     1      28.119  31.573  20.966  1.00  0.00     0.188 HD
HETATM   19  C6  UNL     1      26.580  28.969  19.999  1.00  0.00     0.129 A 
ATOM     20  H6  UNL     1      28.537  29.419  20.350  1.00  0.00     0.188 HD
HETATM   21  S3  UNL     1      25.240  30.038  20.179  1.00  0.00    -0.038 SA
BRANCH  19  22
HETATM   22  S2  UNL     1      26.648  27.247  19.486  1.00  0.00    -0.094 SA
BRANCH  22  23
HETATM   23  C7  UNL     1      28.365  26.669  19.397  1.00  0.00     0.186 C 
BRANCH  23  24
HETATM   24  C8  UNL     1      28.817  26.483  20.789  1.00  0.00     0.245 C 
HETATM   25  O1  UNL     1      29.447  27.392  21.357  1.00  0.00    -0.271 OA
HETATM   26  N7  UNL     1      28.537  25.283  21.467  1.00  0.00    -0.265 N 
ATOM     27  H7  UNL     1      28.018  24.557  20.974  1.00  0.00     0.190 HD
BRANCH  26  28
HETATM   28  N8  UNL     1      28.937  25.036  22.793  1.00  0.00    -0.248 N 
HETATM   29  C9  UNL     1      28.044  25.393  23.835  1.00  0.00     0.353 C 
HETATM   30  O2  UNL     1      26.937  25.909  23.635  1.00  0.00    -0.244 OA
HETATM   31  N9  UNL     1      28.430  25.151  25.200  1.00  0.00    -0.251 N 
ATOM     32  H9  UNL     1      29.335  24.724  25.396  1.00  0.00     0.191 HD
ATOM     33  H8  UNL     1      29.842  24.612  22.998  1.00  0.00     0.192 HD
BRANCH  31  34
HETATM   34  N10 UNL     1      27.598  25.486  26.253  1.00  0.00    -0.304 N 
HETATM   35  C10 UNL     1      26.726  24.646  26.679  1.00  0.00     0.155 C 
ATOM     36  H10 UNL     1      27.678  26.403  26.693  1.00  0.00     0.186 HD
BRANCH  35  37
HETATM   37  C11 UNL     1      25.828  24.981  27.796  1.00  0.00     0.123 A 
HETATM   38  N11 UNL     1      26.163  25.757  28.817  1.00  0.00    -0.328 N 
HETATM   39  C12 UNL     1      25.306  26.031  29.815  1.00  0.00     0.101 A 
ATOM     40  H11 UNL     1      27.100  26.159  28.846  1.00  0.00     0.169 HD
HETATM   41  N12 UNL     1      25.694  26.792  30.777  1.00  0.00    -0.385 N 
HETATM   42  C13 UNL     1      24.032  25.503  29.801  1.00  0.00     0.065 A 
ATOM     43 2H12 UNL     1      26.637  27.182  30.787  1.00  0.00     0.157 HD
ATOM     44 1H12 UNL     1      25.044  27.000  31.534  1.00  0.00     0.157 HD
HETATM   45  C14 UNL     1      23.689  24.697  28.736  1.00  0.00     0.093 A 
HETATM   46  N13 UNL     1      24.591  24.468  27.781  1.00  0.00    -0.351 N 
ATOM     47  H13 UNL     1      24.325  23.870  26.998  1.00  0.00     0.166 HD
ENDBRANCH  35  37
ENDBRANCH  31  34
ENDBRANCH  26  28
ENDBRANCH  23  24
ENDBRANCH  22  23
ENDBRANCH  19  22
ENDBRANCH  14  15
ENDBRANCH  13  14
ENDBRANCH   9  13
ENDBRANCH   3   5
TORSDOF 10
ENDMDL
MODEL 4
REMARK VINA RESULT: -8.144064123      0.968      1.504
REMARK  10 active torsions:
REMARK  status: ('A' for Active; 'I' for Inactive)
REMARK    1  A    between atoms: N2_3  and  C2_5 
REMARK    2  A    between atoms: C3_10  and  C4_11 
REMARK    3  A    between atoms: C4_11  and  S1_12 
REMARK    4  A    between atoms: S1_12  and  C5_13 
REMARK    5  A    between atoms: C6_18  and  S2_19 
REMARK    6  A    between atoms: S2_19  and  C7_20 
REMARK    7  A    between atoms: C7_20  and  C8_21 
REMARK       I    between atoms: C8_21  and  N7_23 
REMARK    8  A    between atoms: N7_23  and  N8_25 
REMARK       I    between atoms: N8_25  and  C9_27 
REMARK       I    between atoms: C9_27  and  N9_29 
REMARK    9  A    between atoms: N9_29  and  N10_31 
REMARK   10  A    between atoms: C10_33  and  C11_34 
ROOT
HETATM    1  N1  UNL     1      26.935  28.322  27.473  1.00  0.00    -0.171 NA
HETATM    2  C1  UNL     1      26.438  28.713  26.503  1.00  0.00     0.196 C 
HETATM    3  N2  UNL     1      25.818  29.175  25.337  1.00  0.00    -0.124 N 
ATOM      4  H2  UNL     1      25.089  28.627  24.882  1.00  0.00     0.197 HD
ENDROOT
BRANCH   3   5
HETATM    5  C2  UNL     1      26.196  30.330  24.844  1.00  0.00     0.707 A 
HETATM    6  N3  UNL     1      27.159  31.139  25.297  1.00  0.00    -0.130 N 
HETATM    7  N4  UNL     1      27.250  32.213  24.542  1.00  0.00    -0.274 N 
ATOM      8  H3  UNL     1      27.741  30.950  26.113  1.00  0.00     0.205 HD
HETATM    9  C3  UNL     1      26.328  32.102  23.578  1.00  0.00     0.122 A 
ATOM     10  H4  UNL     1      27.902  32.987  24.669  1.00  0.00     0.189 HD
HETATM   11  N14 UNL     1      25.685  30.942  23.770  1.00  0.00    -0.176 N 
ATOM     12  H14 UNL     1      24.926  30.583  23.191  1.00  0.00     0.185 HD
BRANCH   9  13
HETATM   13  C4  UNL     1      26.078  33.098  22.496  1.00  0.00     0.160 C 
BRANCH  13  14
HETATM   14  S1  UNL     1      24.744  32.446  21.418  1.00  0.00    -0.096 SA
BRANCH  14  15
HETATM   15  C5  UNL     1      25.363  30.951  20.615  1.00  0.00     0.129 A 
HETATM   16  N5  UNL     1      24.659  30.016  19.984  1.00  0.00    -0.287 N 
HETATM   17  N6  UNL     1      25.247  29.025  19.472  1.00  0.00    -0.287 N 
ATOM     18  H5  UNL     1      23.644  30.100  19.913  1.00  0.00     0.188 HD
HETATM   19  C6  UNL     1      26.568  28.912  19.561  1.00  0.00     0.129 A 
ATOM     20  H6  UNL     1      24.707  28.308  18.989  1.00  0.00     0.188 HD
HETATM   21  S3  UNL     1      26.950  30.342  20.444  1.00  0.00    -0.038 SA
BRANCH  19  22
HETATM   22  S2  UNL     1      27.629  27.612  18.915  1.00  0.00    -0.094 SA
BRANCH  22  23
HETATM   23  C7  UNL     1      28.972  27.240  20.076  1.00  0.00     0.186 C 
BRANCH  23  24
HETATM   24  C8  UNL     1      28.429  26.270  21.047  1.00  0.00     0.245 C 
HETATM   25  O1  UNL     1      27.360  25.686  20.800  1.00  0.00    -0.271 OA
HETATM   26  N7  UNL     1      29.121  26.009  22.244  1.00  0.00    -0.265 N 
ATOM     27  H7  UNL     1      29.996  26.503  22.417  1.00  0.00     0.190 HD
BRANCH  26  28
HETATM   28  N8  UNL     1      28.663  25.099  23.215  1.00  0.00    -0.248 N 
HETATM   29  C9  UNL     1      28.094  25.625  24.403  1.00  0.00     0.353 C 
HETATM   30  O2  UNL     1      27.981  26.837  24.624  1.00  0.00    -0.244 OA
HETATM   31  N9  UNL     1      27.619  24.716  25.413  1.00  0.00    -0.251 N 
ATOM     32  H9  UNL     1      27.696  23.710  25.256  1.00  0.00     0.191 HD
ATOM     33  H8  UNL     1      28.739  24.092  23.069  1.00  0.00     0.192 HD
BRANCH  31  34
HETATM   34  N10 UNL     1      27.061  25.177  26.591  1.00  0.00    -0.304 N 
HETATM   35  C10 UNL     1      26.054  24.571  27.108  1.00  0.00     0.155 C 
ATOM     36  H10 UNL     1      27.450  25.999  27.050  1.00  0.00     0.186 HD
BRANCH  35  37
HETATM   37  C11 UNL     1      25.441  25.044  28.360  1.00  0.00     0.123 A 
HETATM   38  N11 UNL     1      24.273  24.625  28.824  1.00  0.00    -0.328 N 
HETATM   39  C12 UNL     1      23.755  25.092  29.974  1.00  0.00     0.101 A 
ATOM     40  H11 UNL     1      23.751  23.928  28.294  1.00  0.00     0.169 HD
HETATM   41  N12 UNL     1      22.616  24.644  30.369  1.00  0.00    -0.385 N 
HETATM   42  C13 UNL     1      24.440  26.033  30.712  1.00  0.00     0.065 A 
ATOM     43 2H12 UNL     1      22.110  23.947  29.822  1.00  0.00     0.157 HD
ATOM     44 1H12 UNL     1      22.223  24.997  31.240  1.00  0.00     0.157 HD
HETATM   45  C14 UNL     1      25.655  26.465  30.224  1.00  0.00     0.093 A 
HETATM   46  N13 UNL     1      26.108  25.959  29.076  1.00  0.00    -0.351 N 
ATOM     47  H13 UNL     1      27.008  26.286  28.725  1.00  0.00     0.166 HD
ENDBRANCH  35  37
ENDBRANCH  31  34
ENDBRANCH  26  28
ENDBRANCH  23  24
ENDBRANCH  22  23
ENDBRANCH  19  22
ENDBRANCH  14  15
ENDBRANCH  13  14
ENDBRANCH   9  13
ENDBRANCH   3   5
TORSDOF 10
ENDMDL
MODEL 5
REMARK VINA RESULT: -7.913183055      2.469      3.138
REMARK  10 active torsions:
REMARK  status: ('A' for Active; 'I' for Inactive)
REMARK    1  A    between atoms: N2_3  and  C2_5 
REMARK    2  A    between atoms: C3_10  and  C4_11 
REMARK    3  A    between atoms: C4_11  and  S1_12 
REMARK    4  A    between atoms: S1_12  and  C5_13 
REMARK    5  A    between atoms: C6_18  and  S2_19 
REMARK    6  A    between atoms: S2_19  and  C7_20 
REMARK    7  A    between atoms: C7_20  and  C8_21 
REMARK       I    between atoms: C8_21  and  N7_23 
REMARK    8  A    between atoms: N7_23  and  N8_25 
REMARK       I    between atoms: N8_25  and  C9_27 
REMARK       I    between atoms: C9_27  and  N9_29 
REMARK    9  A    between atoms: N9_29  and  N10_31 
REMARK   10  A    between atoms: C10_33  and  C11_34 
ROOT
HETATM    1  N1  UNL     1      28.852  28.840  24.389  1.00  0.00    -0.171 NA
HETATM    2  C1  UNL     1      28.305  29.806  24.718  1.00  0.00     0.196 C 
HETATM    3  N2  UNL     1      27.664  30.982  25.122  1.00  0.00    -0.124 N 
ATOM      4  H2  UNL     1      28.010  31.518  25.917  1.00  0.00     0.197 HD
ENDROOT
BRANCH   3   5
HETATM    5  C2  UNL     1      26.608  31.379  24.454  1.00  0.00     0.707 A 
HETATM    6  N3  UNL     1      25.330  31.055  24.674  1.00  0.00    -0.130 N 
HETATM    7  N4  UNL     1      24.548  31.647  23.797  1.00  0.00    -0.274 N 
ATOM      8  H3  UNL     1      25.006  30.437  25.418  1.00  0.00     0.205 HD
HETATM    9  C3  UNL     1      25.331  32.371  22.988  1.00  0.00     0.122 A 
ATOM     10  H4  UNL     1      23.532  31.569  23.743  1.00  0.00     0.189 HD
HETATM   11  N14 UNL     1      26.596  32.201  23.399  1.00  0.00    -0.176 N 
ATOM     12  H14 UNL     1      27.418  32.630  22.974  1.00  0.00     0.185 HD
BRANCH   9  13
HETATM   13  C4  UNL     1      24.864  33.208  21.846  1.00  0.00     0.160 C 
BRANCH  13  14
HETATM   14  S1  UNL     1      24.362  32.086  20.484  1.00  0.00    -0.096 SA
BRANCH  14  15
HETATM   15  C5  UNL     1      25.859  31.328  19.812  1.00  0.00     0.129 A 
HETATM   16  N5  UNL     1      26.624  30.400  20.378  1.00  0.00    -0.287 N 
HETATM   17  N6  UNL     1      27.643  29.971  19.772  1.00  0.00    -0.287 N 
ATOM     18  H5  UNL     1      26.386  30.034  21.300  1.00  0.00     0.188 HD
HETATM   19  C6  UNL     1      27.955  30.444  18.570  1.00  0.00     0.129 A 
ATOM     20  H6  UNL     1      28.230  29.260  20.207  1.00  0.00     0.188 HD
HETATM   21  S3  UNL     1      26.676  31.575  18.333  1.00  0.00    -0.038 SA
BRANCH  19  22
HETATM   22  S2  UNL     1      29.337  29.995  17.511  1.00  0.00    -0.094 SA
BRANCH  22  23
HETATM   23  C7  UNL     1      29.090  28.348  16.793  1.00  0.00     0.186 C 
BRANCH  23  24
HETATM   24  C8  UNL     1      29.278  27.380  17.890  1.00  0.00     0.245 C 
HETATM   25  O1  UNL     1      30.427  27.091  18.264  1.00  0.00    -0.271 OA
HETATM   26  N7  UNL     1      28.161  26.790  18.509  1.00  0.00    -0.265 N 
ATOM     27  H7  UNL     1      27.231  27.048  18.180  1.00  0.00     0.190 HD
BRANCH  26  28
HETATM   28  N8  UNL     1      28.263  25.859  19.559  1.00  0.00    -0.248 N 
HETATM   29  C9  UNL     1      28.271  26.355  20.888  1.00  0.00     0.353 C 
HETATM   30  O2  UNL     1      28.193  27.558  21.165  1.00  0.00    -0.244 OA
HETATM   31  N9  UNL     1      28.376  25.424  21.981  1.00  0.00    -0.251 N 
ATOM     32  H9  UNL     1      28.438  24.425  21.782  1.00  0.00     0.191 HD
ATOM     33  H8  UNL     1      28.329  24.859  19.371  1.00  0.00     0.192 HD
BRANCH  31  34
HETATM   34  N10 UNL     1      28.394  25.856  23.295  1.00  0.00    -0.304 N 
HETATM   35  C10 UNL     1      27.885  25.126  24.220  1.00  0.00     0.155 C 
ATOM     36  H10 UNL     1      28.813  26.756  23.528  1.00  0.00     0.186 HD
BRANCH  35  37
HETATM   37  C11 UNL     1      27.890  25.566  25.625  1.00  0.00     0.123 A 
HETATM   38  N11 UNL     1      28.577  24.973  26.591  1.00  0.00    -0.328 N 
HETATM   39  C12 UNL     1      28.546  25.413  27.861  1.00  0.00     0.101 A 
ATOM     40  H11 UNL     1      29.147  24.158  26.363  1.00  0.00     0.169 HD
HETATM   41  N12 UNL     1      29.237  24.792  28.750  1.00  0.00    -0.385 N 
HETATM   42  C13 UNL     1      27.786  26.514  28.195  1.00  0.00     0.065 A 
ATOM     43 2H12 UNL     1      29.799  23.978  28.502  1.00  0.00     0.157 HD
ATOM     44 1H12 UNL     1      29.214  25.125  29.713  1.00  0.00     0.157 HD
HETATM   45  C14 UNL     1      27.074  27.127  27.186  1.00  0.00     0.093 A 
HETATM   46  N13 UNL     1      27.151  26.635  25.949  1.00  0.00    -0.351 N 
ATOM     47  H13 UNL     1      26.620  27.098  25.211  1.00  0.00     0.166 HD
ENDBRANCH  35  37
ENDBRANCH  31  34
ENDBRANCH  26  28
ENDBRANCH  23  24
ENDBRANCH  22  23
ENDBRANCH  19  22
ENDBRANCH  14  15
ENDBRANCH  13  14
ENDBRANCH   9  13
ENDBRANCH   3   5
TORSDOF 10
ENDMDL
