MODEL 1
REMARK VINA RESULT: -9.280298406      0.000      0.000
REMARK  11 active torsions:
REMARK  status: ('A' for Active; 'I' for Inactive)
REMARK    1  A    between atoms: C2_2  and  C4_4 
REMARK    2  A    between atoms: C4_4  and  N1_5 
REMARK    3  A    between atoms: C4_4  and  C5_9 
REMARK    4  A    between atoms: C7_12  and  C8_13 
REMARK    5  A    between atoms: C9_16  and  C10_17 
REMARK    6  A    between atoms: C10_17  and  C11_18 
REMARK    7  A    between atoms: C12_21  and  N4_22 
REMARK    8  A    between atoms: C13_26  and  N5_27 
REMARK       I    between atoms: N5_27  and  C14_29 
REMARK    9  A    between atoms: C14_29  and  C15_31 
REMARK       I    between atoms: C15_31  and  N6_33 
REMARK   10  A    between atoms: N6_33  and  N7_35 
REMARK   11  A    between atoms: C16_37  and  C18_40 
ROOT
HETATM    1  N7  UNL     1      27.305  21.719  26.011  1.00  0.00    -0.284 N 
ATOM      2  H7  UNL     1      26.501  22.123  26.491  1.00  0.00     0.188 HD
HETATM    3  C16 UNL     1      27.775  20.578  26.367  1.00  0.00     0.194 C 
HETATM    4  C17 UNL     1      28.908  20.047  25.664  1.00  0.00     0.124 C 
HETATM    5  N8  UNL     1      29.806  19.611  25.111  1.00  0.00    -0.190 NA
ENDROOT
BRANCH   3   6
HETATM    6  C18 UNL     1      27.160  19.856  27.463  1.00  0.00     0.293 C 
HETATM    7  N9  UNL     1      27.422  18.474  27.621  1.00  0.00    -0.055 NA
HETATM    8  O3  UNL     1      26.398  20.428  28.276  1.00  0.00    -0.269 OA
ENDBRANCH   3   6
BRANCH   1   9
HETATM    9  N6  UNL     1      27.919  22.399  24.947  1.00  0.00    -0.261 N 
HETATM   10  C15 UNL     1      27.726  23.785  24.815  1.00  0.00     0.328 C 
HETATM   11  O2  UNL     1      27.028  24.408  25.615  1.00  0.00    -0.261 OA
ATOM     12  H6  UNL     1      28.499  21.893  24.278  1.00  0.00     0.190 HD
BRANCH  10  13
HETATM   13  C14 UNL     1      28.398  24.496  23.664  1.00  0.00     0.316 C 
HETATM   14  N5  UNL     1      27.767  25.629  23.229  1.00  0.00    -0.311 N 
ATOM     15  H5  UNL     1      26.924  25.842  23.763  1.00  0.00     0.170 HD
HETATM   16  O1  UNL     1      29.428  23.989  23.243  1.00  0.00    -0.262 OA
BRANCH  14  17
HETATM   17  C13 UNL     1      28.019  26.567  22.209  1.00  0.00     0.103 A 
HETATM   18  C11 UNL     1      28.315  27.868  22.044  1.00  0.00     0.052 A 
HETATM   19  N3  UNL     1      28.358  28.366  20.815  1.00  0.00    -0.338 N 
HETATM   20  C12 UNL     1      28.114  27.576  19.783  1.00  0.00     0.144 A 
ATOM     21  H3  UNL     1      28.578  29.351  20.668  1.00  0.00     0.168 HD
HETATM   22  S2  UNL     1      27.811  26.089  20.499  1.00  0.00    -0.035 SA
BRANCH  18  23
HETATM   23  C10 UNL     1      28.698  28.761  23.228  1.00  0.00     0.138 C 
BRANCH  23  24
HETATM   24  C9  UNL     1      27.795  28.569  24.372  1.00  0.00     0.110 A 
HETATM   25  N2  UNL     1      27.892  27.778  25.440  1.00  0.00    -0.321 N 
HETATM   26  C8  UNL     1      26.860  27.905  26.251  1.00  0.00     0.205 A 
ATOM     27  H2  UNL     1      28.676  27.147  25.611  1.00  0.00     0.169 HD
HETATM   28  O4  UNL     1      26.087  28.795  25.690  1.00  0.00    -0.215 OA
HETATM   29  N10 UNL     1      26.595  29.219  24.577  1.00  0.00    -0.246 N 
ATOM     30  H10 UNL     1      26.179  29.915  23.958  1.00  0.00     0.196 HD
BRANCH  26  31
HETATM   31  C7  UNL     1      26.657  27.179  27.512  1.00  0.00     0.128 A 
HETATM   32  S1  UNL     1      27.843  26.331  28.436  1.00  0.00    -0.078 SA
HETATM   33  C6  UNL     1      26.833  25.779  29.701  1.00  0.00     0.079 A 
HETATM   34  C5  UNL     1      25.613  26.296  29.322  1.00  0.00     0.047 A 
HETATM   35  N11 UNL     1      25.577  26.984  28.227  1.00  0.00    -0.348 N 
ATOM     36  H11 UNL     1      24.691  27.383  27.915  1.00  0.00     0.166 HD
BRANCH  34  37
HETATM   37  C4  UNL     1      24.396  26.036  30.191  1.00  0.00     0.236 C 
BRANCH  37  38
HETATM   38  C2  UNL     1      23.768  24.714  29.924  1.00  0.00     0.014 C 
HETATM   39  C1  UNL     1      23.304  24.680  28.487  1.00  0.00     0.012 C 
HETATM   40  C3  UNL     1      22.652  24.344  30.871  1.00  0.00     0.012 C 
ENDBRANCH  37  38
BRANCH  37  41
HETATM   41  N1  UNL     1      24.713  26.202  31.576  1.00  0.00    -0.069 N 
ATOM     42  H13 UNL     1      23.882  26.116  32.161  1.00  0.00     0.275 HD
ATOM     43  H12 UNL     1      25.242  25.407  31.934  1.00  0.00     0.275 HD
ATOM     44  H11 UNL     1      25.200  27.081  31.749  1.00  0.00     0.275 HD
ENDBRANCH  37  41
ENDBRANCH  34  37
ENDBRANCH  26  31
ENDBRANCH  23  24
ENDBRANCH  18  23
BRANCH  20  45
HETATM   45  N4  UNL     1      28.117  27.919  18.502  1.00  0.00    -0.380 N 
ATOM     46  H42 UNL     1      28.884  28.247  17.913  1.00  0.00     0.158 HD
ATOM     47  H41 UNL     1      27.321  27.911  17.864  1.00  0.00     0.158 HD
ENDBRANCH  20  45
ENDBRANCH  14  17
ENDBRANCH  10  13
ENDBRANCH   1   9
TORSDOF 11
ENDMDL
MODEL 2
REMARK VINA RESULT: -9.020281792      2.265      3.006
REMARK  11 active torsions:
REMARK  status: ('A' for Active; 'I' for Inactive)
REMARK    1  A    between atoms: C2_2  and  C4_4 
REMARK    2  A    between atoms: C4_4  and  N1_5 
REMARK    3  A    between atoms: C4_4  and  C5_9 
REMARK    4  A    between atoms: C7_12  and  C8_13 
REMARK    5  A    between atoms: C9_16  and  C10_17 
REMARK    6  A    between atoms: C10_17  and  C11_18 
REMARK    7  A    between atoms: C12_21  and  N4_22 
REMARK    8  A    between atoms: C13_26  and  N5_27 
REMARK       I    between atoms: N5_27  and  C14_29 
REMARK    9  A    between atoms: C14_29  and  C15_31 
REMARK       I    between atoms: C15_31  and  N6_33 
REMARK   10  A    between atoms: N6_33  and  N7_35 
REMARK   11  A    between atoms: C16_37  and  C18_40 
ROOT
HETATM    1  N7  UNL     1      28.913  23.359  23.610  1.00  0.00    -0.284 N 
ATOM      2  H7  UNL     1      29.518  22.886  22.939  1.00  0.00     0.188 HD
HETATM    3  C16 UNL     1      28.024  22.703  24.266  1.00  0.00     0.194 C 
HETATM    4  C17 UNL     1      27.195  23.409  25.201  1.00  0.00     0.124 C 
HETATM    5  N8  UNL     1      26.532  23.957  25.952  1.00  0.00    -0.190 NA
ENDROOT
BRANCH   3   6
HETATM    6  C18 UNL     1      27.876  21.278  24.051  1.00  0.00     0.293 C 
HETATM    7  N9  UNL     1      28.683  20.374  24.783  1.00  0.00    -0.055 NA
HETATM    8  O3  UNL     1      27.047  20.825  23.229  1.00  0.00    -0.269 OA
ENDBRANCH   3   6
BRANCH   1   9
HETATM    9  N6  UNL     1      29.037  24.739  23.836  1.00  0.00    -0.261 N 
HETATM   10  C15 UNL     1      28.620  25.638  22.839  1.00  0.00     0.328 C 
HETATM   11  O2  UNL     1      28.150  25.234  21.776  1.00  0.00    -0.261 OA
ATOM     12  H6  UNL     1      29.425  25.085  24.713  1.00  0.00     0.190 HD
BRANCH  10  13
HETATM   13  C14 UNL     1      28.761  27.118  23.105  1.00  0.00     0.316 C 
HETATM   14  N5  UNL     1      27.957  27.926  22.349  1.00  0.00    -0.311 N 
ATOM     15  H5  UNL     1      27.357  27.402  21.711  1.00  0.00     0.170 HD
HETATM   16  O1  UNL     1      29.573  27.439  23.960  1.00  0.00    -0.262 OA
BRANCH  14  17
HETATM   17  C13 UNL     1      27.772  29.319  22.252  1.00  0.00     0.103 A 
HETATM   18  C11 UNL     1      27.884  30.436  22.992  1.00  0.00     0.052 A 
HETATM   19  N3  UNL     1      27.470  31.589  22.483  1.00  0.00    -0.338 N 
HETATM   20  C12 UNL     1      26.961  31.616  21.263  1.00  0.00     0.144 A 
ATOM     21  H3  UNL     1      27.544  32.448  23.028  1.00  0.00     0.168 HD
HETATM   22  S2  UNL     1      27.042  30.013  20.775  1.00  0.00    -0.035 SA
BRANCH  18  23
HETATM   23  C10 UNL     1      28.567  30.426  24.363  1.00  0.00     0.138 C 
BRANCH  23  24
HETATM   24  C9  UNL     1      27.705  29.836  25.398  1.00  0.00     0.110 A 
HETATM   25  N2  UNL     1      27.740  28.640  25.988  1.00  0.00    -0.321 N 
HETATM   26  C8  UNL     1      26.780  28.498  26.881  1.00  0.00     0.205 A 
ATOM     27  H2  UNL     1      28.429  27.920  25.773  1.00  0.00     0.169 HD
HETATM   28  O4  UNL     1      26.120  29.624  26.863  1.00  0.00    -0.215 OA
HETATM   29  N10 UNL     1      26.627  30.448  26.003  1.00  0.00    -0.246 N 
ATOM     30  H10 UNL     1      26.287  31.389  25.806  1.00  0.00     0.196 HD
BRANCH  26  31
HETATM   31  C7  UNL     1      26.537  27.306  27.705  1.00  0.00     0.128 A 
HETATM   32  S1  UNL     1      27.714  26.312  28.485  1.00  0.00    -0.078 SA
HETATM   33  C6  UNL     1      26.654  25.176  29.199  1.00  0.00     0.079 A 
HETATM   34  C5  UNL     1      25.428  25.646  28.781  1.00  0.00     0.047 A 
HETATM   35  N11 UNL     1      25.422  26.706  28.041  1.00  0.00    -0.348 N 
ATOM     36  H11 UNL     1      24.532  27.083  27.713  1.00  0.00     0.166 HD
BRANCH  34  37
HETATM   37  C4  UNL     1      24.170  24.908  29.201  1.00  0.00     0.236 C 
BRANCH  37  38
HETATM   38  C2  UNL     1      23.935  24.958  30.670  1.00  0.00     0.014 C 
HETATM   39  C1  UNL     1      22.679  24.182  30.986  1.00  0.00     0.012 C 
HETATM   40  C3  UNL     1      23.881  26.350  31.252  1.00  0.00     0.012 C 
ENDBRANCH  37  38
BRANCH  37  41
HETATM   41  N1  UNL     1      23.034  25.375  28.467  1.00  0.00    -0.069 N 
ATOM     42  H13 UNL     1      22.240  24.744  28.569  1.00  0.00     0.275 HD
ATOM     43  H12 UNL     1      22.631  26.208  28.896  1.00  0.00     0.275 HD
ATOM     44  H11 UNL     1      23.259  25.534  27.485  1.00  0.00     0.275 HD
ENDBRANCH  37  41
ENDBRANCH  34  37
ENDBRANCH  26  31
ENDBRANCH  23  24
ENDBRANCH  18  23
BRANCH  20  45
HETATM   45  N4  UNL     1      26.505  32.681  20.616  1.00  0.00    -0.380 N 
ATOM     46  H42 UNL     1      26.763  33.052  19.701  1.00  0.00     0.158 HD
ATOM     47  H41 UNL     1      25.789  33.332  20.938  1.00  0.00     0.158 HD
ENDBRANCH  20  45
ENDBRANCH  14  17
ENDBRANCH  10  13
ENDBRANCH   1   9
TORSDOF 11
ENDMDL
MODEL 3
REMARK VINA RESULT: -8.973656888      2.790      7.830
REMARK  11 active torsions:
REMARK  status: ('A' for Active; 'I' for Inactive)
REMARK    1  A    between atoms: C2_2  and  C4_4 
REMARK    2  A    between atoms: C4_4  and  N1_5 
REMARK    3  A    between atoms: C4_4  and  C5_9 
REMARK    4  A    between atoms: C7_12  and  C8_13 
REMARK    5  A    between atoms: C9_16  and  C10_17 
REMARK    6  A    between atoms: C10_17  and  C11_18 
REMARK    7  A    between atoms: C12_21  and  N4_22 
REMARK    8  A    between atoms: C13_26  and  N5_27 
REMARK       I    between atoms: N5_27  and  C14_29 
REMARK    9  A    between atoms: C14_29  and  C15_31 
REMARK       I    between atoms: C15_31  and  N6_33 
REMARK   10  A    between atoms: N6_33  and  N7_35 
REMARK   11  A    between atoms: C16_37  and  C18_40 
ROOT
HETATM    1  N7  UNL     1      27.353  20.688  27.474  1.00  0.00    -0.284 N 
ATOM      2  H7  UNL     1      26.715  20.724  28.269  1.00  0.00     0.188 HD
HETATM    3  C16 UNL     1      28.084  19.653  27.267  1.00  0.00     0.194 C 
HETATM    4  C17 UNL     1      28.968  19.646  26.135  1.00  0.00     0.124 C 
HETATM    5  N8  UNL     1      29.671  19.625  25.237  1.00  0.00    -0.190 NA
ENDROOT
BRANCH   3   6
HETATM    6  C18 UNL     1      28.006  18.523  28.170  1.00  0.00     0.293 C 
HETATM    7  N9  UNL     1      29.195  17.872  28.579  1.00  0.00    -0.055 NA
HETATM    8  O3  UNL     1      26.906  18.106  28.600  1.00  0.00    -0.269 OA
ENDBRANCH   3   6
BRANCH   1   9
HETATM    9  N6  UNL     1      27.448  21.771  26.585  1.00  0.00    -0.261 N 
HETATM   10  C15 UNL     1      26.917  23.017  26.960  1.00  0.00     0.328 C 
HETATM   11  O2  UNL     1      26.372  23.172  28.052  1.00  0.00    -0.261 OA
ATOM     12  H6  UNL     1      27.897  21.654  25.677  1.00  0.00     0.190 HD
BRANCH  10  13
HETATM   13  C14 UNL     1      27.032  24.167  25.988  1.00  0.00     0.316 C 
HETATM   14  N5  UNL     1      27.295  25.385  26.553  1.00  0.00    -0.311 N 
ATOM     15  H5  UNL     1      27.390  25.338  27.567  1.00  0.00     0.170 HD
HETATM   16  O1  UNL     1      26.880  23.893  24.806  1.00  0.00    -0.262 OA
BRANCH  14  17
HETATM   17  C13 UNL     1      27.463  26.689  26.048  1.00  0.00     0.103 A 
HETATM   18  C11 UNL     1      28.286  27.399  25.258  1.00  0.00     0.052 A 
HETATM   19  N3  UNL     1      28.102  28.708  25.148  1.00  0.00    -0.338 N 
HETATM   20  C12 UNL     1      27.114  29.284  25.812  1.00  0.00     0.144 A 
ATOM     21  H3  UNL     1      28.716  29.266  24.555  1.00  0.00     0.168 HD
HETATM   22  S2  UNL     1      26.398  28.003  26.626  1.00  0.00    -0.035 SA
BRANCH  18  23
HETATM   23  C10 UNL     1      29.365  26.721  24.407  1.00  0.00     0.138 C 
BRANCH  23  24
HETATM   24  C9  UNL     1      28.958  26.605  22.999  1.00  0.00     0.110 A 
HETATM   25  N2  UNL     1      29.320  27.304  21.923  1.00  0.00    -0.321 N 
HETATM   26  C8  UNL     1      28.722  26.877  20.827  1.00  0.00     0.205 A 
ATOM     27  H2  UNL     1      29.982  28.079  21.944  1.00  0.00     0.169 HD
HETATM   28  O4  UNL     1      27.964  25.886  21.210  1.00  0.00    -0.215 OA
HETATM   29  N10 UNL     1      28.067  25.684  22.485  1.00  0.00    -0.246 N 
ATOM     30  H10 UNL     1      27.574  24.968  23.018  1.00  0.00     0.196 HD
BRANCH  26  31
HETATM   31  C7  UNL     1      28.899  27.428  19.477  1.00  0.00     0.128 A 
HETATM   32  S1  UNL     1      28.693  26.604  17.973  1.00  0.00    -0.078 SA
HETATM   33  C6  UNL     1      29.083  27.896  16.921  1.00  0.00     0.079 A 
HETATM   34  C5  UNL     1      29.354  28.907  17.818  1.00  0.00     0.047 A 
HETATM   35  N11 UNL     1      29.248  28.625  19.076  1.00  0.00    -0.348 N 
ATOM     36  H11 UNL     1      29.441  29.348  19.769  1.00  0.00     0.166 HD
BRANCH  34  37
HETATM   37  C4  UNL     1      29.756  30.273  17.294  1.00  0.00     0.236 C 
BRANCH  37  38
HETATM   38  C2  UNL     1      28.802  31.345  17.688  1.00  0.00     0.014 C 
HETATM   39  C1  UNL     1      27.691  31.404  16.667  1.00  0.00     0.012 C 
HETATM   40  C3  UNL     1      29.431  32.702  17.895  1.00  0.00     0.012 C 
ENDBRANCH  37  38
BRANCH  37  41
HETATM   41  N1  UNL     1      31.097  30.592  17.675  1.00  0.00    -0.069 N 
ATOM     42  H13 UNL     1      31.762  29.915  17.300  1.00  0.00     0.275 HD
ATOM     43  H12 UNL     1      31.432  31.426  17.195  1.00  0.00     0.275 HD
ATOM     44  H11 UNL     1      31.191  30.682  18.687  1.00  0.00     0.275 HD
ENDBRANCH  37  41
ENDBRANCH  34  37
ENDBRANCH  26  31
ENDBRANCH  23  24
ENDBRANCH  18  23
BRANCH  20  45
HETATM   45  N4  UNL     1      26.800  30.573  25.809  1.00  0.00    -0.380 N 
ATOM     46  H42 UNL     1      25.962  31.042  25.464  1.00  0.00     0.158 HD
ATOM     47  H41 UNL     1      27.367  31.342  26.167  1.00  0.00     0.158 HD
ENDBRANCH  20  45
ENDBRANCH  14  17
ENDBRANCH  10  13
ENDBRANCH   1   9
TORSDOF 11
ENDMDL
MODEL 4
REMARK VINA RESULT: -8.906763310      3.518      9.684
REMARK  11 active torsions:
REMARK  status: ('A' for Active; 'I' for Inactive)
REMARK    1  A    between atoms: C2_2  and  C4_4 
REMARK    2  A    between atoms: C4_4  and  N1_5 
REMARK    3  A    between atoms: C4_4  and  C5_9 
REMARK    4  A    between atoms: C7_12  and  C8_13 
REMARK    5  A    between atoms: C9_16  and  C10_17 
REMARK    6  A    between atoms: C10_17  and  C11_18 
REMARK    7  A    between atoms: C12_21  and  N4_22 
REMARK    8  A    between atoms: C13_26  and  N5_27 
REMARK       I    between atoms: N5_27  and  C14_29 
REMARK    9  A    between atoms: C14_29  and  C15_31 
REMARK       I    between atoms: C15_31  and  N6_33 
REMARK   10  A    between atoms: N6_33  and  N7_35 
REMARK   11  A    between atoms: C16_37  and  C18_40 
ROOT
HETATM    1  N7  UNL     1      25.204  32.044  23.843  1.00  0.00    -0.284 N 
ATOM      2  H7  UNL     1      24.257  32.314  24.110  1.00  0.00     0.188 HD
HETATM    3  C16 UNL     1      25.684  32.386  22.702  1.00  0.00     0.194 C 
HETATM    4  C17 UNL     1      27.020  31.985  22.366  1.00  0.00     0.124 C 
HETATM    5  N8  UNL     1      28.083  31.676  22.088  1.00  0.00    -0.190 NA
ENDROOT
BRANCH   3   6
HETATM    6  C18 UNL     1      24.875  33.163  21.783  1.00  0.00     0.293 C 
HETATM    7  N9  UNL     1      23.584  33.588  22.178  1.00  0.00    -0.055 NA
HETATM    8  O3  UNL     1      25.294  33.468  20.643  1.00  0.00    -0.269 OA
ENDBRANCH   3   6
BRANCH   1   9
HETATM    9  N6  UNL     1      26.006  31.291  24.714  1.00  0.00    -0.261 N 
HETATM   10  C15 UNL     1      25.722  29.928  24.906  1.00  0.00     0.328 C 
HETATM   11  O2  UNL     1      24.783  29.387  24.322  1.00  0.00    -0.261 OA
ATOM     12  H6  UNL     1      26.787  31.729  25.204  1.00  0.00     0.190 HD
BRANCH  10  13
HETATM   13  C14 UNL     1      26.600  29.138  25.847  1.00  0.00     0.316 C 
HETATM   14  N5  UNL     1      26.651  27.792  25.606  1.00  0.00    -0.311 N 
ATOM     15  H5  UNL     1      26.089  27.512  24.802  1.00  0.00     0.170 HD
HETATM   16  O1  UNL     1      27.169  29.777  26.720  1.00  0.00    -0.262 OA
BRANCH  14  17
HETATM   17  C13 UNL     1      27.306  26.706  26.219  1.00  0.00     0.103 A 
HETATM   18  C11 UNL     1      28.424  25.969  26.107  1.00  0.00     0.052 A 
HETATM   19  N3  UNL     1      28.579  24.911  26.891  1.00  0.00    -0.338 N 
HETATM   20  C12 UNL     1      27.635  24.605  27.765  1.00  0.00     0.144 A 
ATOM     21  H3  UNL     1      29.419  24.337  26.820  1.00  0.00     0.168 HD
HETATM   22  S2  UNL     1      26.483  25.800  27.521  1.00  0.00    -0.035 SA
BRANCH  18  23
HETATM   23  C10 UNL     1      29.565  26.379  25.168  1.00  0.00     0.138 C 
BRANCH  23  24
HETATM   24  C9  UNL     1      29.161  26.309  23.756  1.00  0.00     0.110 A 
HETATM   25  N2  UNL     1      29.120  27.249  22.811  1.00  0.00    -0.321 N 
HETATM   26  C8  UNL     1      28.699  26.775  21.655  1.00  0.00     0.205 A 
ATOM     27  H2  UNL     1      29.385  28.222  22.964  1.00  0.00     0.169 HD
HETATM   28  O4  UNL     1      28.465  25.508  21.864  1.00  0.00    -0.215 OA
HETATM   29  N10 UNL     1      28.723  25.182  23.090  1.00  0.00    -0.246 N 
ATOM     30  H10 UNL     1      28.620  24.252  23.496  1.00  0.00     0.196 HD
BRANCH  26  31
HETATM   31  C7  UNL     1      28.537  27.544  20.413  1.00  0.00     0.128 A 
HETATM   32  S1  UNL     1      29.513  27.457  18.991  1.00  0.00    -0.078 SA
HETATM   33  C6  UNL     1      28.699  28.631  18.052  1.00  0.00     0.079 A 
HETATM   34  C5  UNL     1      27.700  29.027  18.915  1.00  0.00     0.047 A 
HETATM   35  N11 UNL     1      27.662  28.457  20.076  1.00  0.00    -0.348 N 
ATOM     36  H11 UNL     1      26.936  28.725  20.741  1.00  0.00     0.166 HD
BRANCH  34  37
HETATM   37  C4  UNL     1      26.715  30.091  18.469  1.00  0.00     0.236 C 
BRANCH  37  38
HETATM   38  C2  UNL     1      25.297  29.691  18.680  1.00  0.00     0.014 C 
HETATM   39  C1  UNL     1      24.449  30.329  17.606  1.00  0.00     0.012 C 
HETATM   40  C3  UNL     1      24.756  29.989  20.057  1.00  0.00     0.012 C 
ENDBRANCH  37  38
BRANCH  37  41
HETATM   41  N1  UNL     1      27.006  31.348  19.087  1.00  0.00    -0.069 N 
ATOM     42  H13 UNL     1      27.901  31.324  19.577  1.00  0.00     0.275 HD
ATOM     43  H12 UNL     1      27.224  32.063  18.393  1.00  0.00     0.275 HD
ATOM     44  H11 UNL     1      26.252  31.648  19.706  1.00  0.00     0.275 HD
ENDBRANCH  37  41
ENDBRANCH  34  37
ENDBRANCH  26  31
ENDBRANCH  23  24
ENDBRANCH  18  23
BRANCH  20  45
HETATM   45  N4  UNL     1      27.639  23.586  28.615  1.00  0.00    -0.380 N 
ATOM     46  H42 UNL     1      28.237  23.408  29.422  1.00  0.00     0.158 HD
ATOM     47  H41 UNL     1      27.017  22.777  28.602  1.00  0.00     0.158 HD
ENDBRANCH  20  45
ENDBRANCH  14  17
ENDBRANCH  10  13
ENDBRANCH   1   9
TORSDOF 11
ENDMDL
MODEL 5
REMARK VINA RESULT: -8.747496638      4.713      7.259
REMARK  11 active torsions:
REMARK  status: ('A' for Active; 'I' for Inactive)
REMARK    1  A    between atoms: C2_2  and  C4_4 
REMARK    2  A    between atoms: C4_4  and  N1_5 
REMARK    3  A    between atoms: C4_4  and  C5_9 
REMARK    4  A    between atoms: C7_12  and  C8_13 
REMARK    5  A    between atoms: C9_16  and  C10_17 
REMARK    6  A    between atoms: C10_17  and  C11_18 
REMARK    7  A    between atoms: C12_21  and  N4_22 
REMARK    8  A    between atoms: C13_26  and  N5_27 
REMARK       I    between atoms: N5_27  and  C14_29 
REMARK    9  A    between atoms: C14_29  and  C15_31 
REMARK       I    between atoms: C15_31  and  N6_33 
REMARK   10  A    between atoms: N6_33  and  N7_35 
REMARK   11  A    between atoms: C16_37  and  C18_40 
ROOT
HETATM    1  N7  UNL     1      24.589  25.071  30.453  1.00  0.00    -0.284 N 
ATOM      2  H7  UNL     1      24.800  25.199  31.443  1.00  0.00     0.188 HD
HETATM    3  C16 UNL     1      23.410  24.731  30.074  1.00  0.00     0.194 C 
HETATM    4  C17 UNL     1      23.157  24.562  28.671  1.00  0.00     0.124 C 
HETATM    5  N8  UNL     1      22.941  24.428  27.559  1.00  0.00    -0.190 NA
ENDROOT
BRANCH   3   6
HETATM    6  C18 UNL     1      22.368  24.525  31.059  1.00  0.00     0.293 C 
HETATM    7  N9  UNL     1      21.894  23.215  31.311  1.00  0.00    -0.055 NA
HETATM    8  O3  UNL     1      21.874  25.484  31.696  1.00  0.00    -0.269 OA
ENDBRANCH   3   6
BRANCH   1   9
HETATM    9  N6  UNL     1      25.582  25.263  29.479  1.00  0.00    -0.261 N 
HETATM   10  C15 UNL     1      26.362  26.432  29.515  1.00  0.00     0.328 C 
HETATM   11  O2  UNL     1      26.188  27.286  30.384  1.00  0.00    -0.261 OA
ATOM     12  H6  UNL     1      25.735  24.563  28.754  1.00  0.00     0.190 HD
BRANCH  10  13
HETATM   13  C14 UNL     1      27.426  26.616  28.458  1.00  0.00     0.316 C 
HETATM   14  N5  UNL     1      26.974  27.067  27.248  1.00  0.00    -0.311 N 
ATOM     15  H5  UNL     1      25.967  27.230  27.237  1.00  0.00     0.170 HD
HETATM   16  O1  UNL     1      28.571  26.345  28.790  1.00  0.00    -0.262 OA
BRANCH  14  17
HETATM   17  C13 UNL     1      27.587  27.357  26.013  1.00  0.00     0.103 A 
HETATM   18  C11 UNL     1      27.921  28.404  25.239  1.00  0.00     0.052 A 
HETATM   19  N3  UNL     1      28.419  28.177  24.031  1.00  0.00    -0.338 N 
HETATM   20  C12 UNL     1      28.580  26.933  23.616  1.00  0.00     0.144 A 
ATOM     21  H3  UNL     1      28.676  28.958  23.427  1.00  0.00     0.168 HD
HETATM   22  S2  UNL     1      28.033  26.020  24.914  1.00  0.00    -0.035 SA
BRANCH  18  23
HETATM   23  C10 UNL     1      27.833  29.844  25.755  1.00  0.00     0.138 C 
BRANCH  23  24
HETATM   24  C9  UNL     1      27.357  30.768  24.715  1.00  0.00     0.110 A 
HETATM   25  N2  UNL     1      26.122  31.119  24.355  1.00  0.00    -0.321 N 
HETATM   26  C8  UNL     1      26.121  31.993  23.367  1.00  0.00     0.205 A 
ATOM     27  H2  UNL     1      25.277  30.755  24.794  1.00  0.00     0.169 HD
HETATM   28  O4  UNL     1      27.379  32.204  23.089  1.00  0.00    -0.215 OA
HETATM   29  N10 UNL     1      28.150  31.505  23.858  1.00  0.00    -0.246 N 
ATOM     30  H10 UNL     1      29.170  31.498  23.835  1.00  0.00     0.196 HD
BRANCH  26  31
HETATM   31  C7  UNL     1      24.931  32.580  22.735  1.00  0.00     0.128 A 
HETATM   32  S1  UNL     1      24.826  33.315  21.176  1.00  0.00    -0.078 SA
HETATM   33  C6  UNL     1      23.169  33.734  21.204  1.00  0.00     0.079 A 
HETATM   34  C5  UNL     1      22.790  33.269  22.446  1.00  0.00     0.047 A 
HETATM   35  N11 UNL     1      23.701  32.704  23.168  1.00  0.00    -0.348 N 
ATOM     36  H11 UNL     1      23.458  32.348  24.093  1.00  0.00     0.166 HD
BRANCH  34  37
HETATM   37  C4  UNL     1      21.350  33.443  22.893  1.00  0.00     0.236 C 
BRANCH  37  38
HETATM   38  C2  UNL     1      21.153  33.135  24.336  1.00  0.00     0.014 C 
HETATM   39  C1  UNL     1      20.756  31.685  24.472  1.00  0.00     0.012 C 
HETATM   40  C3  UNL     1      20.177  34.042  25.046  1.00  0.00     0.012 C 
ENDBRANCH  37  38
BRANCH  37  41
HETATM   41  N1  UNL     1      20.865  34.746  22.559  1.00  0.00    -0.069 N 
ATOM     42  H13 UNL     1      19.957  34.698  22.096  1.00  0.00     0.275 HD
ATOM     43  H12 UNL     1      20.591  35.266  23.392  1.00  0.00     0.275 HD
ATOM     44  H11 UNL     1      21.540  35.268  22.000  1.00  0.00     0.275 HD
ENDBRANCH  37  41
ENDBRANCH  34  37
ENDBRANCH  26  31
ENDBRANCH  23  24
ENDBRANCH  18  23
BRANCH  20  45
HETATM   45  N4  UNL     1      29.061  26.542  22.443  1.00  0.00    -0.380 N 
ATOM     46  H42 UNL     1      29.535  27.080  21.718  1.00  0.00     0.158 HD
ATOM     47  H41 UNL     1      29.037  25.598  22.056  1.00  0.00     0.158 HD
ENDBRANCH  20  45
ENDBRANCH  14  17
ENDBRANCH  10  13
ENDBRANCH   1   9
TORSDOF 11
ENDMDL
