MODEL 1
REMARK VINA RESULT: -8.423261083      0.000      0.000
REMARK  12 active torsions:
REMARK  status: ('A' for Active; 'I' for Inactive)
REMARK    1  A    between atoms: C2_2  and  C3_3 
REMARK    2  A    between atoms: C4_6  and  N2_7 
REMARK       I    between atoms: N2_7  and  C5_9 
REMARK    3  A    between atoms: C5_9  and  C6_11 
REMARK    4  A    between atoms: C9_14  and  N3_15 
REMARK    5  A    between atoms: N5_22  and  C12_23 
REMARK    6  A    between atoms: C12_23  and  C13_24 
REMARK       I    between atoms: C13_24  and  N6_26 
REMARK    7  A    between atoms: N6_26  and  N7_28 
REMARK       I    between atoms: N7_28  and  C14_30 
REMARK    8  A    between atoms: C14_30  and  C15_32 
REMARK    9  A    between atoms: N10_36  and  C16_37 
REMARK   10  A    between atoms: C17_43  and  N13_44 
REMARK   11  A    between atoms: C18_47  and  N14_48 
REMARK   12  A    between atoms: N14_48  and  O5_50 
ROOT
HETATM    1  C13 UNL     1      27.504  28.419  19.787  1.00  0.00     0.275 C 
HETATM    2  O2  UNL     1      26.449  27.759  19.984  1.00  0.00    -0.265 OA
HETATM    3  N6  UNL     1      28.291  28.702  20.934  1.00  0.00    -0.262 N 
ATOM      4  H6  UNL     1      29.150  29.238  20.812  1.00  0.00     0.190 HD
ENDROOT
BRANCH   3   5
HETATM    5  N7  UNL     1      27.947  28.283  22.220  1.00  0.00    -0.262 N 
HETATM    6  C14 UNL     1      28.543  27.155  22.844  1.00  0.00     0.291 C 
HETATM    7  O3  UNL     1      29.416  26.520  22.181  1.00  0.00    -0.264 OA
ATOM      8  H7  UNL     1      27.239  28.808  22.733  1.00  0.00     0.190 HD
BRANCH   6   9
HETATM    9  C15 UNL     1      28.157  26.759  24.190  1.00  0.00     0.163 A 
HETATM   10  N8  UNL     1      27.836  27.615  25.176  1.00  0.00    -0.275 N 
HETATM   11  N9  UNL     1      27.542  26.922  26.261  1.00  0.00    -0.011 NA
ATOM     12  H8  UNL     1      27.823  28.632  25.099  1.00  0.00     0.184 HD
HETATM   13  N10 UNL     1      27.651  25.618  26.047  1.00  0.00    -0.198 N 
HETATM   14  C18 UNL     1      28.034  25.511  24.757  1.00  0.00     0.181 A 
BRANCH  13  15
HETATM   15  C16 UNL     1      27.405  24.601  27.010  1.00  0.00     0.195 A 
HETATM   16  N11 UNL     1      26.416  23.692  27.072  1.00  0.00    -0.220 N 
HETATM   17  O4  UNL     1      26.568  22.932  28.140  1.00  0.00    -0.153 OA
ATOM     18  H11 UNL     1      25.660  23.603  26.392  1.00  0.00     0.198 HD
HETATM   19  N12 UNL     1      27.630  23.303  28.800  1.00  0.00    -0.222 N 
HETATM   20  C17 UNL     1      28.186  24.334  28.142  1.00  0.00     0.169 A 
ATOM     21  H12 UNL     1      27.977  22.884  29.663  1.00  0.00     0.198 HD
BRANCH  20  22
HETATM   22  N13 UNL     1      29.260  24.952  28.517  1.00  0.00    -0.381 N 
ATOM     23 2H13 UNL     1      29.830  25.544  27.912  1.00  0.00     0.157 HD
ATOM     24 1H13 UNL     1      29.686  24.943  29.444  1.00  0.00     0.157 HD
ENDBRANCH  20  22
ENDBRANCH  13  15
BRANCH  14  25
HETATM   25  N14 UNL     1      28.276  24.300  24.073  1.00  0.00    -0.249 N 
ATOM     26  H14 UNL     1      27.527  23.622  23.932  1.00  0.00     0.196 HD
BRANCH  25  27
HETATM   27  O5  UNL     1      29.424  24.076  23.642  1.00  0.00    -0.288 OA
ATOM     28  H5  UNL     1      29.842  23.253  23.867  1.00  0.00     0.244 HD
ENDBRANCH  25  27
ENDBRANCH  14  25
ENDBRANCH   6   9
ENDBRANCH   3   5
BRANCH   1  29
HETATM   29  C12 UNL     1      27.827  28.828  18.456  1.00  0.00     0.173 C 
BRANCH  29  30
HETATM   30  N5  UNL     1      28.690  29.904  18.194  1.00  0.00    -0.313 N 
HETATM   31  C3  UNL     1      28.504  31.234  18.376  1.00  0.00     0.088 A 
HETATM   32  N1  UNL     1      29.624  31.855  17.966  1.00  0.00    -0.331 N 
HETATM   33  C4  UNL     1      30.517  30.961  17.532  1.00  0.00     0.125 A 
ATOM     34  H1  UNL     1      29.771  32.864  17.985  1.00  0.00     0.168 HD
HETATM   35  C11 UNL     1      29.927  29.735  17.676  1.00  0.00     0.146 A 
BRANCH  31  36
HETATM   36  C2  UNL     1      27.284  31.816  18.917  1.00  0.00     0.072 C 
HETATM   37  C1  UNL     1      27.403  32.166  20.396  1.00  0.00     0.013 C 
ENDBRANCH  31  36
BRANCH  33  38
HETATM   38  N2  UNL     1      31.830  31.202  16.994  1.00  0.00    -0.308 N 
HETATM   39  C5  UNL     1      31.923  31.680  15.665  1.00  0.00     0.258 C 
HETATM   40  O1  UNL     1      30.893  31.873  14.988  1.00  0.00    -0.267 OA
ATOM     41  H2  UNL     1      32.667  31.034  17.552  1.00  0.00     0.170 HD
BRANCH  39  42
HETATM   42  C6  UNL     1      33.237  31.940  15.105  1.00  0.00     0.047 A 
HETATM   43  C7  UNL     1      33.795  31.068  14.196  1.00  0.00     0.022 A 
HETATM   44  C8  UNL     1      35.022  31.316  13.663  1.00  0.00     0.049 A 
HETATM   45  C9  UNL     1      35.753  32.452  14.015  1.00  0.00     0.098 A 
HETATM   46  N4  UNL     1      35.160  33.264  14.902  1.00  0.00    -0.352 N 
HETATM   47  C10 UNL     1      33.965  33.074  15.456  1.00  0.00     0.106 A 
ATOM     48  H4  UNL     1      35.671  34.103  15.178  1.00  0.00     0.166 HD
BRANCH  45  49
HETATM   49  N3  UNL     1      36.915  32.693  13.524  1.00  0.00    -0.385 N 
ATOM     50  H32 UNL     1      37.124  32.591  12.531  1.00  0.00     0.157 HD
ATOM     51  H31 UNL     1      37.693  33.007  14.105  1.00  0.00     0.157 HD
ENDBRANCH  45  49
ENDBRANCH  39  42
ENDBRANCH  33  38
ENDBRANCH  29  30
ENDBRANCH   1  29
TORSDOF 12
ENDMDL
MODEL 2
REMARK VINA RESULT: -8.292601171      2.070      2.401
REMARK  12 active torsions:
REMARK  status: ('A' for Active; 'I' for Inactive)
REMARK    1  A    between atoms: C2_2  and  C3_3 
REMARK    2  A    between atoms: C4_6  and  N2_7 
REMARK       I    between atoms: N2_7  and  C5_9 
REMARK    3  A    between atoms: C5_9  and  C6_11 
REMARK    4  A    between atoms: C9_14  and  N3_15 
REMARK    5  A    between atoms: N5_22  and  C12_23 
REMARK    6  A    between atoms: C12_23  and  C13_24 
REMARK       I    between atoms: C13_24  and  N6_26 
REMARK    7  A    between atoms: N6_26  and  N7_28 
REMARK       I    between atoms: N7_28  and  C14_30 
REMARK    8  A    between atoms: C14_30  and  C15_32 
REMARK    9  A    between atoms: N10_36  and  C16_37 
REMARK   10  A    between atoms: C17_43  and  N13_44 
REMARK   11  A    between atoms: C18_47  and  N14_48 
REMARK   12  A    between atoms: N14_48  and  O5_50 
ROOT
HETATM    1  C13 UNL     1      28.278  26.887  20.184  1.00  0.00     0.275 C 
HETATM    2  O2  UNL     1      27.368  26.080  20.511  1.00  0.00    -0.265 OA
HETATM    3  N6  UNL     1      29.188  27.256  21.210  1.00  0.00    -0.262 N 
ATOM      4  H6  UNL     1      29.937  27.911  20.982  1.00  0.00     0.190 HD
ENDROOT
BRANCH   3   5
HETATM    5  N7  UNL     1      29.110  26.766  22.515  1.00  0.00    -0.262 N 
HETATM    6  C14 UNL     1      28.392  27.433  23.542  1.00  0.00     0.291 C 
HETATM    7  O3  UNL     1      27.813  28.517  23.234  1.00  0.00    -0.264 OA
ATOM      8  H7  UNL     1      29.587  25.894  22.740  1.00  0.00     0.190 HD
BRANCH   6   9
HETATM    9  C15 UNL     1      28.333  26.881  24.887  1.00  0.00     0.163 A 
HETATM   10  N8  UNL     1      29.067  25.841  25.319  1.00  0.00    -0.275 N 
HETATM   11  N9  UNL     1      28.761  25.601  26.582  1.00  0.00    -0.011 NA
ATOM     12  H8  UNL     1      29.747  25.322  24.764  1.00  0.00     0.184 HD
HETATM   13  N10 UNL     1      27.841  26.445  27.026  1.00  0.00    -0.198 N 
HETATM   14  C18 UNL     1      27.569  27.245  25.974  1.00  0.00     0.181 A 
BRANCH  13  15
HETATM   15  C16 UNL     1      27.295  26.453  28.340  1.00  0.00     0.195 A 
HETATM   16  N11 UNL     1      26.745  27.462  29.039  1.00  0.00    -0.220 N 
HETATM   17  O4  UNL     1      26.365  27.032  30.227  1.00  0.00    -0.153 OA
ATOM     18  H11 UNL     1      26.638  28.418  28.701  1.00  0.00     0.198 HD
HETATM   19  N12 UNL     1      26.643  25.763  30.349  1.00  0.00    -0.222 N 
HETATM   20  C17 UNL     1      27.220  25.356  29.207  1.00  0.00     0.169 A 
ATOM     21  H12 UNL     1      26.454  25.183  31.166  1.00  0.00     0.198 HD
BRANCH  20  22
HETATM   22  N13 UNL     1      27.627  24.147  28.978  1.00  0.00    -0.381 N 
ATOM     23 2H13 UNL     1      27.829  23.769  28.053  1.00  0.00     0.157 HD
ATOM     24 1H13 UNL     1      27.801  23.414  29.666  1.00  0.00     0.157 HD
ENDBRANCH  20  22
ENDBRANCH  13  15
BRANCH  14  25
HETATM   25  N14 UNL     1      26.642  28.310  25.972  1.00  0.00    -0.249 N 
ATOM     26  H14 UNL     1      25.793  28.260  25.408  1.00  0.00     0.196 HD
BRANCH  25  27
HETATM   27  O5  UNL     1      26.881  29.311  26.674  1.00  0.00    -0.288 OA
ATOM     28  H5  UNL     1      27.740  29.396  27.069  1.00  0.00     0.244 HD
ENDBRANCH  25  27
ENDBRANCH  14  25
ENDBRANCH   6   9
ENDBRANCH   3   5
BRANCH   1  29
HETATM   29  C12 UNL     1      28.332  27.364  18.839  1.00  0.00     0.173 C 
BRANCH  29  30
HETATM   30  N5  UNL     1      28.722  28.676  18.525  1.00  0.00    -0.313 N 
HETATM   31  C3  UNL     1      28.210  29.860  18.942  1.00  0.00     0.088 A 
HETATM   32  N1  UNL     1      28.927  30.835  18.357  1.00  0.00    -0.331 N 
HETATM   33  C4  UNL     1      29.880  30.309  17.583  1.00  0.00     0.125 A 
ATOM     34  H1  UNL     1      28.767  31.834  18.485  1.00  0.00     0.168 HD
HETATM   35  C11 UNL     1      29.749  28.950  17.690  1.00  0.00     0.146 A 
BRANCH  31  36
HETATM   36  C2  UNL     1      27.083  29.980  19.856  1.00  0.00     0.072 C 
HETATM   37  C1  UNL     1      27.294  31.057  20.915  1.00  0.00     0.013 C 
ENDBRANCH  31  36
BRANCH  33  38
HETATM   38  N2  UNL     1      30.848  30.995  16.769  1.00  0.00    -0.308 N 
HETATM   39  C5  UNL     1      32.110  31.283  17.342  1.00  0.00     0.258 C 
HETATM   40  O1  UNL     1      32.360  30.957  18.520  1.00  0.00    -0.267 OA
ATOM     41  H2  UNL     1      30.632  31.265  15.809  1.00  0.00     0.170 HD
BRANCH  39  42
HETATM   42  C6  UNL     1      33.106  31.966  16.535  1.00  0.00     0.047 A 
HETATM   43  C7  UNL     1      33.386  31.533  15.257  1.00  0.00     0.022 A 
HETATM   44  C8  UNL     1      34.312  32.178  14.496  1.00  0.00     0.049 A 
HETATM   45  C9  UNL     1      35.004  33.290  14.979  1.00  0.00     0.098 A 
HETATM   46  N4  UNL     1      34.690  33.666  16.227  1.00  0.00    -0.352 N 
HETATM   47  C10 UNL     1      33.795  33.075  17.016  1.00  0.00     0.106 A 
ATOM     48  H4  UNL     1      35.180  34.476  16.606  1.00  0.00     0.166 HD
BRANCH  45  49
HETATM   49  N3  UNL     1      35.885  33.903  14.273  1.00  0.00    -0.385 N 
ATOM     50  H32 UNL     1      35.873  33.897  13.253  1.00  0.00     0.157 HD
ATOM     51  H31 UNL     1      36.644  34.435  14.699  1.00  0.00     0.157 HD
ENDBRANCH  45  49
ENDBRANCH  39  42
ENDBRANCH  33  38
ENDBRANCH  29  30
ENDBRANCH   1  29
TORSDOF 12
ENDMDL
MODEL 3
REMARK VINA RESULT: -8.241978800      3.963      6.973
REMARK  12 active torsions:
REMARK  status: ('A' for Active; 'I' for Inactive)
REMARK    1  A    between atoms: C2_2  and  C3_3 
REMARK    2  A    between atoms: C4_6  and  N2_7 
REMARK       I    between atoms: N2_7  and  C5_9 
REMARK    3  A    between atoms: C5_9  and  C6_11 
REMARK    4  A    between atoms: C9_14  and  N3_15 
REMARK    5  A    between atoms: N5_22  and  C12_23 
REMARK    6  A    between atoms: C12_23  and  C13_24 
REMARK       I    between atoms: C13_24  and  N6_26 
REMARK    7  A    between atoms: N6_26  and  N7_28 
REMARK       I    between atoms: N7_28  and  C14_30 
REMARK    8  A    between atoms: C14_30  and  C15_32 
REMARK    9  A    between atoms: N10_36  and  C16_37 
REMARK   10  A    between atoms: C17_43  and  N13_44 
REMARK   11  A    between atoms: C18_47  and  N14_48 
REMARK   12  A    between atoms: N14_48  and  O5_50 
ROOT
HETATM    1  C13 UNL     1      28.641  26.775  20.963  1.00  0.00     0.275 C 
HETATM    2  O2  UNL     1      27.665  25.980  20.990  1.00  0.00    -0.265 OA
HETATM    3  N6  UNL     1      29.293  27.011  22.202  1.00  0.00    -0.262 N 
ATOM      4  H6  UNL     1      30.087  27.652  22.218  1.00  0.00     0.190 HD
ENDROOT
BRANCH   3   5
HETATM    5  N7  UNL     1      28.902  26.408  23.399  1.00  0.00    -0.262 N 
HETATM    6  C14 UNL     1      28.434  27.152  24.514  1.00  0.00     0.291 C 
HETATM    7  O3  UNL     1      28.384  28.412  24.391  1.00  0.00    -0.264 OA
ATOM      8  H7  UNL     1      28.955  25.393  23.476  1.00  0.00     0.190 HD
BRANCH   6   9
HETATM    9  C15 UNL     1      28.031  26.478  25.740  1.00  0.00     0.163 A 
HETATM   10  N8  UNL     1      28.570  25.334  26.196  1.00  0.00    -0.275 N 
HETATM   11  N9  UNL     1      27.970  25.003  27.325  1.00  0.00    -0.011 NA
ATOM     12  H8  UNL     1      29.318  24.809  25.746  1.00  0.00     0.184 HD
HETATM   13  N10 UNL     1      27.037  25.886  27.654  1.00  0.00    -0.198 N 
HETATM   14  C18 UNL     1      27.070  26.808  26.670  1.00  0.00     0.181 A 
BRANCH  13  15
HETATM   15  C16 UNL     1      26.210  25.819  28.810  1.00  0.00     0.195 A 
HETATM   16  N11 UNL     1      25.036  25.189  28.995  1.00  0.00    -0.220 N 
HETATM   17  O4  UNL     1      24.608  25.387  30.228  1.00  0.00    -0.153 OA
ATOM     18  H11 UNL     1      24.548  24.640  28.288  1.00  0.00     0.198 HD
HETATM   19  N12 UNL     1      25.459  26.131  30.878  1.00  0.00    -0.222 N 
HETATM   20  C17 UNL     1      26.471  26.426  30.045  1.00  0.00     0.169 A 
ATOM     21  H12 UNL     1      25.373  26.435  31.848  1.00  0.00     0.198 HD
BRANCH  20  22
HETATM   22  N13 UNL     1      27.497  27.151  30.361  1.00  0.00    -0.381 N 
ATOM     23 2H13 UNL     1      28.369  27.184  29.832  1.00  0.00     0.157 HD
ATOM     24 1H13 UNL     1      27.587  27.779  31.159  1.00  0.00     0.157 HD
ENDBRANCH  20  22
ENDBRANCH  13  15
BRANCH  14  25
HETATM   25  N14 UNL     1      26.248  27.953  26.591  1.00  0.00    -0.249 N 
ATOM     26  H14 UNL     1      25.293  27.885  26.240  1.00  0.00     0.196 HD
BRANCH  25  27
HETATM   27  O5  UNL     1      26.713  29.049  26.959  1.00  0.00    -0.288 OA
ATOM     28  H5  UNL     1      26.293  29.846  26.660  1.00  0.00     0.244 HD
ENDBRANCH  25  27
ENDBRANCH  14  25
ENDBRANCH   6   9
ENDBRANCH   3   5
BRANCH   1  29
HETATM   29  C12 UNL     1      29.017  27.370  19.719  1.00  0.00     0.173 C 
BRANCH  29  30
HETATM   30  N5  UNL     1      28.398  28.531  19.229  1.00  0.00    -0.313 N 
HETATM   31  C3  UNL     1      28.461  29.098  17.999  1.00  0.00     0.088 A 
HETATM   32  N1  UNL     1      27.696  30.204  18.029  1.00  0.00    -0.331 N 
HETATM   33  C4  UNL     1      27.147  30.356  19.237  1.00  0.00     0.125 A 
ATOM     34  H1  UNL     1      27.555  30.836  17.241  1.00  0.00     0.168 HD
HETATM   35  C11 UNL     1      27.591  29.303  19.990  1.00  0.00     0.146 A 
BRANCH  31  36
HETATM   36  C2  UNL     1      29.239  28.556  16.894  1.00  0.00     0.072 C 
HETATM   37  C1  UNL     1      29.203  29.444  15.656  1.00  0.00     0.013 C 
ENDBRANCH  31  36
BRANCH  33  38
HETATM   38  N2  UNL     1      26.283  31.411  19.697  1.00  0.00    -0.308 N 
HETATM   39  C5  UNL     1      24.902  31.128  19.822  1.00  0.00     0.258 C 
HETATM   40  O1  UNL     1      24.458  29.999  19.530  1.00  0.00    -0.267 OA
ATOM     41  H2  UNL     1      26.654  32.333  19.926  1.00  0.00     0.170 HD
BRANCH  39  42
HETATM   42  C6  UNL     1      24.013  32.174  20.295  1.00  0.00     0.047 A 
HETATM   43  C7  UNL     1      23.132  32.786  19.431  1.00  0.00     0.022 A 
HETATM   44  C8  UNL     1      22.291  33.760  19.874  1.00  0.00     0.049 A 
HETATM   45  C9  UNL     1      22.293  34.170  21.209  1.00  0.00     0.098 A 
HETATM   46  N4  UNL     1      23.170  33.539  22.003  1.00  0.00    -0.352 N 
HETATM   47  C10 UNL     1      24.014  32.582  21.626  1.00  0.00     0.106 A 
ATOM     48  H4  UNL     1      23.193  33.818  22.984  1.00  0.00     0.166 HD
BRANCH  45  49
HETATM   49  N3  UNL     1      21.509  35.092  21.639  1.00  0.00    -0.385 N 
ATOM     50  H32 UNL     1      20.943  35.667  21.015  1.00  0.00     0.157 HD
ATOM     51  H31 UNL     1      21.408  35.296  22.634  1.00  0.00     0.157 HD
ENDBRANCH  45  49
ENDBRANCH  39  42
ENDBRANCH  33  38
ENDBRANCH  29  30
ENDBRANCH   1  29
TORSDOF 12
ENDMDL
MODEL 4
REMARK VINA RESULT: -8.217452732      1.538      2.122
REMARK  12 active torsions:
REMARK  status: ('A' for Active; 'I' for Inactive)
REMARK    1  A    between atoms: C2_2  and  C3_3 
REMARK    2  A    between atoms: C4_6  and  N2_7 
REMARK       I    between atoms: N2_7  and  C5_9 
REMARK    3  A    between atoms: C5_9  and  C6_11 
REMARK    4  A    between atoms: C9_14  and  N3_15 
REMARK    5  A    between atoms: N5_22  and  C12_23 
REMARK    6  A    between atoms: C12_23  and  C13_24 
REMARK       I    between atoms: C13_24  and  N6_26 
REMARK    7  A    between atoms: N6_26  and  N7_28 
REMARK       I    between atoms: N7_28  and  C14_30 
REMARK    8  A    between atoms: C14_30  and  C15_32 
REMARK    9  A    between atoms: N10_36  and  C16_37 
REMARK   10  A    between atoms: C17_43  and  N13_44 
REMARK   11  A    between atoms: C18_47  and  N14_48 
REMARK   12  A    between atoms: N14_48  and  O5_50 
ROOT
HETATM    1  C13 UNL     1      26.897  29.636  20.429  1.00  0.00     0.275 C 
HETATM    2  O2  UNL     1      25.708  29.486  20.816  1.00  0.00    -0.265 OA
HETATM    3  N6  UNL     1      27.909  29.211  21.330  1.00  0.00    -0.262 N 
ATOM      4  H6  UNL     1      28.884  29.320  21.051  1.00  0.00     0.190 HD
ENDROOT
BRANCH   3   5
HETATM    5  N7  UNL     1      27.635  28.651  22.579  1.00  0.00    -0.262 N 
HETATM    6  C14 UNL     1      28.302  27.495  23.064  1.00  0.00     0.291 C 
HETATM    7  O3  UNL     1      29.172  26.969  22.309  1.00  0.00    -0.264 OA
ATOM      8  H7  UNL     1      26.928  29.091  23.168  1.00  0.00     0.190 HD
BRANCH   6   9
HETATM    9  C15 UNL     1      27.987  26.951  24.377  1.00  0.00     0.163 A 
HETATM   10  N8  UNL     1      27.619  27.686  25.440  1.00  0.00    -0.275 N 
HETATM   11  N9  UNL     1      27.415  26.877  26.464  1.00  0.00    -0.011 NA
ATOM     12  H8  UNL     1      27.514  28.700  25.454  1.00  0.00     0.184 HD
HETATM   13  N10 UNL     1      27.632  25.612  26.133  1.00  0.00    -0.198 N 
HETATM   14  C18 UNL     1      27.990  25.652  24.833  1.00  0.00     0.181 A 
BRANCH  13  15
HETATM   15  C16 UNL     1      27.502  24.497  27.007  1.00  0.00     0.195 A 
HETATM   16  N11 UNL     1      26.615  23.486  26.989  1.00  0.00    -0.220 N 
HETATM   17  O4  UNL     1      26.853  22.660  27.990  1.00  0.00    -0.153 OA
ATOM     18  H11 UNL     1      25.869  23.375  26.303  1.00  0.00     0.198 HD
HETATM   19  N12 UNL     1      27.874  23.084  28.682  1.00  0.00    -0.222 N 
HETATM   20  C17 UNL     1      28.313  24.220  28.115  1.00  0.00     0.169 A 
ATOM     21  H12 UNL     1      28.269  22.633  29.507  1.00  0.00     0.198 HD
BRANCH  20  22
HETATM   22  N13 UNL     1      29.319  24.915  28.543  1.00  0.00    -0.381 N 
ATOM     23 2H13 UNL     1      29.706  24.855  29.485  1.00  0.00     0.157 HD
ATOM     24 1H13 UNL     1      29.859  25.606  28.022  1.00  0.00     0.157 HD
ENDBRANCH  20  22
ENDBRANCH  13  15
BRANCH  14  25
HETATM   25  N14 UNL     1      28.319  24.531  24.039  1.00  0.00    -0.249 N 
ATOM     26  H14 UNL     1      27.597  23.876  23.738  1.00  0.00     0.196 HD
BRANCH  25  27
HETATM   27  O5  UNL     1      29.509  24.360  23.712  1.00  0.00    -0.288 OA
ATOM     28  H5  UNL     1      30.190  24.716  24.270  1.00  0.00     0.244 HD
ENDBRANCH  25  27
ENDBRANCH  14  25
ENDBRANCH   6   9
ENDBRANCH   3   5
BRANCH   1  29
HETATM   29  C12 UNL     1      27.140  30.207  19.142  1.00  0.00     0.173 C 
BRANCH  29  30
HETATM   30  N5  UNL     1      28.413  30.197  18.548  1.00  0.00    -0.313 N 
HETATM   31  C3  UNL     1      29.209  29.152  18.212  1.00  0.00     0.088 A 
HETATM   32  N1  UNL     1      30.331  29.661  17.675  1.00  0.00    -0.331 N 
HETATM   33  C4  UNL     1      30.274  30.995  17.657  1.00  0.00     0.125 A 
ATOM     34  H1  UNL     1      31.115  29.107  17.331  1.00  0.00     0.168 HD
HETATM   35  C11 UNL     1      29.066  31.330  18.207  1.00  0.00     0.146 A 
BRANCH  31  36
HETATM   36  C2  UNL     1      28.850  27.757  18.427  1.00  0.00     0.072 C 
HETATM   37  C1  UNL     1      29.012  26.907  17.172  1.00  0.00     0.013 C 
ENDBRANCH  31  36
BRANCH  33  38
HETATM   38  N2  UNL     1      31.267  31.925  17.187  1.00  0.00    -0.308 N 
HETATM   39  C5  UNL     1      32.583  31.797  17.692  1.00  0.00     0.258 C 
HETATM   40  O1  UNL     1      32.859  30.911  18.525  1.00  0.00    -0.267 OA
ATOM     41  H2  UNL     1      31.031  32.651  16.512  1.00  0.00     0.170 HD
BRANCH  39  42
HETATM   42  C6  UNL     1      33.605  32.717  17.223  1.00  0.00     0.047 A 
HETATM   43  C7  UNL     1      33.892  32.817  15.880  1.00  0.00     0.022 A 
HETATM   44  C8  UNL     1      34.842  33.686  15.438  1.00  0.00     0.049 A 
HETATM   45  C9  UNL     1      35.552  34.499  16.323  1.00  0.00     0.098 A 
HETATM   46  N4  UNL     1      35.230  34.359  17.618  1.00  0.00    -0.352 N 
HETATM   47  C10 UNL     1      34.313  33.528  18.106  1.00  0.00     0.106 A 
ATOM     48  H4  UNL     1      35.733  34.940  18.288  1.00  0.00     0.166 HD
BRANCH  45  49
HETATM   49  N3  UNL     1      36.456  35.317  15.920  1.00  0.00    -0.385 N 
ATOM     50  H32 UNL     1      37.374  35.009  15.601  1.00  0.00     0.157 HD
ATOM     51  H31 UNL     1      36.299  36.326  15.893  1.00  0.00     0.157 HD
ENDBRANCH  45  49
ENDBRANCH  39  42
ENDBRANCH  33  38
ENDBRANCH  29  30
ENDBRANCH   1  29
TORSDOF 12
ENDMDL
MODEL 5
REMARK VINA RESULT: -8.215394804      1.506      2.140
REMARK  12 active torsions:
REMARK  status: ('A' for Active; 'I' for Inactive)
REMARK    1  A    between atoms: C2_2  and  C3_3 
REMARK    2  A    between atoms: C4_6  and  N2_7 
REMARK       I    between atoms: N2_7  and  C5_9 
REMARK    3  A    between atoms: C5_9  and  C6_11 
REMARK    4  A    between atoms: C9_14  and  N3_15 
REMARK    5  A    between atoms: N5_22  and  C12_23 
REMARK    6  A    between atoms: C12_23  and  C13_24 
REMARK       I    between atoms: C13_24  and  N6_26 
REMARK    7  A    between atoms: N6_26  and  N7_28 
REMARK       I    between atoms: N7_28  and  C14_30 
REMARK    8  A    between atoms: C14_30  and  C15_32 
REMARK    9  A    between atoms: N10_36  and  C16_37 
REMARK   10  A    between atoms: C17_43  and  N13_44 
REMARK   11  A    between atoms: C18_47  and  N14_48 
REMARK   12  A    between atoms: N14_48  and  O5_50 
ROOT
HETATM    1  C13 UNL     1      26.913  30.107  20.610  1.00  0.00     0.275 C 
HETATM    2  O2  UNL     1      25.784  29.585  20.810  1.00  0.00    -0.265 OA
HETATM    3  N6  UNL     1      27.841  30.024  21.682  1.00  0.00    -0.262 N 
ATOM      4  H6  UNL     1      28.765  30.438  21.557  1.00  0.00     0.190 HD
ENDROOT
BRANCH   3   5
HETATM    5  N7  UNL     1      27.552  29.402  22.898  1.00  0.00    -0.262 N 
HETATM    6  C14 UNL     1      28.152  28.178  23.295  1.00  0.00     0.291 C 
HETATM    7  O3  UNL     1      28.977  27.650  22.492  1.00  0.00    -0.264 OA
ATOM      8  H7  UNL     1      26.882  29.845  23.527  1.00  0.00     0.190 HD
BRANCH   6   9
HETATM    9  C15 UNL     1      27.823  27.571  24.577  1.00  0.00     0.163 A 
HETATM   10  N8  UNL     1      26.903  28.045  25.434  1.00  0.00    -0.275 N 
HETATM   11  N9  UNL     1      26.864  27.258  26.493  1.00  0.00    -0.011 NA
ATOM     12  H8  UNL     1      26.329  28.875  25.290  1.00  0.00     0.184 HD
HETATM   13  N10 UNL     1      27.731  26.260  26.387  1.00  0.00    -0.198 N 
HETATM   14  C18 UNL     1      28.332  26.450  25.194  1.00  0.00     0.181 A 
BRANCH  13  15
HETATM   15  C16 UNL     1      27.936  25.240  27.357  1.00  0.00     0.195 A 
HETATM   16  N11 UNL     1      29.052  24.899  28.027  1.00  0.00    -0.220 N 
HETATM   17  O4  UNL     1      28.800  23.889  28.837  1.00  0.00    -0.153 OA
ATOM     18  H11 UNL     1      29.959  25.354  27.923  1.00  0.00     0.198 HD
HETATM   19  N12 UNL     1      27.547  23.539  28.734  1.00  0.00    -0.222 N 
HETATM   20  C17 UNL     1      26.967  24.345  27.829  1.00  0.00     0.169 A 
ATOM     21  H12 UNL     1      27.089  22.787  29.249  1.00  0.00     0.198 HD
BRANCH  20  22
HETATM   22  N13 UNL     1      25.722  24.281  27.477  1.00  0.00    -0.381 N 
ATOM     23 2H13 UNL     1      25.209  25.035  27.020  1.00  0.00     0.157 HD
ATOM     24 1H13 UNL     1      25.087  23.492  27.599  1.00  0.00     0.157 HD
ENDBRANCH  20  22
ENDBRANCH  13  15
BRANCH  14  25
HETATM   25  N14 UNL     1      29.337  25.625  24.642  1.00  0.00    -0.249 N 
ATOM     26  H14 UNL     1      29.106  24.711  24.254  1.00  0.00     0.196 HD
BRANCH  25  27
HETATM   27  O5  UNL     1      30.512  26.038  24.639  1.00  0.00    -0.288 OA
ATOM     28  H5  UNL     1      30.772  26.679  25.290  1.00  0.00     0.244 HD
ENDBRANCH  25  27
ENDBRANCH  14  25
ENDBRANCH   6   9
ENDBRANCH   3   5
BRANCH   1  29
HETATM   29  C12 UNL     1      27.177  30.730  19.352  1.00  0.00     0.173 C 
BRANCH  29  30
HETATM   30  N5  UNL     1      28.338  30.458  18.611  1.00  0.00    -0.313 N 
HETATM   31  C3  UNL     1      28.945  29.275  18.347  1.00  0.00     0.088 A 
HETATM   32  N1  UNL     1      30.031  29.540  17.600  1.00  0.00    -0.331 N 
HETATM   33  C4  UNL     1      30.132  30.854  17.378  1.00  0.00     0.125 A 
ATOM     34  H1  UNL     1      30.684  28.839  17.251  1.00  0.00     0.168 HD
HETATM   35  C11 UNL     1      29.066  31.429  18.016  1.00  0.00     0.146 A 
BRANCH  31  36
HETATM   36  C2  UNL     1      28.457  27.988  18.823  1.00  0.00     0.072 C 
HETATM   37  C1  UNL     1      28.773  26.846  17.864  1.00  0.00     0.013 C 
ENDBRANCH  31  36
BRANCH  33  38
HETATM   38  N2  UNL     1      31.151  31.559  16.646  1.00  0.00    -0.308 N 
HETATM   39  C5  UNL     1      32.446  31.624  17.212  1.00  0.00     0.258 C 
HETATM   40  O1  UNL     1      32.683  31.092  18.315  1.00  0.00    -0.267 OA
ATOM     41  H2  UNL     1      30.946  31.997  15.748  1.00  0.00     0.170 HD
BRANCH  39  42
HETATM   42  C6  UNL     1      33.493  32.321  16.485  1.00  0.00     0.047 A 
HETATM   43  C7  UNL     1      33.823  31.944  15.202  1.00  0.00     0.022 A 
HETATM   44  C8  UNL     1      34.797  32.603  14.516  1.00  0.00     0.049 A 
HETATM   45  C9  UNL     1      35.489  33.674  15.084  1.00  0.00     0.098 A 
HETATM   46  N4  UNL     1      35.125  33.996  16.334  1.00  0.00    -0.352 N 
HETATM   47  C10 UNL     1      34.183  33.389  17.052  1.00  0.00     0.106 A 
ATOM     48  H4  UNL     1      35.614  34.775  16.774  1.00  0.00     0.166 HD
BRANCH  45  49
HETATM   49  N3  UNL     1      36.415  34.299  14.450  1.00  0.00    -0.385 N 
ATOM     50  H32 UNL     1      36.662  34.083  13.484  1.00  0.00     0.157 HD
ATOM     51  H31 UNL     1      36.951  35.053  14.881  1.00  0.00     0.157 HD
ENDBRANCH  45  49
ENDBRANCH  39  42
ENDBRANCH  33  38
ENDBRANCH  29  30
ENDBRANCH   1  29
TORSDOF 12
ENDMDL
