MODEL 1
REMARK VINA RESULT: -6.992140043      0.000      0.000
REMARK  6 active torsions:
REMARK  status: ('A' for Active; 'I' for Inactive)
REMARK    1  A    between atoms: C3_5  and  N2_6 
REMARK    2  A    between atoms: C4_11  and  N4_12 
REMARK    3  A    between atoms: C5_15  and  C6_16 
REMARK    4  A    between atoms: C6_16  and  C7_17 
REMARK    5  A    between atoms: C7_17  and  C8_18 
REMARK    6  A    between atoms: C8_18  and  N5_19 
ROOT
HETATM    1  C1  UNL     1      -1.309  13.342  18.757  1.00  0.00     0.069 C 
HETATM    2  C2  UNL     1      -1.405  12.695  17.465  1.00  0.00     0.032 A 
HETATM    3  N1  UNL     1      -0.515  11.652  17.276  1.00  0.00    -0.196 N 
ATOM      4  H1  UNL     1       0.165  11.426  18.001  1.00  0.00     0.184 HD
HETATM    5  C3  UNL     1      -0.548  10.941  16.143  1.00  0.00     0.677 A 
HETATM    6  N3  UNL     1      -1.436  11.224  15.178  1.00  0.00    -0.177 N 
ATOM      7  H3  UNL     1      -1.456  10.677  14.317  1.00  0.00     0.185 HD
HETATM    8  C4  UNL     1      -2.296  12.234  15.363  1.00  0.00     0.122 A 
HETATM    9  C5  UNL     1      -2.315  13.026  16.535  1.00  0.00     0.009 A 
ENDROOT
BRANCH   9  10
HETATM   10  C6  UNL     1      -3.244  14.125  16.596  1.00  0.00     0.046 C 
BRANCH  10  11
HETATM   11  C7  UNL     1      -2.863  15.452  16.097  1.00  0.00     0.035 C 
BRANCH  11  12
HETATM   12  C8  UNL     1      -1.473  15.893  15.932  1.00  0.00     0.273 C 
BRANCH  12  13
HETATM   13  N5  UNL     1      -0.967  16.855  16.871  1.00  0.00     0.098 N 
HETATM   14  C9  UNL     1      -0.572  18.109  16.320  1.00  0.00     0.292 C 
HETATM   15  C10 UNL     1       0.801  18.051  15.678  1.00  0.00     0.152 C 
HETATM   16  N6  UNL     1       1.733  17.899  16.778  1.00  0.00    -0.358 N 
HETATM   17  C11 UNL     1       1.280  17.068  17.837  1.00  0.00     0.246 C 
ATOM     18  H6  UNL     1       2.646  18.355  16.790  1.00  0.00     0.162 HD
HETATM   19  O1  UNL     1       1.963  16.991  18.884  1.00  0.00    -0.272 OA
HETATM   20  C12 UNL     1       0.026  16.282  17.757  1.00  0.00     0.374 C 
ENDBRANCH  12  13
ENDBRANCH  11  12
ENDBRANCH  10  11
ENDBRANCH   9  10
BRANCH   8  21
HETATM   21  N4  UNL     1      -3.149  12.516  14.454  1.00  0.00    -0.385 N 
ATOM     22  H42 UNL     1      -2.811  12.548  13.492  1.00  0.00     0.157 HD
ATOM     23  H41 UNL     1      -4.120  12.697  14.708  1.00  0.00     0.157 HD
ENDBRANCH   8  21
BRANCH   5  24
HETATM   24  N2  UNL     1       0.268   9.953  15.920  1.00  0.00    -0.234 N 
ATOM     25  H22 UNL     1       0.045   9.062  16.364  1.00  0.00     0.174 HD
ATOM     26  H21 UNL     1       1.095  10.051  15.330  1.00  0.00     0.174 HD
ENDBRANCH   5  24
TORSDOF 6
ENDMDL
MODEL 2
REMARK VINA RESULT: -6.801266496      1.300      1.633
REMARK  6 active torsions:
REMARK  status: ('A' for Active; 'I' for Inactive)
REMARK    1  A    between atoms: C3_5  and  N2_6 
REMARK    2  A    between atoms: C4_11  and  N4_12 
REMARK    3  A    between atoms: C5_15  and  C6_16 
REMARK    4  A    between atoms: C6_16  and  C7_17 
REMARK    5  A    between atoms: C7_17  and  C8_18 
REMARK    6  A    between atoms: C8_18  and  N5_19 
ROOT
HETATM    1  C1  UNL     1      -1.443  13.703  18.625  1.00  0.00     0.069 C 
HETATM    2  C2  UNL     1      -1.530  12.937  17.400  1.00  0.00     0.032 A 
HETATM    3  N1  UNL     1      -0.591  11.928  17.283  1.00  0.00    -0.196 N 
ATOM      4  H1  UNL     1       0.115  11.803  18.008  1.00  0.00     0.184 HD
HETATM    5  C3  UNL     1      -0.609  11.116  16.219  1.00  0.00     0.677 A 
HETATM    6  N3  UNL     1      -1.531  11.265  15.255  1.00  0.00    -0.177 N 
ATOM      7  H3  UNL     1      -1.539  10.642  14.447  1.00  0.00     0.185 HD
HETATM    8  C4  UNL     1      -2.438  12.243  15.370  1.00  0.00     0.122 A 
HETATM    9  C5  UNL     1      -2.475  13.136  16.466  1.00  0.00     0.009 A 
ENDROOT
BRANCH   9  10
HETATM   10  C6  UNL     1      -3.459  14.188  16.452  1.00  0.00     0.046 C 
BRANCH  10  11
HETATM   11  C7  UNL     1      -3.072  15.566  16.129  1.00  0.00     0.035 C 
BRANCH  11  12
HETATM   12  C8  UNL     1      -1.888  15.918  15.338  1.00  0.00     0.273 C 
BRANCH  12  13
HETATM   13  N5  UNL     1      -1.243  17.168  15.630  1.00  0.00     0.098 N 
HETATM   14  C9  UNL     1       0.142  17.089  15.954  1.00  0.00     0.292 C 
HETATM   15  C10 UNL     1       0.377  16.663  17.390  1.00  0.00     0.152 C 
HETATM   16  N6  UNL     1      -0.057  17.784  18.200  1.00  0.00    -0.358 N 
HETATM   17  C11 UNL     1      -1.207  18.463  17.716  1.00  0.00     0.246 C 
ATOM     18  H6  UNL     1       0.428  18.065  19.053  1.00  0.00     0.162 HD
HETATM   19  O1  UNL     1      -1.569  19.522  18.277  1.00  0.00    -0.272 OA
HETATM   20  C12 UNL     1      -2.004  17.969  16.568  1.00  0.00     0.374 C 
ENDBRANCH  12  13
ENDBRANCH  11  12
ENDBRANCH  10  11
ENDBRANCH   9  10
BRANCH   8  21
HETATM   21  N4  UNL     1      -3.323  12.398  14.461  1.00  0.00    -0.385 N 
ATOM     22  H42 UNL     1      -3.897  11.588  14.225  1.00  0.00     0.157 HD
ATOM     23  H41 UNL     1      -3.429  13.305  14.007  1.00  0.00     0.157 HD
ENDBRANCH   8  21
BRANCH   5  24
HETATM   24  N2  UNL     1       0.253  10.154  16.065  1.00  0.00    -0.234 N 
ATOM     25  H22 UNL     1      -0.117   9.204  16.035  1.00  0.00     0.174 HD
ATOM     26  H21 UNL     1       1.254  10.329  15.976  1.00  0.00     0.174 HD
ENDBRANCH   5  24
TORSDOF 6
ENDMDL
MODEL 3
REMARK VINA RESULT: -6.792766734      3.371      4.267
REMARK  6 active torsions:
REMARK  status: ('A' for Active; 'I' for Inactive)
REMARK    1  A    between atoms: C3_5  and  N2_6 
REMARK    2  A    between atoms: C4_11  and  N4_12 
REMARK    3  A    between atoms: C5_15  and  C6_16 
REMARK    4  A    between atoms: C6_16  and  C7_17 
REMARK    5  A    between atoms: C7_17  and  C8_18 
REMARK    6  A    between atoms: C8_18  and  N5_19 
ROOT
HETATM    1  C1  UNL     1      -0.798  12.868  18.539  1.00  0.00     0.069 C 
HETATM    2  C2  UNL     1      -1.337  13.119  17.219  1.00  0.00     0.032 A 
HETATM    3  N1  UNL     1      -1.683  11.982  16.513  1.00  0.00    -0.196 N 
ATOM      4  H1  UNL     1      -1.511  11.061  16.914  1.00  0.00     0.184 HD
HETATM    5  C3  UNL     1      -2.245  12.090  15.303  1.00  0.00     0.677 A 
HETATM    6  N3  UNL     1      -2.480  13.294  14.758  1.00  0.00    -0.177 N 
ATOM      7  H3  UNL     1      -2.909  13.370  13.835  1.00  0.00     0.185 HD
HETATM    8  C4  UNL     1      -2.142  14.394  15.444  1.00  0.00     0.122 A 
HETATM    9  C5  UNL     1      -1.545  14.351  16.725  1.00  0.00     0.009 A 
ENDROOT
BRANCH   9  10
HETATM   10  C6  UNL     1      -1.169  15.597  17.340  1.00  0.00     0.046 C 
BRANCH  10  11
HETATM   11  C7  UNL     1      -2.051  16.241  18.321  1.00  0.00     0.035 C 
BRANCH  11  12
HETATM   12  C8  UNL     1      -2.417  17.661  18.281  1.00  0.00     0.273 C 
BRANCH  12  13
HETATM   13  N5  UNL     1      -3.428  18.058  17.340  1.00  0.00     0.098 N 
HETATM   14  C9  UNL     1      -3.788  19.437  17.363  1.00  0.00     0.292 C 
HETATM   15  C10 UNL     1      -4.745  19.765  18.492  1.00  0.00     0.152 C 
HETATM   16  N6  UNL     1      -5.999  19.135  18.129  1.00  0.00    -0.358 N 
HETATM   17  C11 UNL     1      -5.872  17.871  17.494  1.00  0.00     0.246 C 
ATOM     18  H6  UNL     1      -6.904  19.567  18.314  1.00  0.00     0.162 HD
HETATM   19  O1  UNL     1      -6.894  17.320  17.026  1.00  0.00    -0.272 OA
HETATM   20  C12 UNL     1      -4.573  17.169  17.362  1.00  0.00     0.374 C 
ENDBRANCH  12  13
ENDBRANCH  11  12
ENDBRANCH  10  11
ENDBRANCH   9  10
BRANCH   8  21
HETATM   21  N4  UNL     1      -2.360  15.548  14.939  1.00  0.00    -0.385 N 
ATOM     22  H42 UNL     1      -2.488  15.598  13.928  1.00  0.00     0.157 HD
ATOM     23  H41 UNL     1      -2.398  16.367  15.545  1.00  0.00     0.157 HD
ENDBRANCH   8  21
BRANCH   5  24
HETATM   24  N2  UNL     1      -2.587  11.050  14.600  1.00  0.00    -0.234 N 
ATOM     25  H22 UNL     1      -1.834  10.531  14.149  1.00  0.00     0.174 HD
ATOM     26  H21 UNL     1      -3.559  10.757  14.499  1.00  0.00     0.174 HD
ENDBRANCH   5  24
TORSDOF 6
ENDMDL
MODEL 4
REMARK VINA RESULT: -6.776310345      1.984      2.911
REMARK  6 active torsions:
REMARK  status: ('A' for Active; 'I' for Inactive)
REMARK    1  A    between atoms: C3_5  and  N2_6 
REMARK    2  A    between atoms: C4_11  and  N4_12 
REMARK    3  A    between atoms: C5_15  and  C6_16 
REMARK    4  A    between atoms: C6_16  and  C7_17 
REMARK    5  A    between atoms: C7_17  and  C8_18 
REMARK    6  A    between atoms: C8_18  and  N5_19 
ROOT
HETATM    1  C1  UNL     1      -1.441  12.888  18.723  1.00  0.00     0.069 C 
HETATM    2  C2  UNL     1      -1.725  13.125  17.323  1.00  0.00     0.032 A 
HETATM    3  N1  UNL     1      -1.993  11.985  16.588  1.00  0.00    -0.196 N 
ATOM      4  H1  UNL     1      -1.937  11.068  17.031  1.00  0.00     0.184 HD
HETATM    5  C3  UNL     1      -2.325  12.083  15.296  1.00  0.00     0.677 A 
HETATM    6  N3  UNL     1      -2.404  13.280  14.694  1.00  0.00    -0.177 N 
ATOM      7  H3  UNL     1      -2.658  13.349  13.708  1.00  0.00     0.185 HD
HETATM    8  C4  UNL     1      -2.143  14.383  15.408  1.00  0.00     0.122 A 
HETATM    9  C5  UNL     1      -1.785  14.351  16.776  1.00  0.00     0.009 A 
ENDROOT
BRANCH   9  10
HETATM   10  C6  UNL     1      -1.468  15.596  17.424  1.00  0.00     0.046 C 
BRANCH  10  11
HETATM   11  C7  UNL     1      -0.071  15.979  17.661  1.00  0.00     0.035 C 
BRANCH  11  12
HETATM   12  C8  UNL     1       0.424  17.357  17.573  1.00  0.00     0.273 C 
BRANCH  12  13
HETATM   13  N5  UNL     1       1.846  17.548  17.501  1.00  0.00     0.098 N 
HETATM   14  C9  UNL     1       2.540  17.503  18.745  1.00  0.00     0.292 C 
HETATM   15  C10 UNL     1       2.430  18.804  19.515  1.00  0.00     0.152 C 
HETATM   16  N6  UNL     1       3.219  19.762  18.767  1.00  0.00    -0.358 N 
HETATM   17  C11 UNL     1       3.142  19.629  17.355  1.00  0.00     0.246 C 
ATOM     18  H6  UNL     1       3.787  20.478  19.220  1.00  0.00     0.162 HD
HETATM   19  O1  UNL     1       3.894  20.324  16.636  1.00  0.00    -0.272 OA
HETATM   20  C12 UNL     1       2.202  18.695  16.690  1.00  0.00     0.374 C 
ENDBRANCH  12  13
ENDBRANCH  11  12
ENDBRANCH  10  11
ENDBRANCH   9  10
BRANCH   8  21
HETATM   21  N4  UNL     1      -2.214  15.532  14.850  1.00  0.00    -0.385 N 
ATOM     22  H42 UNL     1      -2.082  15.568  13.839  1.00  0.00     0.157 HD
ATOM     23  H41 UNL     1      -2.396  16.359  15.417  1.00  0.00     0.157 HD
ENDBRANCH   8  21
BRANCH   5  24
HETATM   24  N2  UNL     1      -2.585  11.039  14.564  1.00  0.00    -0.234 N 
ATOM     25  H22 UNL     1      -2.319  11.089  13.580  1.00  0.00     0.174 HD
ATOM     26  H21 UNL     1      -3.031  10.205  14.944  1.00  0.00     0.174 HD
ENDBRANCH   5  24
TORSDOF 6
ENDMDL
MODEL 5
REMARK VINA RESULT: -6.741118306      3.270      3.773
REMARK  6 active torsions:
REMARK  status: ('A' for Active; 'I' for Inactive)
REMARK    1  A    between atoms: C3_5  and  N2_6 
REMARK    2  A    between atoms: C4_11  and  N4_12 
REMARK    3  A    between atoms: C5_15  and  C6_16 
REMARK    4  A    between atoms: C6_16  and  C7_17 
REMARK    5  A    between atoms: C7_17  and  C8_18 
REMARK    6  A    between atoms: C8_18  and  N5_19 
ROOT
HETATM    1  C1  UNL     1      -0.659  12.857  18.492  1.00  0.00     0.069 C 
HETATM    2  C2  UNL     1      -1.251  13.114  17.196  1.00  0.00     0.032 A 
HETATM    3  N1  UNL     1      -1.615  11.980  16.494  1.00  0.00    -0.196 N 
ATOM      4  H1  UNL     1      -1.420  11.057  16.880  1.00  0.00     0.184 HD
HETATM    5  C3  UNL     1      -2.225  12.093  15.308  1.00  0.00     0.677 A 
HETATM    6  N3  UNL     1      -2.491  13.299  14.782  1.00  0.00    -0.177 N 
ATOM      7  H3  UNL     1      -2.956  13.378  13.878  1.00  0.00     0.185 HD
HETATM    8  C4  UNL     1      -2.136  14.396  15.464  1.00  0.00     0.122 A 
HETATM    9  C5  UNL     1      -1.489  14.348  16.720  1.00  0.00     0.009 A 
ENDROOT
BRANCH   9  10
HETATM   10  C6  UNL     1      -1.100  15.593  17.330  1.00  0.00     0.046 C 
BRANCH  10  11
HETATM   11  C7  UNL     1      -1.937  16.210  18.366  1.00  0.00     0.035 C 
BRANCH  11  12
HETATM   12  C8  UNL     1      -1.670  17.527  18.954  1.00  0.00     0.273 C 
BRANCH  12  13
HETATM   13  N5  UNL     1      -2.327  17.846  20.191  1.00  0.00     0.098 N 
HETATM   14  C9  UNL     1      -1.950  19.083  20.791  1.00  0.00     0.292 C 
HETATM   15  C10 UNL     1      -0.637  18.984  21.543  1.00  0.00     0.152 C 
HETATM   16  N6  UNL     1      -0.920  18.163  22.703  1.00  0.00    -0.358 N 
HETATM   17  C11 UNL     1      -1.823  17.091  22.473  1.00  0.00     0.246 C 
ATOM     18  H6  UNL     1      -0.502  18.341  23.617  1.00  0.00     0.162 HD
HETATM   19  O1  UNL     1      -2.227  16.416  23.447  1.00  0.00    -0.272 OA
HETATM   20  C12 UNL     1      -2.312  16.733  21.120  1.00  0.00     0.374 C 
ENDBRANCH  12  13
ENDBRANCH  11  12
ENDBRANCH  10  11
ENDBRANCH   9  10
BRANCH   8  21
HETATM   21  N4  UNL     1      -2.383  15.552  14.977  1.00  0.00    -0.385 N 
ATOM     22  H42 UNL     1      -2.755  15.589  14.029  1.00  0.00     0.157 HD
ATOM     23  H41 UNL     1      -2.204  16.386  15.537  1.00  0.00     0.157 HD
ENDBRANCH   8  21
BRANCH   5  24
HETATM   24  N2  UNL     1      -2.586  11.055  14.610  1.00  0.00    -0.234 N 
ATOM     25  H22 UNL     1      -1.854  10.577  14.084  1.00  0.00     0.174 HD
ATOM     26  H21 UNL     1      -3.551  10.725  14.584  1.00  0.00     0.174 HD
ENDBRANCH   5  24
TORSDOF 6
ENDMDL
