MODEL 1
REMARK VINA RESULT: -6.717627272      0.000      0.000
REMARK  4 active torsions:
REMARK  status: ('A' for Active; 'I' for Inactive)
REMARK    1  A    between atoms: C5_10  and  C6_11 
REMARK    2  A    between atoms: C6_11  and  C7_12 
REMARK    3  A    between atoms: C7_12  and  C8_13 
REMARK    4  A    between atoms: C8_13  and  C9_14 
ROOT
HETATM    1  C1  UNL     1      -0.462  13.495  19.210  1.00  0.00     0.019 C 
HETATM    2  C2  UNL     1      -0.767  12.993  18.157  1.00  0.00    -0.058 C 
HETATM    3  C3  UNL     1      -1.144  12.398  16.910  1.00  0.00     0.112 A 
HETATM    4  N1  UNL     1      -0.681  11.244  16.419  1.00  0.00    -0.289 N 
ATOM      5  H1  UNL     1       0.004  10.645  16.881  1.00  0.00     0.188 HD
HETATM    6  N2  UNL     1      -1.246  10.989  15.236  1.00  0.00    -0.265 N 
ATOM      7  H2  UNL     1      -1.058  10.169  14.659  1.00  0.00     0.190 HD
HETATM    8  C4  UNL     1      -2.109  11.990  14.920  1.00  0.00     0.269 A 
HETATM    9  O1  UNL     1      -2.828  12.114  13.896  1.00  0.00    -0.266 OA
HETATM   10  C5  UNL     1      -2.039  12.873  15.977  1.00  0.00     0.048 A 
ENDROOT
BRANCH  10  11
HETATM   11  C6  UNL     1      -2.814  14.135  16.080  1.00  0.00     0.047 C 
BRANCH  11  12
HETATM   12  C7  UNL     1      -2.065  15.292  15.401  1.00  0.00     0.007 C 
BRANCH  12  13
HETATM   13  C8  UNL     1      -1.584  16.197  16.509  1.00  0.00     0.043 C 
BRANCH  13  14
HETATM   14  C9  UNL     1      -0.142  16.610  16.340  1.00  0.00     0.277 C 
HETATM   15  N3  UNL     1       0.012  17.400  15.167  1.00  0.00    -0.061 N 
HETATM   16  C10 UNL     1       0.754  18.623  15.366  1.00  0.00     0.253 C 
ATOM     17  H32 UNL     1       0.430  16.848  14.418  1.00  0.00     0.278 HD
ATOM     18  H31 UNL     1      -0.897  17.599  14.750  1.00  0.00     0.278 HD
HETATM   19  C11 UNL     1       0.225  19.439  16.519  1.00  0.00     0.150 C 
HETATM   20  N4  UNL     1       0.186  18.628  17.744  1.00  0.00    -0.358 N 
HETATM   21  C12 UNL     1       0.372  17.234  17.576  1.00  0.00     0.248 C 
ATOM     22  H4  UNL     1       0.033  19.045  18.662  1.00  0.00     0.162 HD
HETATM   23  O2  UNL     1       0.956  16.578  18.463  1.00  0.00    -0.271 OA
ENDBRANCH  13  14
ENDBRANCH  12  13
ENDBRANCH  11  12
ENDBRANCH  10  11
TORSDOF 4
ENDMDL
MODEL 2
REMARK VINA RESULT: -6.530572430      1.616      2.047
REMARK  4 active torsions:
REMARK  status: ('A' for Active; 'I' for Inactive)
REMARK    1  A    between atoms: C5_10  and  C6_11 
REMARK    2  A    between atoms: C6_11  and  C7_12 
REMARK    3  A    between atoms: C7_12  and  C8_13 
REMARK    4  A    between atoms: C8_13  and  C9_14 
ROOT
HETATM    1  C1  UNL     1      -0.494  13.433  19.259  1.00  0.00     0.019 C 
HETATM    2  C2  UNL     1      -0.800  12.957  18.194  1.00  0.00    -0.058 C 
HETATM    3  C3  UNL     1      -1.177  12.393  16.933  1.00  0.00     0.112 A 
HETATM    4  N1  UNL     1      -0.736  11.235  16.428  1.00  0.00    -0.289 N 
ATOM      5  H1  UNL     1      -0.071  10.612  16.887  1.00  0.00     0.188 HD
HETATM    6  N2  UNL     1      -1.293  11.015  15.235  1.00  0.00    -0.265 N 
ATOM      7  H2  UNL     1      -1.119  10.200  14.646  1.00  0.00     0.190 HD
HETATM    8  C4  UNL     1      -2.128  12.042  14.926  1.00  0.00     0.269 A 
HETATM    9  O1  UNL     1      -2.832  12.200  13.897  1.00  0.00    -0.266 OA
HETATM   10  C5  UNL     1      -2.049  12.904  15.999  1.00  0.00     0.048 A 
ENDROOT
BRANCH  10  11
HETATM   11  C6  UNL     1      -2.794  14.183  16.116  1.00  0.00     0.047 C 
BRANCH  11  12
HETATM   12  C7  UNL     1      -2.129  15.282  15.273  1.00  0.00     0.007 C 
BRANCH  12  13
HETATM   13  C8  UNL     1      -1.043  15.881  16.133  1.00  0.00     0.043 C 
BRANCH  13  14
HETATM   14  C9  UNL     1      -1.401  17.252  16.653  1.00  0.00     0.277 C 
HETATM   15  N3  UNL     1      -2.459  17.812  15.884  1.00  0.00    -0.061 N 
HETATM   16  C10 UNL     1      -3.542  18.356  16.668  1.00  0.00     0.253 C 
ATOM     17  H32 UNL     1      -2.097  18.515  15.240  1.00  0.00     0.278 HD
ATOM     18  H31 UNL     1      -2.812  17.129  15.215  1.00  0.00     0.278 HD
HETATM   19  C11 UNL     1      -4.059  17.380  17.695  1.00  0.00     0.150 C 
HETATM   20  N4  UNL     1      -2.961  16.906  18.549  1.00  0.00    -0.358 N 
HETATM   21  C12 UNL     1      -1.650  17.211  18.108  1.00  0.00     0.248 C 
ATOM     22  H4  UNL     1      -3.133  16.386  19.410  1.00  0.00     0.162 HD
HETATM   23  O2  UNL     1      -0.753  17.435  18.946  1.00  0.00    -0.271 OA
ENDBRANCH  13  14
ENDBRANCH  12  13
ENDBRANCH  11  12
ENDBRANCH  10  11
TORSDOF 4
ENDMDL
MODEL 3
REMARK VINA RESULT: -6.471309923      2.461      2.883
REMARK  4 active torsions:
REMARK  status: ('A' for Active; 'I' for Inactive)
REMARK    1  A    between atoms: C5_10  and  C6_11 
REMARK    2  A    between atoms: C6_11  and  C7_12 
REMARK    3  A    between atoms: C7_12  and  C8_13 
REMARK    4  A    between atoms: C8_13  and  C9_14 
ROOT
HETATM    1  C1  UNL     1      -0.364  13.047  19.202  1.00  0.00     0.019 C 
HETATM    2  C2  UNL     1      -0.718  12.648  18.121  1.00  0.00    -0.058 C 
HETATM    3  C3  UNL     1      -1.154  12.174  16.842  1.00  0.00     0.112 A 
HETATM    4  N1  UNL     1      -0.707  11.079  16.217  1.00  0.00    -0.289 N 
ATOM      5  H1  UNL     1       0.004  10.446  16.583  1.00  0.00     0.188 HD
HETATM    6  N2  UNL     1      -1.329  10.935  15.045  1.00  0.00    -0.265 N 
ATOM      7  H2  UNL     1      -1.166  10.178  14.381  1.00  0.00     0.190 HD
HETATM    8  C4  UNL     1      -2.215  11.952  14.872  1.00  0.00     0.269 A 
HETATM    9  O1  UNL     1      -2.985  12.167  13.902  1.00  0.00    -0.266 OA
HETATM   10  C5  UNL     1      -2.098  12.727  16.006  1.00  0.00     0.048 A 
ENDROOT
BRANCH  10  11
HETATM   11  C6  UNL     1      -2.875  13.964  16.272  1.00  0.00     0.047 C 
BRANCH  11  12
HETATM   12  C7  UNL     1      -2.226  15.175  15.585  1.00  0.00     0.007 C 
BRANCH  12  13
HETATM   13  C8  UNL     1      -1.781  16.103  16.688  1.00  0.00     0.043 C 
BRANCH  13  14
HETATM   14  C9  UNL     1      -2.705  16.078  17.881  1.00  0.00     0.277 C 
HETATM   15  N3  UNL     1      -1.962  16.213  19.086  1.00  0.00    -0.061 N 
HETATM   16  C10 UNL     1      -2.481  17.206  19.997  1.00  0.00     0.253 C 
ATOM     17  H32 UNL     1      -1.875  15.311  19.554  1.00  0.00     0.278 HD
ATOM     18  H31 UNL     1      -0.981  16.397  18.880  1.00  0.00     0.278 HD
HETATM   19  C11 UNL     1      -2.706  18.540  19.331  1.00  0.00     0.150 C 
HETATM   20  N4  UNL     1      -3.572  18.385  18.154  1.00  0.00    -0.358 N 
HETATM   21  C12 UNL     1      -3.798  17.058  17.716  1.00  0.00     0.248 C 
ATOM     22  H4  UNL     1      -3.986  19.188  17.680  1.00  0.00     0.162 HD
HETATM   23  O2  UNL     1      -4.898  16.753  17.211  1.00  0.00    -0.271 OA
ENDBRANCH  13  14
ENDBRANCH  12  13
ENDBRANCH  11  12
ENDBRANCH  10  11
TORSDOF 4
ENDMDL
MODEL 4
REMARK VINA RESULT: -6.257230740      1.600      1.974
REMARK  4 active torsions:
REMARK  status: ('A' for Active; 'I' for Inactive)
REMARK    1  A    between atoms: C5_10  and  C6_11 
REMARK    2  A    between atoms: C6_11  and  C7_12 
REMARK    3  A    between atoms: C7_12  and  C8_13 
REMARK    4  A    between atoms: C8_13  and  C9_14 
ROOT
HETATM    1  C1  UNL     1      -0.421  13.323  19.191  1.00  0.00     0.019 C 
HETATM    2  C2  UNL     1      -0.737  12.852  18.127  1.00  0.00    -0.058 C 
HETATM    3  C3  UNL     1      -1.126  12.294  16.867  1.00  0.00     0.112 A 
HETATM    4  N1  UNL     1      -0.674  11.150  16.342  1.00  0.00    -0.289 N 
ATOM      5  H1  UNL     1       0.010  10.534  16.783  1.00  0.00     0.188 HD
HETATM    6  N2  UNL     1      -1.249  10.931  15.157  1.00  0.00    -0.265 N 
ATOM      7  H2  UNL     1      -1.071  10.126  14.556  1.00  0.00     0.190 HD
HETATM    8  C4  UNL     1      -2.108  11.946  14.874  1.00  0.00     0.269 A 
HETATM    9  O1  UNL     1      -2.833  12.102  13.858  1.00  0.00    -0.266 OA
HETATM   10  C5  UNL     1      -2.024  12.799  15.954  1.00  0.00     0.048 A 
ENDROOT
BRANCH  10  11
HETATM   11  C6  UNL     1      -2.789  14.064  16.096  1.00  0.00     0.047 C 
BRANCH  11  12
HETATM   12  C7  UNL     1      -2.115  15.202  15.315  1.00  0.00     0.007 C 
BRANCH  12  13
HETATM   13  C8  UNL     1      -1.332  16.006  16.324  1.00  0.00     0.043 C 
BRANCH  13  14
HETATM   14  C9  UNL     1      -1.756  17.453  16.372  1.00  0.00     0.277 C 
HETATM   15  N3  UNL     1      -1.031  18.148  17.379  1.00  0.00    -0.061 N 
HETATM   16  C10 UNL     1      -0.452  19.397  16.942  1.00  0.00     0.253 C 
ATOM     17  H32 UNL     1      -1.615  18.296  18.202  1.00  0.00     0.278 HD
ATOM     18  H31 UNL     1      -0.314  17.545  17.781  1.00  0.00     0.278 HD
HETATM   19  C11 UNL     1       0.357  19.247  15.678  1.00  0.00     0.150 C 
HETATM   20  N4  UNL     1      -0.456  18.631  14.620  1.00  0.00    -0.358 N 
HETATM   21  C12 UNL     1      -1.687  18.063  15.029  1.00  0.00     0.248 C 
ATOM     22  H4  UNL     1      -0.150  18.612  13.647  1.00  0.00     0.162 HD
HETATM   23  O2  UNL     1      -2.667  18.093  14.257  1.00  0.00    -0.271 OA
ENDBRANCH  13  14
ENDBRANCH  12  13
ENDBRANCH  11  12
ENDBRANCH  10  11
TORSDOF 4
ENDMDL
MODEL 5
REMARK VINA RESULT: -6.242923103      1.868      2.678
REMARK  4 active torsions:
REMARK  status: ('A' for Active; 'I' for Inactive)
REMARK    1  A    between atoms: C5_10  and  C6_11 
REMARK    2  A    between atoms: C6_11  and  C7_12 
REMARK    3  A    between atoms: C7_12  and  C8_13 
REMARK    4  A    between atoms: C8_13  and  C9_14 
ROOT
HETATM    1  C1  UNL     1      -2.471  12.079  14.497  1.00  0.00     0.019 C 
HETATM    2  C2  UNL     1      -2.028  12.406  15.569  1.00  0.00    -0.058 C 
HETATM    3  C3  UNL     1      -1.498  12.807  16.837  1.00  0.00     0.112 A 
HETATM    4  N1  UNL     1      -0.575  12.149  17.546  1.00  0.00    -0.289 N 
ATOM      5  H1  UNL     1      -0.135  11.273  17.263  1.00  0.00     0.188 HD
HETATM    6  N2  UNL     1      -0.312  12.806  18.679  1.00  0.00    -0.265 N 
ATOM      7  H2  UNL     1       0.356  12.509  19.390  1.00  0.00     0.190 HD
HETATM    8  C4  UNL     1      -1.072  13.931  18.738  1.00  0.00     0.269 A 
HETATM    9  O1  UNL     1      -1.112  14.806  19.640  1.00  0.00    -0.266 OA
HETATM   10  C5  UNL     1      -1.816  13.925  17.577  1.00  0.00     0.048 A 
ENDROOT
BRANCH  10  11
HETATM   11  C6  UNL     1      -2.802  14.967  17.196  1.00  0.00     0.047 C 
BRANCH  11  12
HETATM   12  C7  UNL     1      -2.212  15.921  16.146  1.00  0.00     0.007 C 
BRANCH  12  13
HETATM   13  C8  UNL     1      -1.386  16.931  16.904  1.00  0.00     0.043 C 
BRANCH  13  14
HETATM   14  C9  UNL     1       0.089  16.821  16.607  1.00  0.00     0.277 C 
HETATM   15  N3  UNL     1       0.379  17.374  15.329  1.00  0.00    -0.061 N 
HETATM   16  C10 UNL     1       1.490  18.296  15.318  1.00  0.00     0.253 C 
ATOM     17  H32 UNL     1       0.525  16.633  14.645  1.00  0.00     0.278 HD
ATOM     18  H31 UNL     1      -0.452  17.814  14.935  1.00  0.00     0.278 HD
HETATM   19  C11 UNL     1       1.362  19.368  16.371  1.00  0.00     0.150 C 
HETATM   20  N4  UNL     1       1.178  18.763  17.698  1.00  0.00    -0.358 N 
HETATM   21  C12 UNL     1       0.889  17.377  17.717  1.00  0.00     0.248 C 
ATOM     22  H4  UNL     1       1.254  19.310  18.555  1.00  0.00     0.162 HD
HETATM   23  O2  UNL     1       1.312  16.671  18.656  1.00  0.00    -0.271 OA
ENDBRANCH  13  14
ENDBRANCH  12  13
ENDBRANCH  11  12
ENDBRANCH  10  11
TORSDOF 4
ENDMDL
