MODEL 1
REMARK VINA RESULT: -7.528333923      0.000      0.000
REMARK  9 active torsions:
REMARK  status: ('A' for Active; 'I' for Inactive)
REMARK       I    between atoms: C2_2  and  N1_4 
REMARK    1  A    between atoms: N1_4  and  C3_6 
REMARK    2  A    between atoms: C3_6  and  C4_7 
REMARK       I    between atoms: C4_7  and  N2_9 
REMARK    3  A    between atoms: N2_9  and  C5_11 
REMARK    4  A    between atoms: C7_13  and  C8_14 
REMARK    5  A    between atoms: C8_14  and  N3_15 
REMARK    6  A    between atoms: C10_20  and  N4_21 
REMARK       I    between atoms: N4_21  and  C11_23 
REMARK       I    between atoms: C11_23  and  N5_25 
REMARK    7  A    between atoms: N5_25  and  C12_27 
REMARK    8  A    between atoms: C12_27  and  C13_28 
REMARK    9  A    between atoms: C14_33  and  N8_34 
ROOT
HETATM    1  C5  UNL     1       3.135  19.920  19.797  1.00  0.00     0.107 C 
HETATM    2  C6  UNL     1       3.184  20.923  20.959  1.00  0.00     0.033 C 
HETATM    3  C7  UNL     1       1.775  21.417  20.991  1.00  0.00     0.015 C 
HETATM    4  C9  UNL     1       0.960  20.167  20.753  1.00  0.00     0.033 C 
HETATM    5  C10 UNL     1       1.894  19.136  20.166  1.00  0.00     0.109 C 
ENDROOT
BRANCH   5   6
HETATM    6  N4  UNL     1       1.333  18.406  19.080  1.00  0.00    -0.337 N 
HETATM    7  C11 UNL     1       0.644  17.191  19.314  1.00  0.00     0.316 C 
HETATM    8  O3  UNL     1       0.538  16.769  20.491  1.00  0.00    -0.247 OA
HETATM    9  N5  UNL     1       0.074  16.443  18.249  1.00  0.00    -0.336 N 
ATOM     10  H5  UNL     1       0.157  16.780  17.290  1.00  0.00     0.164 HD
ATOM     11  H4  UNL     1       1.426  18.760  18.129  1.00  0.00     0.164 HD
BRANCH   9  12
HETATM   12  C12 UNL     1      -0.623  15.204  18.520  1.00  0.00     0.203 C 
BRANCH  12  13
HETATM   13  C13 UNL     1      -1.110  14.573  17.251  1.00  0.00     0.132 A 
HETATM   14  N6  UNL     1      -0.587  13.497  16.638  1.00  0.00    -0.273 N 
HETATM   15  N7  UNL     1      -1.297  13.256  15.551  1.00  0.00    -0.131 N 
ATOM     16  H6  UNL     1       0.219  12.960  16.957  1.00  0.00     0.189 HD
HETATM   17  C14 UNL     1      -2.289  14.157  15.429  1.00  0.00     0.693 A 
ATOM     18  H7  UNL     1      -1.120  12.493  14.898  1.00  0.00     0.205 HD
HETATM   19  N9  UNL     1      -2.151  14.961  16.493  1.00  0.00    -0.172 N 
HETATM   20  C15 UNL     1      -2.999  16.098  16.801  1.00  0.00     0.177 C 
BRANCH  17  21
HETATM   21  N8  UNL     1      -3.155  14.194  14.478  1.00  0.00    -0.233 N 
ATOM     22  H82 UNL     1      -3.299  13.546  13.703  1.00  0.00     0.174 HD
ATOM     23  H81 UNL     1      -3.864  14.915  14.348  1.00  0.00     0.174 HD
ENDBRANCH  17  21
ENDBRANCH  12  13
ENDBRANCH   9  12
ENDBRANCH   5   6
BRANCH   1  24
HETATM   24  N2  UNL     1       3.034  20.570  18.529  1.00  0.00    -0.353 N 
HETATM   25  C4  UNL     1       4.041  21.464  18.082  1.00  0.00     0.235 C 
HETATM   26  O2  UNL     1       5.062  21.702  18.812  1.00  0.00    -0.272 OA
ATOM     27  H2  UNL     1       2.225  20.389  17.935  1.00  0.00     0.163 HD
BRANCH  25  28
HETATM   28  C3  UNL     1       3.938  22.133  16.779  1.00  0.00     0.225 C 
BRANCH  28  29
HETATM   29  N1  UNL     1       4.902  21.732  15.804  1.00  0.00    -0.353 N 
HETATM   30  C2  UNL     1       4.733  20.677  14.887  1.00  0.00     0.213 C 
HETATM   31  C1  UNL     1       5.802  20.343  13.908  1.00  0.00     0.117 C 
HETATM   32  O1  UNL     1       3.671  19.997  14.876  1.00  0.00    -0.274 OA
ATOM     33  H1  UNL     1       5.780  22.250  15.770  1.00  0.00     0.162 HD
ENDBRANCH  28  29
ENDBRANCH  25  28
ENDBRANCH   1  24
BRANCH   3  34
HETATM   34  C8  UNL     1       1.426  22.040  22.349  1.00  0.00     0.234 C 
BRANCH  34  35
HETATM   35  N3  UNL     1       1.808  21.101  23.388  1.00  0.00    -0.079 N 
ATOM     36  H33 UNL     1       1.009  20.754  23.918  1.00  0.00     0.274 HD
ATOM     37  H32 UNL     1       2.124  20.206  23.014  1.00  0.00     0.274 HD
ATOM     38  H31 UNL     1       2.508  21.550  23.979  1.00  0.00     0.274 HD
ENDBRANCH  34  35
ENDBRANCH   3  34
TORSDOF 9
ENDMDL
MODEL 2
REMARK VINA RESULT: -7.497280484      2.436      5.265
REMARK  9 active torsions:
REMARK  status: ('A' for Active; 'I' for Inactive)
REMARK       I    between atoms: C2_2  and  N1_4 
REMARK    1  A    between atoms: N1_4  and  C3_6 
REMARK    2  A    between atoms: C3_6  and  C4_7 
REMARK       I    between atoms: C4_7  and  N2_9 
REMARK    3  A    between atoms: N2_9  and  C5_11 
REMARK    4  A    between atoms: C7_13  and  C8_14 
REMARK    5  A    between atoms: C8_14  and  N3_15 
REMARK    6  A    between atoms: C10_20  and  N4_21 
REMARK       I    between atoms: N4_21  and  C11_23 
REMARK       I    between atoms: C11_23  and  N5_25 
REMARK    7  A    between atoms: N5_25  and  C12_27 
REMARK    8  A    between atoms: C12_27  and  C13_28 
REMARK    9  A    between atoms: C14_33  and  N8_34 
ROOT
HETATM    1  C5  UNL     1       1.171  20.361  19.724  1.00  0.00     0.107 C 
HETATM    2  C6  UNL     1       1.909  21.614  19.230  1.00  0.00     0.033 C 
HETATM    3  C7  UNL     1       3.294  21.091  19.032  1.00  0.00     0.015 C 
HETATM    4  C9  UNL     1       3.068  19.728  18.419  1.00  0.00     0.033 C 
HETATM    5  C10 UNL     1       1.633  19.349  18.698  1.00  0.00     0.109 C 
ENDROOT
BRANCH   5   6
HETATM    6  N4  UNL     1       1.467  17.997  19.110  1.00  0.00    -0.337 N 
HETATM    7  C11 UNL     1       0.221  17.345  18.943  1.00  0.00     0.316 C 
HETATM    8  O3  UNL     1      -0.731  17.979  18.428  1.00  0.00    -0.247 OA
HETATM    9  N5  UNL     1       0.028  15.997  19.345  1.00  0.00    -0.336 N 
ATOM     10  H5  UNL     1       0.798  15.476  19.765  1.00  0.00     0.164 HD
ATOM     11  H4  UNL     1       2.250  17.495  19.527  1.00  0.00     0.164 HD
BRANCH   9  12
HETATM   12  C12 UNL     1      -1.258  15.358  19.162  1.00  0.00     0.203 C 
BRANCH  12  13
HETATM   13  C13 UNL     1      -1.345  14.702  17.818  1.00  0.00     0.132 A 
HETATM   14  N6  UNL     1      -0.668  13.615  17.411  1.00  0.00    -0.273 N 
HETATM   15  N7  UNL     1      -1.022  13.352  16.165  1.00  0.00    -0.131 N 
ATOM     16  H6  UNL     1       0.002  13.084  17.966  1.00  0.00     0.189 HD
HETATM   17  C14 UNL     1      -1.926  14.250  15.735  1.00  0.00     0.693 A 
ATOM     18  H7  UNL     1      -0.660  12.577  15.609  1.00  0.00     0.205 HD
HETATM   19  N9  UNL     1      -2.109  15.075  16.776  1.00  0.00    -0.172 N 
HETATM   20  C15 UNL     1      -3.004  16.217  16.794  1.00  0.00     0.177 C 
BRANCH  17  21
HETATM   21  N8  UNL     1      -2.467  14.268  14.567  1.00  0.00    -0.233 N 
ATOM     22  H82 UNL     1      -2.251  13.710  13.741  1.00  0.00     0.174 HD
ATOM     23  H81 UNL     1      -3.232  14.876  14.276  1.00  0.00     0.174 HD
ENDBRANCH  17  21
ENDBRANCH  12  13
ENDBRANCH   9  12
ENDBRANCH   5   6
BRANCH   1  24
HETATM   24  N2  UNL     1       1.537  20.014  21.062  1.00  0.00    -0.353 N 
HETATM   25  C4  UNL     1       0.829  20.539  22.174  1.00  0.00     0.235 C 
HETATM   26  O2  UNL     1      -0.154  21.335  21.995  1.00  0.00    -0.272 OA
ATOM     27  H2  UNL     1       2.320  19.379  21.220  1.00  0.00     0.163 HD
BRANCH  25  28
HETATM   28  C3  UNL     1       1.205  20.183  23.548  1.00  0.00     0.225 C 
BRANCH  28  29
HETATM   29  N1  UNL     1       0.124  19.805  24.402  1.00  0.00    -0.353 N 
HETATM   30  C2  UNL     1      -0.395  18.501  24.519  1.00  0.00     0.213 C 
HETATM   31  C1  UNL     1      -1.524  18.213  25.443  1.00  0.00     0.117 C 
HETATM   32  O1  UNL     1       0.090  17.552  23.844  1.00  0.00    -0.274 OA
ATOM     33  H1  UNL     1      -0.304  20.535  24.970  1.00  0.00     0.162 HD
ENDBRANCH  28  29
ENDBRANCH  25  28
ENDBRANCH   1  24
BRANCH   3  34
HETATM   34  C8  UNL     1       4.105  21.983  18.083  1.00  0.00     0.234 C 
BRANCH  34  35
HETATM   35  N3  UNL     1       5.436  22.142  18.641  1.00  0.00    -0.079 N 
ATOM     36  H33 UNL     1       5.465  21.970  19.645  1.00  0.00     0.274 HD
ATOM     37  H32 UNL     1       6.073  21.397  18.357  1.00  0.00     0.274 HD
ATOM     38  H31 UNL     1       5.777  23.069  18.389  1.00  0.00     0.274 HD
ENDBRANCH  34  35
ENDBRANCH   3  34
TORSDOF 9
ENDMDL
MODEL 3
REMARK VINA RESULT: -7.218227713      2.222      4.715
REMARK  9 active torsions:
REMARK  status: ('A' for Active; 'I' for Inactive)
REMARK       I    between atoms: C2_2  and  N1_4 
REMARK    1  A    between atoms: N1_4  and  C3_6 
REMARK    2  A    between atoms: C3_6  and  C4_7 
REMARK       I    between atoms: C4_7  and  N2_9 
REMARK    3  A    between atoms: N2_9  and  C5_11 
REMARK    4  A    between atoms: C7_13  and  C8_14 
REMARK    5  A    between atoms: C8_14  and  N3_15 
REMARK    6  A    between atoms: C10_20  and  N4_21 
REMARK       I    between atoms: N4_21  and  C11_23 
REMARK       I    between atoms: C11_23  and  N5_25 
REMARK    7  A    between atoms: N5_25  and  C12_27 
REMARK    8  A    between atoms: C12_27  and  C13_28 
REMARK    9  A    between atoms: C14_33  and  N8_34 
ROOT
HETATM    1  C5  UNL     1       1.996  21.308  17.632  1.00  0.00     0.107 C 
HETATM    2  C6  UNL     1       2.268  22.175  16.394  1.00  0.00     0.033 C 
HETATM    3  C7  UNL     1       3.031  21.231  15.525  1.00  0.00     0.015 C 
HETATM    4  C9  UNL     1       2.308  19.917  15.716  1.00  0.00     0.033 C 
HETATM    5  C10 UNL     1       1.483  20.045  16.974  1.00  0.00     0.109 C 
ENDROOT
BRANCH   5   6
HETATM    6  N4  UNL     1       1.537  18.897  17.814  1.00  0.00    -0.337 N 
HETATM    7  C11 UNL     1       0.373  18.127  18.051  1.00  0.00     0.316 C 
HETATM    8  O3  UNL     1      -0.705  18.473  17.509  1.00  0.00    -0.247 OA
HETATM    9  N5  UNL     1       0.399  16.977  18.884  1.00  0.00    -0.336 N 
ATOM     10  H5  UNL     1       1.272  16.690  19.327  1.00  0.00     0.164 HD
ATOM     11  H4  UNL     1       2.420  18.628  18.247  1.00  0.00     0.164 HD
BRANCH   9  12
HETATM   12  C12 UNL     1      -0.808  16.211  19.108  1.00  0.00     0.203 C 
BRANCH  12  13
HETATM   13  C13 UNL     1      -0.975  15.154  18.059  1.00  0.00     0.132 A 
HETATM   14  N6  UNL     1      -0.224  14.050  17.906  1.00  0.00    -0.273 N 
HETATM   15  N7  UNL     1      -0.690  13.375  16.870  1.00  0.00    -0.131 N 
ATOM     16  H6  UNL     1       0.568  13.780  18.488  1.00  0.00     0.189 HD
HETATM   17  C14 UNL     1      -1.742  14.014  16.328  1.00  0.00     0.693 A 
ATOM     18  H7  UNL     1      -0.306  12.494  16.530  1.00  0.00     0.205 HD
HETATM   19  N9  UNL     1      -1.899  15.112  17.082  1.00  0.00    -0.172 N 
HETATM   20  C15 UNL     1      -2.918  16.126  16.885  1.00  0.00     0.177 C 
BRANCH  17  21
HETATM   21  N8  UNL     1      -2.417  13.615  15.308  1.00  0.00    -0.233 N 
ATOM     22  H82 UNL     1      -2.419  12.707  14.843  1.00  0.00     0.174 HD
ATOM     23  H81 UNL     1      -3.087  14.177  14.783  1.00  0.00     0.174 HD
ENDBRANCH  17  21
ENDBRANCH  12  13
ENDBRANCH   9  12
ENDBRANCH   5   6
BRANCH   1  24
HETATM   24  N2  UNL     1       3.176  21.098  18.411  1.00  0.00    -0.353 N 
HETATM   25  C4  UNL     1       3.098  20.863  19.808  1.00  0.00     0.235 C 
HETATM   26  O2  UNL     1       1.963  20.834  20.395  1.00  0.00    -0.272 OA
ATOM     27  H2  UNL     1       4.088  21.117  17.956  1.00  0.00     0.163 HD
BRANCH  25  28
HETATM   28  C3  UNL     1       4.309  20.647  20.609  1.00  0.00     0.225 C 
BRANCH  28  29
HETATM   29  N1  UNL     1       4.320  21.279  21.890  1.00  0.00    -0.353 N 
HETATM   30  C2  UNL     1       5.473  21.748  22.549  1.00  0.00     0.213 C 
HETATM   31  C1  UNL     1       5.373  22.396  23.884  1.00  0.00     0.117 C 
HETATM   32  O1  UNL     1       6.611  21.629  22.020  1.00  0.00    -0.274 OA
ATOM     33  H1  UNL     1       3.425  21.401  22.362  1.00  0.00     0.162 HD
ENDBRANCH  28  29
ENDBRANCH  25  28
ENDBRANCH   1  24
BRANCH   3  34
HETATM   34  C8  UNL     1       2.994  21.661  14.053  1.00  0.00     0.234 C 
BRANCH  34  35
HETATM   35  N3  UNL     1       2.070  20.787  13.351  1.00  0.00    -0.079 N 
ATOM     36  H33 UNL     1       2.174  20.837  12.338  1.00  0.00     0.274 HD
ATOM     37  H32 UNL     1       2.300  19.799  13.463  1.00  0.00     0.274 HD
ATOM     38  H31 UNL     1       1.125  21.010  13.663  1.00  0.00     0.274 HD
ENDBRANCH  34  35
ENDBRANCH   3  34
TORSDOF 9
ENDMDL
MODEL 4
REMARK VINA RESULT: -7.136476919      3.601      5.522
REMARK  9 active torsions:
REMARK  status: ('A' for Active; 'I' for Inactive)
REMARK       I    between atoms: C2_2  and  N1_4 
REMARK    1  A    between atoms: N1_4  and  C3_6 
REMARK    2  A    between atoms: C3_6  and  C4_7 
REMARK       I    between atoms: C4_7  and  N2_9 
REMARK    3  A    between atoms: N2_9  and  C5_11 
REMARK    4  A    between atoms: C7_13  and  C8_14 
REMARK    5  A    between atoms: C8_14  and  N3_15 
REMARK    6  A    between atoms: C10_20  and  N4_21 
REMARK       I    between atoms: N4_21  and  C11_23 
REMARK       I    between atoms: C11_23  and  N5_25 
REMARK    7  A    between atoms: N5_25  and  C12_27 
REMARK    8  A    between atoms: C12_27  and  C13_28 
REMARK    9  A    between atoms: C14_33  and  N8_34 
ROOT
HETATM    1  C5  UNL     1       2.950  22.185  14.400  1.00  0.00     0.107 C 
HETATM    2  C6  UNL     1       2.698  23.239  13.312  1.00  0.00     0.033 C 
HETATM    3  C7  UNL     1       1.949  22.447  12.291  1.00  0.00     0.015 C 
HETATM    4  C9  UNL     1       1.021  21.592  13.123  1.00  0.00     0.033 C 
HETATM    5  C10 UNL     1       1.565  21.591  14.532  1.00  0.00     0.109 C 
ENDROOT
BRANCH   5   6
HETATM    6  N4  UNL     1       1.545  20.310  15.152  1.00  0.00    -0.337 N 
HETATM    7  C11 UNL     1       0.396  19.872  15.855  1.00  0.00     0.316 C 
HETATM    8  O3  UNL     1      -0.601  20.630  15.921  1.00  0.00    -0.247 OA
HETATM    9  N5  UNL     1       0.350  18.598  16.483  1.00  0.00    -0.336 N 
ATOM     10  H5  UNL     1       1.158  17.977  16.432  1.00  0.00     0.164 HD
ATOM     11  H4  UNL     1       2.363  19.705  15.090  1.00  0.00     0.164 HD
BRANCH   9  12
HETATM   12  C12 UNL     1      -0.838  18.178  17.194  1.00  0.00     0.203 C 
BRANCH  12  13
HETATM   13  C13 UNL     1      -1.427  16.947  16.577  1.00  0.00     0.132 A 
HETATM   14  N6  UNL     1      -2.153  16.885  15.447  1.00  0.00    -0.273 N 
HETATM   15  N7  UNL     1      -2.487  15.624  15.241  1.00  0.00    -0.131 N 
ATOM     16  H6  UNL     1      -2.403  17.674  14.852  1.00  0.00     0.189 HD
HETATM   17  C14 UNL     1      -1.994  14.842  16.218  1.00  0.00     0.693 A 
ATOM     18  H7  UNL     1      -3.040  15.290  14.452  1.00  0.00     0.205 HD
HETATM   19  N9  UNL     1      -1.342  15.684  17.033  1.00  0.00    -0.172 N 
HETATM   20  C15 UNL     1      -0.637  15.305  18.242  1.00  0.00     0.177 C 
BRANCH  17  21
HETATM   21  N8  UNL     1      -2.144  13.567  16.306  1.00  0.00    -0.233 N 
ATOM     22  H82 UNL     1      -2.070  12.956  17.119  1.00  0.00     0.174 HD
ATOM     23  H81 UNL     1      -2.373  12.942  15.533  1.00  0.00     0.174 HD
ENDBRANCH  17  21
ENDBRANCH  12  13
ENDBRANCH   9  12
ENDBRANCH   5   6
BRANCH   1  24
HETATM   24  N2  UNL     1       3.937  21.229  14.004  1.00  0.00    -0.353 N 
HETATM   25  C4  UNL     1       5.081  20.983  14.806  1.00  0.00     0.235 C 
HETATM   26  O2  UNL     1       5.247  21.616  15.904  1.00  0.00    -0.272 OA
ATOM     27  H2  UNL     1       3.817  20.716  13.131  1.00  0.00     0.163 HD
BRANCH  25  28
HETATM   28  C3  UNL     1       6.095  20.002  14.400  1.00  0.00     0.225 C 
BRANCH  28  29
HETATM   29  N1  UNL     1       7.186  20.524  13.641  1.00  0.00    -0.353 N 
HETATM   30  C2  UNL     1       7.130  20.867  12.277  1.00  0.00     0.213 C 
HETATM   31  C1  UNL     1       8.328  21.407  11.580  1.00  0.00     0.117 C 
HETATM   32  O1  UNL     1       6.063  20.725  11.620  1.00  0.00    -0.274 OA
ATOM     33  H1  UNL     1       8.074  20.658  14.125  1.00  0.00     0.162 HD
ENDBRANCH  28  29
ENDBRANCH  25  28
ENDBRANCH   1  24
BRANCH   3  34
HETATM   34  C8  UNL     1       1.150  23.354  11.347  1.00  0.00     0.234 C 
BRANCH  34  35
HETATM   35  N3  UNL     1       0.819  22.588  10.158  1.00  0.00    -0.079 N 
ATOM     36  H33 UNL     1       1.424  22.809   9.367  1.00  0.00     0.274 HD
ATOM     37  H32 UNL     1       1.063  21.601  10.245  1.00  0.00     0.274 HD
ATOM     38  H31 UNL     1      -0.169  22.734   9.952  1.00  0.00     0.274 HD
ENDBRANCH  34  35
ENDBRANCH   3  34
TORSDOF 9
ENDMDL
MODEL 5
REMARK VINA RESULT: -7.121496459      2.986      5.877
REMARK  9 active torsions:
REMARK  status: ('A' for Active; 'I' for Inactive)
REMARK       I    between atoms: C2_2  and  N1_4 
REMARK    1  A    between atoms: N1_4  and  C3_6 
REMARK    2  A    between atoms: C3_6  and  C4_7 
REMARK       I    between atoms: C4_7  and  N2_9 
REMARK    3  A    between atoms: N2_9  and  C5_11 
REMARK    4  A    between atoms: C7_13  and  C8_14 
REMARK    5  A    between atoms: C8_14  and  N3_15 
REMARK    6  A    between atoms: C10_20  and  N4_21 
REMARK       I    between atoms: N4_21  and  C11_23 
REMARK       I    between atoms: C11_23  and  N5_25 
REMARK    7  A    between atoms: N5_25  and  C12_27 
REMARK    8  A    between atoms: C12_27  and  C13_28 
REMARK    9  A    between atoms: C14_33  and  N8_34 
ROOT
HETATM    1  C5  UNL     1       2.745  21.858  21.768  1.00  0.00     0.107 C 
HETATM    2  C6  UNL     1       3.681  23.047  22.033  1.00  0.00     0.033 C 
HETATM    3  C7  UNL     1       5.013  22.374  22.095  1.00  0.00     0.015 C 
HETATM    4  C9  UNL     1       4.943  21.355  20.980  1.00  0.00     0.033 C 
HETATM    5  C10 UNL     1       3.483  21.175  20.637  1.00  0.00     0.109 C 
ENDROOT
BRANCH   5   6
HETATM    6  N4  UNL     1       3.104  19.818  20.441  1.00  0.00    -0.337 N 
HETATM    7  C11 UNL     1       1.982  19.496  19.639  1.00  0.00     0.316 C 
HETATM    8  O3  UNL     1       1.330  20.426  19.106  1.00  0.00    -0.247 OA
HETATM    9  N5  UNL     1       1.582  18.150  19.426  1.00  0.00    -0.336 N 
ATOM     10  H5  UNL     1       2.108  17.389  19.856  1.00  0.00     0.164 HD
ATOM     11  H4  UNL     1       3.644  19.072  20.879  1.00  0.00     0.164 HD
BRANCH   9  12
HETATM   12  C12 UNL     1       0.430  17.853  18.602  1.00  0.00     0.203 C 
BRANCH  12  13
HETATM   13  C13 UNL     1      -0.038  16.446  18.819  1.00  0.00     0.132 A 
HETATM   14  N6  UNL     1       0.261  15.654  19.862  1.00  0.00    -0.273 N 
HETATM   15  N7  UNL     1      -0.343  14.492  19.684  1.00  0.00    -0.131 N 
ATOM     16  H6  UNL     1       0.851  15.905  20.654  1.00  0.00     0.189 HD
HETATM   17  C14 UNL     1      -1.041  14.499  18.534  1.00  0.00     0.693 A 
ATOM     18  H7  UNL     1      -0.288  13.703  20.327  1.00  0.00     0.205 HD
HETATM   19  N9  UNL     1      -0.836  15.719  18.017  1.00  0.00    -0.172 N 
HETATM   20  C15 UNL     1      -1.391  16.205  16.767  1.00  0.00     0.177 C 
BRANCH  17  21
HETATM   21  N8  UNL     1      -1.739  13.519  18.075  1.00  0.00    -0.233 N 
ATOM     22  H82 UNL     1      -1.833  13.179  17.118  1.00  0.00     0.174 HD
ATOM     23  H81 UNL     1      -2.333  12.903  18.629  1.00  0.00     0.174 HD
ENDBRANCH  17  21
ENDBRANCH  12  13
ENDBRANCH   9  12
ENDBRANCH   5   6
BRANCH   1  24
HETATM   24  N2  UNL     1       2.589  21.028  22.921  1.00  0.00    -0.353 N 
HETATM   25  C4  UNL     1       1.305  20.751  23.455  1.00  0.00     0.235 C 
HETATM   26  O2  UNL     1       0.259  21.242  22.908  1.00  0.00    -0.272 OA
ATOM     27  H2  UNL     1       3.415  20.629  23.367  1.00  0.00     0.163 HD
BRANCH  25  28
HETATM   28  C3  UNL     1       1.144  19.899  24.640  1.00  0.00     0.225 C 
BRANCH  28  29
HETATM   29  N1  UNL     1      -0.184  19.439  24.891  1.00  0.00    -0.353 N 
HETATM   30  C2  UNL     1      -0.689  18.181  24.511  1.00  0.00     0.213 C 
HETATM   31  C1  UNL     1      -2.092  17.799  24.824  1.00  0.00     0.117 C 
HETATM   32  O1  UNL     1       0.039  17.352  23.900  1.00  0.00    -0.274 OA
ATOM     33  H1  UNL     1      -0.816  20.071  25.383  1.00  0.00     0.162 HD
ENDBRANCH  28  29
ENDBRANCH  25  28
ENDBRANCH   1  24
BRANCH   3  34
HETATM   34  C8  UNL     1       6.158  23.365  21.851  1.00  0.00     0.234 C 
BRANCH  34  35
HETATM   35  N3  UNL     1       5.985  23.939  20.529  1.00  0.00    -0.079 N 
ATOM     36  H33 UNL     1       5.737  23.242  19.826  1.00  0.00     0.274 HD
ATOM     37  H32 UNL     1       5.143  24.512  20.455  1.00  0.00     0.274 HD
ATOM     38  H31 UNL     1       6.833  24.454  20.293  1.00  0.00     0.274 HD
ENDBRANCH  34  35
ENDBRANCH   3  34
TORSDOF 9
ENDMDL
