MODEL 1
REMARK VINA RESULT: -5.640277647      0.000      0.000
REMARK  10 active torsions:
REMARK  status: ('A' for Active; 'I' for Inactive)
REMARK    1  A    between atoms: C2_2  and  C3_3 
REMARK    2  A    between atoms: C7_15  and  C8_16 
REMARK    3  A    between atoms: C8_16  and  C9_17 
REMARK    4  A    between atoms: C8_16  and  C10_20 
REMARK    5  A    between atoms: C9_17  and  O2_18 
REMARK    6  A    between atoms: C10_20  and  N4_21 
REMARK    7  A    between atoms: N4_21  and  C11_23 
REMARK    8  A    between atoms: C11_23  and  N5_25 
REMARK    9  A    between atoms: N5_25  and  C12_27 
REMARK   10  A    between atoms: C15_32  and  O3_33 
ROOT
HETATM    1  C3  UNL     1      -1.571  16.137  16.419  1.00  0.00     0.159 C 
HETATM    2  N1  UNL     1      -0.813  16.061  17.614  1.00  0.00    -0.348 N 
ATOM      3  H1  UNL     1      -0.046  15.388  17.645  1.00  0.00     0.163 HD
HETATM    4  C4  UNL     1      -1.038  16.841  18.755  1.00  0.00     0.235 C 
HETATM    5  O1  UNL     1      -0.038  17.343  19.381  1.00  0.00    -0.272 OA
HETATM    6  C5  UNL     1      -2.367  17.149  19.326  1.00  0.00     0.224 C 
HETATM    7  N2  UNL     1      -2.322  18.536  19.736  1.00  0.00    -0.366 N 
ATOM      8  H2  UNL     1      -2.621  18.778  20.680  1.00  0.00     0.161 HD
HETATM    9  C6  UNL     1      -1.883  19.562  18.882  1.00  0.00     0.122 C 
HETATM   10  N3  UNL     1      -1.208  20.522  19.419  1.00  0.00    -0.384 N 
ATOM     11  H31 UNL     1      -0.889  21.267  18.799  1.00  0.00     0.157 HD
ATOM     12  H32 UNL     1      -1.016  20.472  20.420  1.00  0.00     0.157 HD
HETATM   13  C7  UNL     1      -2.156  19.635  17.457  1.00  0.00     0.083 C 
HETATM   14  N6  UNL     1      -2.627  18.516  16.753  1.00  0.00    -0.336 N 
ATOM     15  H6  UNL     1      -3.647  18.500  16.777  1.00  0.00     0.168 HD
HETATM   16  C15 UNL     1      -2.160  17.429  16.038  1.00  0.00     0.139 C 
ENDROOT
BRANCH  13  17
HETATM   17  C8  UNL     1      -1.253  20.536  16.647  1.00  0.00    -0.009 C 
BRANCH  17  18
HETATM   18  C9  UNL     1      -1.869  21.202  15.473  1.00  0.00     0.202 C 
BRANCH  18  19
HETATM   19  O2  UNL     1      -2.053  20.394  14.357  1.00  0.00    -0.397 OA
ATOM     20  H2  UNL     1      -2.508  20.802  13.629  1.00  0.00     0.209 HD
ENDBRANCH  18  19
ENDBRANCH  17  18
BRANCH  17  21
HETATM   21  C10 UNL     1       0.121  19.969  16.432  1.00  0.00     0.161 C 
BRANCH  21  22
HETATM   22  N4  UNL     1       0.823  20.478  15.296  1.00  0.00    -0.363 N 
ATOM     23  H4  UNL     1       0.396  20.478  14.369  1.00  0.00     0.162 HD
BRANCH  22  24
HETATM   24  C11 UNL     1       2.138  20.987  15.500  1.00  0.00     0.168 C 
HETATM   25  S1  UNL     1       2.303  22.411  16.287  1.00  0.00    -0.041 SA
BRANCH  24  26
HETATM   26  N5  UNL     1       3.279  20.282  15.039  1.00  0.00    -0.363 N 
ATOM     27  H5  UNL     1       3.364  19.277  15.189  1.00  0.00     0.162 HD
BRANCH  26  28
HETATM   28  C12 UNL     1       4.323  21.020  14.351  1.00  0.00     0.075 C 
HETATM   29  C13 UNL     1       5.638  20.272  14.393  1.00  0.00     0.032 C 
HETATM   30  C14 UNL     1       3.895  21.163  12.909  1.00  0.00     0.032 C 
ENDBRANCH  26  28
ENDBRANCH  24  26
ENDBRANCH  22  24
ENDBRANCH  21  22
ENDBRANCH  17  21
ENDBRANCH  13  17
BRANCH  16  31
HETATM   31  O3  UNL     1      -2.249  17.532  14.724  1.00  0.00    -0.348 OA
ATOM     32  H3  UNL     1      -2.734  18.312  14.481  1.00  0.00     0.219 HD
ENDBRANCH  16  31
BRANCH   1  33
HETATM   33  C2  UNL     1      -2.627  15.013  16.344  1.00  0.00     0.029 C 
HETATM   34  C1  UNL     1      -2.337  14.089  15.193  1.00  0.00     0.007 C 
ENDBRANCH   1  33
TORSDOF 10
ENDMDL
MODEL 2
REMARK VINA RESULT: -5.608728675      3.023      6.662
REMARK  10 active torsions:
REMARK  status: ('A' for Active; 'I' for Inactive)
REMARK    1  A    between atoms: C2_2  and  C3_3 
REMARK    2  A    between atoms: C7_15  and  C8_16 
REMARK    3  A    between atoms: C8_16  and  C9_17 
REMARK    4  A    between atoms: C8_16  and  C10_20 
REMARK    5  A    between atoms: C9_17  and  O2_18 
REMARK    6  A    between atoms: C10_20  and  N4_21 
REMARK    7  A    between atoms: N4_21  and  C11_23 
REMARK    8  A    between atoms: C11_23  and  N5_25 
REMARK    9  A    between atoms: N5_25  and  C12_27 
REMARK   10  A    between atoms: C15_32  and  O3_33 
ROOT
HETATM    1  C3  UNL     1      -1.116  20.623  16.597  1.00  0.00     0.159 C 
HETATM    2  N1  UNL     1      -0.660  20.868  17.916  1.00  0.00    -0.348 N 
ATOM      3  H1  UNL     1      -0.994  21.712  18.382  1.00  0.00     0.163 HD
HETATM    4  C4  UNL     1       0.215  20.038  18.628  1.00  0.00     0.235 C 
HETATM    5  O1  UNL     1      -0.016  19.794  19.864  1.00  0.00    -0.272 OA
HETATM    6  C5  UNL     1       1.423  19.394  18.065  1.00  0.00     0.224 C 
HETATM    7  N2  UNL     1       1.464  18.057  18.617  1.00  0.00    -0.366 N 
ATOM      8  H2  UNL     1       2.329  17.732  19.048  1.00  0.00     0.161 HD
HETATM    9  C6  UNL     1       0.359  17.190  18.580  1.00  0.00     0.122 C 
HETATM   10  N3  UNL     1       0.182  16.422  19.602  1.00  0.00    -0.384 N 
ATOM     11  H31 UNL     1      -0.620  15.792  19.576  1.00  0.00     0.157 HD
ATOM     12  H32 UNL     1       0.836  16.503  20.381  1.00  0.00     0.157 HD
HETATM   13  C7  UNL     1      -0.573  17.074  17.471  1.00  0.00     0.083 C 
HETATM   14  N6  UNL     1      -0.623  18.049  16.463  1.00  0.00    -0.336 N 
ATOM     15  H6  UNL     1       0.032  17.807  15.718  1.00  0.00     0.168 HD
HETATM   16  C15 UNL     1      -1.268  19.231  16.150  1.00  0.00     0.139 C 
ENDROOT
BRANCH  13  17
HETATM   17  C8  UNL     1      -1.911  16.444  17.783  1.00  0.00    -0.009 C 
BRANCH  17  18
HETATM   18  C9  UNL     1      -2.453  15.511  16.765  1.00  0.00     0.202 C 
BRANCH  18  19
HETATM   19  O2  UNL     1      -2.559  16.028  15.479  1.00  0.00    -0.397 OA
ATOM     20  H2  UNL     1      -3.120  15.539  14.888  1.00  0.00     0.209 HD
ENDBRANCH  18  19
ENDBRANCH  17  18
BRANCH  17  21
HETATM   21  C10 UNL     1      -2.898  17.403  18.385  1.00  0.00     0.161 C 
BRANCH  21  22
HETATM   22  N4  UNL     1      -4.036  17.700  17.573  1.00  0.00    -0.363 N 
ATOM     23  H4  UNL     1      -4.353  17.051  16.852  1.00  0.00     0.162 HD
BRANCH  22  24
HETATM   24  C11 UNL     1      -4.713  18.933  17.803  1.00  0.00     0.168 C 
HETATM   25  S1  UNL     1      -4.110  19.947  18.935  1.00  0.00    -0.041 SA
BRANCH  24  26
HETATM   26  N5  UNL     1      -5.876  19.280  17.071  1.00  0.00    -0.363 N 
ATOM     27  H5  UNL     1      -5.928  19.112  16.066  1.00  0.00     0.162 HD
BRANCH  26  28
HETATM   28  C12 UNL     1      -6.992  19.879  17.781  1.00  0.00     0.075 C 
HETATM   29  C13 UNL     1      -7.876  20.670  16.839  1.00  0.00     0.032 C 
HETATM   30  C14 UNL     1      -7.806  18.752  18.372  1.00  0.00     0.032 C 
ENDBRANCH  26  28
ENDBRANCH  24  26
ENDBRANCH  22  24
ENDBRANCH  21  22
ENDBRANCH  17  21
ENDBRANCH  13  17
BRANCH  16  31
HETATM   31  O3  UNL     1      -2.234  19.130  15.256  1.00  0.00    -0.348 OA
ATOM     32  H3  UNL     1      -1.887  18.851  14.416  1.00  0.00     0.219 HD
ENDBRANCH  16  31
BRANCH   1  33
HETATM   33  C2  UNL     1      -0.321  21.444  15.560  1.00  0.00     0.029 C 
HETATM   34  C1  UNL     1       0.015  22.805  16.105  1.00  0.00     0.007 C 
ENDBRANCH   1  33
TORSDOF 10
ENDMDL
MODEL 3
REMARK VINA RESULT: -5.559094158      3.221      6.007
REMARK  10 active torsions:
REMARK  status: ('A' for Active; 'I' for Inactive)
REMARK    1  A    between atoms: C2_2  and  C3_3 
REMARK    2  A    between atoms: C7_15  and  C8_16 
REMARK    3  A    between atoms: C8_16  and  C9_17 
REMARK    4  A    between atoms: C8_16  and  C10_20 
REMARK    5  A    between atoms: C9_17  and  O2_18 
REMARK    6  A    between atoms: C10_20  and  N4_21 
REMARK    7  A    between atoms: N4_21  and  C11_23 
REMARK    8  A    between atoms: C11_23  and  N5_25 
REMARK    9  A    between atoms: N5_25  and  C12_27 
REMARK   10  A    between atoms: C15_32  and  O3_33 
ROOT
HETATM    1  C3  UNL     1      -0.830  20.490  16.717  1.00  0.00     0.159 C 
HETATM    2  N1  UNL     1      -0.415  20.701  18.056  1.00  0.00    -0.348 N 
ATOM      3  H1  UNL     1      -0.700  21.571  18.507  1.00  0.00     0.163 HD
HETATM    4  C4  UNL     1       0.356  19.804  18.805  1.00  0.00     0.235 C 
HETATM    5  O1  UNL     1       0.051  19.583  20.030  1.00  0.00    -0.272 OA
HETATM    6  C5  UNL     1       1.531  19.062  18.297  1.00  0.00     0.224 C 
HETATM    7  N2  UNL     1       1.438  17.727  18.848  1.00  0.00    -0.366 N 
ATOM      8  H2  UNL     1       2.253  17.333  19.318  1.00  0.00     0.161 HD
HETATM    9  C6  UNL     1       0.268  16.953  18.761  1.00  0.00     0.122 C 
HETATM   10  N3  UNL     1      -0.016  16.205  19.774  1.00  0.00    -0.384 N 
ATOM     11  H31 UNL     1      -0.866  15.644  19.711  1.00  0.00     0.157 HD
ATOM     12  H32 UNL     1       0.607  16.234  20.581  1.00  0.00     0.157 HD
HETATM   13  C7  UNL     1      -0.620  16.912  17.611  1.00  0.00     0.083 C 
HETATM   14  N6  UNL     1      -0.544  17.885  16.603  1.00  0.00    -0.336 N 
ATOM     15  H6  UNL     1       0.120  17.587  15.888  1.00  0.00     0.168 HD
HETATM   16  C15 UNL     1      -1.076  19.114  16.262  1.00  0.00     0.139 C 
ENDROOT
BRANCH  13  17
HETATM   17  C8  UNL     1      -2.017  16.393  17.863  1.00  0.00    -0.009 C 
BRANCH  17  18
HETATM   18  C9  UNL     1      -2.561  15.450  16.856  1.00  0.00     0.202 C 
BRANCH  18  19
HETATM   19  O2  UNL     1      -2.582  15.920  15.548  1.00  0.00    -0.397 OA
ATOM     20  H2  UNL     1      -3.065  15.384  14.930  1.00  0.00     0.209 HD
ENDBRANCH  18  19
ENDBRANCH  17  18
BRANCH  17  21
HETATM   21  C10 UNL     1      -2.968  17.450  18.351  1.00  0.00     0.161 C 
BRANCH  21  22
HETATM   22  N4  UNL     1      -4.079  17.717  17.495  1.00  0.00    -0.363 N 
ATOM     23  H4  UNL     1      -4.362  17.050  16.775  1.00  0.00     0.162 HD
BRANCH  22  24
HETATM   24  C11 UNL     1      -4.781  18.944  17.677  1.00  0.00     0.168 C 
HETATM   25  S1  UNL     1      -6.382  18.878  18.002  1.00  0.00    -0.041 SA
BRANCH  24  26
HETATM   26  N5  UNL     1      -4.115  20.192  17.585  1.00  0.00    -0.363 N 
ATOM     27  H5  UNL     1      -3.526  20.409  16.781  1.00  0.00     0.162 HD
BRANCH  26  28
HETATM   28  C12 UNL     1      -4.289  21.154  18.658  1.00  0.00     0.075 C 
HETATM   29  C13 UNL     1      -3.563  20.710  19.912  1.00  0.00     0.032 C 
HETATM   30  C14 UNL     1      -3.689  22.460  18.192  1.00  0.00     0.032 C 
ENDBRANCH  26  28
ENDBRANCH  24  26
ENDBRANCH  22  24
ENDBRANCH  21  22
ENDBRANCH  17  21
ENDBRANCH  13  17
BRANCH  16  31
HETATM   31  O3  UNL     1      -2.006  19.091  15.326  1.00  0.00    -0.348 OA
ATOM     32  H3  UNL     1      -1.934  18.302  14.801  1.00  0.00     0.219 HD
ENDBRANCH  16  31
BRANCH   1  33
HETATM   33  C2  UNL     1       0.075  21.241  15.717  1.00  0.00     0.029 C 
HETATM   34  C1  UNL     1      -0.628  22.453  15.172  1.00  0.00     0.007 C 
ENDBRANCH   1  33
TORSDOF 10
ENDMDL
MODEL 4
REMARK VINA RESULT: -5.471753133      3.079      6.024
REMARK  10 active torsions:
REMARK  status: ('A' for Active; 'I' for Inactive)
REMARK    1  A    between atoms: C2_2  and  C3_3 
REMARK    2  A    between atoms: C7_15  and  C8_16 
REMARK    3  A    between atoms: C8_16  and  C9_17 
REMARK    4  A    between atoms: C8_16  and  C10_20 
REMARK    5  A    between atoms: C9_17  and  O2_18 
REMARK    6  A    between atoms: C10_20  and  N4_21 
REMARK    7  A    between atoms: N4_21  and  C11_23 
REMARK    8  A    between atoms: C11_23  and  N5_25 
REMARK    9  A    between atoms: N5_25  and  C12_27 
REMARK   10  A    between atoms: C15_32  and  O3_33 
ROOT
HETATM    1  C3  UNL     1      -0.232  21.392  17.069  1.00  0.00     0.159 C 
HETATM    2  N1  UNL     1       0.045  21.332  18.457  1.00  0.00    -0.348 N 
ATOM      3  H1  UNL     1      -0.276  22.108  19.037  1.00  0.00     0.163 HD
HETATM    4  C4  UNL     1       0.727  20.287  19.093  1.00  0.00     0.235 C 
HETATM    5  O1  UNL     1       0.295  19.846  20.216  1.00  0.00    -0.272 OA
HETATM    6  C5  UNL     1       1.940  19.621  18.571  1.00  0.00     0.224 C 
HETATM    7  N2  UNL     1       1.779  18.209  18.843  1.00  0.00    -0.366 N 
ATOM      8  H2  UNL     1       2.537  17.710  19.307  1.00  0.00     0.161 HD
HETATM    9  C6  UNL     1       0.617  17.500  18.494  1.00  0.00     0.122 C 
HETATM   10  N3  UNL     1       0.222  16.582  19.311  1.00  0.00    -0.384 N 
ATOM     11  H31 UNL     1      -0.621  16.067  19.057  1.00  0.00     0.157 HD
ATOM     12  H32 UNL     1       0.759  16.439  20.166  1.00  0.00     0.157 HD
HETATM   13  C7  UNL     1      -0.149  17.704  17.275  1.00  0.00     0.083 C 
HETATM   14  N6  UNL     1       0.040  18.848  16.485  1.00  0.00    -0.336 N 
ATOM     15  H6  UNL     1       0.772  18.673  15.796  1.00  0.00     0.168 HD
HETATM   16  C15 UNL     1      -0.442  20.135  16.336  1.00  0.00     0.139 C 
ENDROOT
BRANCH  13  17
HETATM   17  C8  UNL     1      -1.569  17.188  17.283  1.00  0.00    -0.009 C 
BRANCH  17  18
HETATM   18  C9  UNL     1      -2.077  16.638  16.002  1.00  0.00     0.202 C 
BRANCH  18  19
HETATM   19  O2  UNL     1      -2.454  17.583  15.054  1.00  0.00    -0.397 OA
ATOM     20  H2  UNL     1      -2.429  18.486  15.347  1.00  0.00     0.209 HD
ENDBRANCH  18  19
ENDBRANCH  17  18
BRANCH  17  21
HETATM   21  C10 UNL     1      -2.521  18.069  18.041  1.00  0.00     0.161 C 
BRANCH  21  22
HETATM   22  N4  UNL     1      -3.908  17.805  17.820  1.00  0.00    -0.363 N 
ATOM     23  H4  UNL     1      -4.311  16.893  18.035  1.00  0.00     0.162 HD
BRANCH  22  24
HETATM   24  C11 UNL     1      -4.710  18.857  17.290  1.00  0.00     0.168 C 
HETATM   25  S1  UNL     1      -6.238  19.019  17.848  1.00  0.00    -0.041 SA
BRANCH  24  26
HETATM   26  N5  UNL     1      -4.202  19.747  16.310  1.00  0.00    -0.363 N 
ATOM     27  H5  UNL     1      -3.511  19.431  15.630  1.00  0.00     0.162 HD
BRANCH  26  28
HETATM   28  C12 UNL     1      -4.686  21.115  16.294  1.00  0.00     0.075 C 
HETATM   29  C13 UNL     1      -3.850  22.000  17.196  1.00  0.00     0.032 C 
HETATM   30  C14 UNL     1      -4.563  21.619  14.876  1.00  0.00     0.032 C 
ENDBRANCH  26  28
ENDBRANCH  24  26
ENDBRANCH  22  24
ENDBRANCH  21  22
ENDBRANCH  17  21
ENDBRANCH  13  17
BRANCH  16  31
HETATM   31  O3  UNL     1      -1.271  20.317  15.325  1.00  0.00    -0.348 OA
ATOM     32  H3  UNL     1      -0.795  20.359  14.504  1.00  0.00     0.219 HD
ENDBRANCH  16  31
BRANCH   1  33
HETATM   33  C2  UNL     1       0.779  22.292  16.327  1.00  0.00     0.029 C 
HETATM   34  C1  UNL     1       1.136  23.490  17.163  1.00  0.00     0.007 C 
ENDBRANCH   1  33
TORSDOF 10
ENDMDL
MODEL 5
REMARK VINA RESULT: -5.399514216      3.034      4.284
REMARK  10 active torsions:
REMARK  status: ('A' for Active; 'I' for Inactive)
REMARK    1  A    between atoms: C2_2  and  C3_3 
REMARK    2  A    between atoms: C7_15  and  C8_16 
REMARK    3  A    between atoms: C8_16  and  C9_17 
REMARK    4  A    between atoms: C8_16  and  C10_20 
REMARK    5  A    between atoms: C9_17  and  O2_18 
REMARK    6  A    between atoms: C10_20  and  N4_21 
REMARK    7  A    between atoms: N4_21  and  C11_23 
REMARK    8  A    between atoms: C11_23  and  N5_25 
REMARK    9  A    between atoms: N5_25  and  C12_27 
REMARK   10  A    between atoms: C15_32  and  O3_33 
ROOT
HETATM    1  C3  UNL     1      -0.698  16.498  19.039  1.00  0.00     0.159 C 
HETATM    2  N1  UNL     1      -2.114  16.524  19.001  1.00  0.00    -0.348 N 
ATOM      3  H1  UNL     1      -2.615  16.252  19.847  1.00  0.00     0.163 HD
HETATM    4  C4  UNL     1      -2.878  16.897  17.888  1.00  0.00     0.235 C 
HETATM    5  O1  UNL     1      -3.904  17.647  18.051  1.00  0.00    -0.272 OA
HETATM    6  C5  UNL     1      -2.602  16.490  16.492  1.00  0.00     0.224 C 
HETATM    7  N2  UNL     1      -2.853  17.656  15.672  1.00  0.00    -0.366 N 
ATOM      8  H2  UNL     1      -3.457  17.560  14.856  1.00  0.00     0.161 HD
HETATM    9  C6  UNL     1      -2.297  18.914  15.957  1.00  0.00     0.122 C 
HETATM   10  N3  UNL     1      -3.033  19.948  15.721  1.00  0.00    -0.384 N 
ATOM     11  H31 UNL     1      -2.629  20.861  15.928  1.00  0.00     0.157 HD
ATOM     12  H32 UNL     1      -3.976  19.792  15.364  1.00  0.00     0.157 HD
HETATM   13  C7  UNL     1      -0.953  19.136  16.466  1.00  0.00     0.083 C 
HETATM   14  N6  UNL     1      -0.202  18.082  17.008  1.00  0.00    -0.336 N 
ATOM     15  H6  UNL     1       0.334  17.627  16.268  1.00  0.00     0.168 HD
HETATM   16  C15 UNL     1       0.049  17.460  18.216  1.00  0.00     0.139 C 
ENDROOT
BRANCH  13  17
HETATM   17  C8  UNL     1      -0.697  20.475  17.119  1.00  0.00    -0.009 C 
BRANCH  17  18
HETATM   18  C9  UNL     1       0.620  21.100  16.844  1.00  0.00     0.202 C 
BRANCH  18  19
HETATM   19  O2  UNL     1       1.722  20.413  17.342  1.00  0.00    -0.397 OA
ATOM     20  H2  UNL     1       1.598  19.481  17.469  1.00  0.00     0.209 HD
ENDBRANCH  18  19
ENDBRANCH  17  18
BRANCH  17  21
HETATM   21  C10 UNL     1      -1.172  20.546  18.542  1.00  0.00     0.161 C 
BRANCH  21  22
HETATM   22  N4  UNL     1      -0.510  21.511  19.361  1.00  0.00    -0.363 N 
ATOM     23  H4  UNL     1      -0.558  22.508  19.145  1.00  0.00     0.162 HD
BRANCH  22  24
HETATM   24  C11 UNL     1       0.221  21.038  20.489  1.00  0.00     0.168 C 
HETATM   25  S1  UNL     1      -0.379  21.339  21.980  1.00  0.00    -0.041 SA
BRANCH  24  26
HETATM   26  N5  UNL     1       1.433  20.321  20.332  1.00  0.00    -0.363 N 
ATOM     27  H5  UNL     1       1.437  19.392  19.911  1.00  0.00     0.162 HD
BRANCH  26  28
HETATM   28  C12 UNL     1       2.669  20.935  20.783  1.00  0.00     0.075 C 
HETATM   29  C13 UNL     1       3.872  20.122  20.352  1.00  0.00     0.032 C 
HETATM   30  C14 UNL     1       2.754  22.299  20.138  1.00  0.00     0.032 C 
ENDBRANCH  26  28
ENDBRANCH  24  26
ENDBRANCH  22  24
ENDBRANCH  21  22
ENDBRANCH  17  21
ENDBRANCH  13  17
BRANCH  16  31
HETATM   31  O3  UNL     1       1.200  17.766  18.784  1.00  0.00    -0.348 OA
ATOM     32  H3  UNL     1       1.488  18.631  18.516  1.00  0.00     0.219 HD
ENDBRANCH  16  31
BRANCH   1  33
HETATM   33  C2  UNL     1      -0.152  15.068  18.837  1.00  0.00     0.029 C 
HETATM   34  C1  UNL     1      -1.146  14.047  19.317  1.00  0.00     0.007 C 
ENDBRANCH   1  33
TORSDOF 10
ENDMDL
