MODEL 1
REMARK VINA RESULT: -6.349851745      0.000      0.000
REMARK  7 active torsions:
REMARK  status: ('A' for Active; 'I' for Inactive)
REMARK    1  A    between atoms: N1_2  and  C4_5 
REMARK    2  A    between atoms: C4_5  and  C5_6 
REMARK    3  A    between atoms: C5_6  and  C6_7 
REMARK    4  A    between atoms: C6_7  and  N2_8 
REMARK       I    between atoms: N2_8  and  C7_10 
REMARK       I    between atoms: C7_10  and  N3_12 
REMARK    5  A    between atoms: C9_15  and  N4_16 
REMARK       I    between atoms: N4_16  and  C10_18 
REMARK    6  A    between atoms: C12_24  and  N7_25 
REMARK       I    between atoms: N7_25  and  C13_27 
REMARK       I    between atoms: C13_27  and  N9_31 
REMARK    7  A    between atoms: N9_31  and  C14_33 
ROOT
HETATM    1  N2  UNL     1      -2.913  18.102  17.299  1.00  0.00    -0.343 N 
ATOM      2  H2  UNL     1      -2.857  17.217  17.802  1.00  0.00     0.164 HD
HETATM    3  C7  UNL     1      -1.800  18.947  17.308  1.00  0.00     0.326 C 
HETATM    4  O1  UNL     1      -1.826  20.042  16.698  1.00  0.00    -0.247 OA
HETATM    5  N3  UNL     1      -0.587  18.632  17.996  1.00  0.00    -0.245 N 
HETATM    6  C8  UNL     1       0.582  19.457  18.081  1.00  0.00     0.252 C 
HETATM    7  O2  UNL     1       0.754  20.498  17.400  1.00  0.00    -0.270 OA
HETATM    8  C9  UNL     1       1.524  18.902  19.068  1.00  0.00     0.180 C 
HETATM    9  C11 UNL     1       1.046  17.502  19.277  1.00  0.00     0.083 C 
HETATM   10  C12 UNL     1      -0.364  17.425  18.737  1.00  0.00     0.216 C 
ENDROOT
BRANCH  10  11
HETATM   11  N7  UNL     1      -0.492  16.230  17.967  1.00  0.00    -0.205 N 
HETATM   12  C13 UNL     1      -1.193  15.113  18.469  1.00  0.00     0.670 C 
HETATM   13  N8  UNL     1      -1.506  14.977  19.703  1.00  0.00    -0.235 N 
HETATM   14  N9  UNL     1      -1.562  14.086  17.561  1.00  0.00    -0.196 N 
ATOM     15  H82 UNL     1      -1.241  15.715  20.356  1.00  0.00     0.174 HD
ATOM     16  H81 UNL     1      -2.013  14.170  20.066  1.00  0.00     0.174 HD
ATOM     17  H9  UNL     1      -1.170  13.155  17.708  1.00  0.00     0.180 HD
ATOM     18  H7  UNL     1      -0.071  16.183  17.039  1.00  0.00     0.179 HD
BRANCH  14  19
HETATM   19  C14 UNL     1      -2.442  14.274  16.460  1.00  0.00     0.325 A 
HETATM   20  C15 UNL     1      -2.004  14.809  15.168  1.00  0.00     0.289 A 
HETATM   21  N10 UNL     1      -2.451  13.431  15.306  1.00  0.00    -0.049 N 
ATOM     22 2H10 UNL     1      -2.043  12.523  15.082  1.00  0.00     0.279 HD
ATOM     23 1H10 UNL     1      -3.159  12.862  14.844  1.00  0.00     0.279 HD
ENDBRANCH  14  19
ENDBRANCH  10  11
BRANCH   8  24
HETATM   24  N4  UNL     1       1.522  19.690  20.274  1.00  0.00    -0.351 N 
HETATM   25  C10 UNL     1       2.663  20.466  20.634  1.00  0.00     0.182 C 
HETATM   26  N5  UNL     1       3.863  20.076  20.374  1.00  0.00    -0.374 N 
HETATM   27  N6  UNL     1       2.494  21.707  21.297  1.00  0.00    -0.064 NA
ATOM     28  H52 UNL     1       3.985  19.183  19.896  1.00  0.00     0.158 HD
ATOM     29  H51 UNL     1       4.679  20.631  20.631  1.00  0.00     0.158 HD
ATOM     30  H4  UNL     1       0.698  19.693  20.876  1.00  0.00     0.163 HD
ENDBRANCH   8  24
BRANCH   1  31
HETATM   31  C6  UNL     1      -4.125  18.425  16.617  1.00  0.00     0.126 C 
BRANCH  31  32
HETATM   32  C5  UNL     1      -5.213  18.861  17.543  1.00  0.00     0.048 C 
BRANCH  32  33
HETATM   33  C4  UNL     1      -5.962  20.073  17.001  1.00  0.00     0.237 C 
BRANCH  33  34
HETATM   34  N1  UNL     1      -7.362  19.753  16.986  1.00  0.00    -0.079 N 
HETATM   35  C1  UNL     1      -8.200  20.919  17.206  1.00  0.00     0.271 C 
HETATM   36  C2  UNL     1      -7.696  19.140  15.735  1.00  0.00     0.271 C 
HETATM   37  C3  UNL     1      -7.605  18.838  18.092  1.00  0.00     0.271 C 
ENDBRANCH  33  34
ENDBRANCH  32  33
ENDBRANCH  31  32
ENDBRANCH   1  31
TORSDOF 7
ENDMDL
MODEL 2
REMARK VINA RESULT: -6.215235329      3.403      8.121
REMARK  7 active torsions:
REMARK  status: ('A' for Active; 'I' for Inactive)
REMARK    1  A    between atoms: N1_2  and  C4_5 
REMARK    2  A    between atoms: C4_5  and  C5_6 
REMARK    3  A    between atoms: C5_6  and  C6_7 
REMARK    4  A    between atoms: C6_7  and  N2_8 
REMARK       I    between atoms: N2_8  and  C7_10 
REMARK       I    between atoms: C7_10  and  N3_12 
REMARK    5  A    between atoms: C9_15  and  N4_16 
REMARK       I    between atoms: N4_16  and  C10_18 
REMARK    6  A    between atoms: C12_24  and  N7_25 
REMARK       I    between atoms: N7_25  and  C13_27 
REMARK       I    between atoms: C13_27  and  N9_31 
REMARK    7  A    between atoms: N9_31  and  C14_33 
ROOT
HETATM    1  N2  UNL     1       1.444  20.479  16.484  1.00  0.00    -0.343 N 
ATOM      2  H2  UNL     1       2.206  20.241  17.118  1.00  0.00     0.164 HD
HETATM    3  C7  UNL     1       0.240  19.779  16.592  1.00  0.00     0.326 C 
HETATM    4  O1  UNL     1      -0.723  20.045  15.835  1.00  0.00    -0.247 OA
HETATM    5  N3  UNL     1       0.028  18.735  17.546  1.00  0.00    -0.245 N 
HETATM    6  C8  UNL     1      -1.161  17.949  17.697  1.00  0.00     0.252 C 
HETATM    7  O2  UNL     1      -2.246  18.204  17.119  1.00  0.00    -0.270 OA
HETATM    8  C9  UNL     1      -0.912  16.825  18.616  1.00  0.00     0.180 C 
HETATM    9  C11 UNL     1       0.355  17.200  19.312  1.00  0.00     0.083 C 
HETATM   10  C12 UNL     1       1.003  18.298  18.502  1.00  0.00     0.216 C 
ENDROOT
BRANCH  10  11
HETATM   11  N7  UNL     1       1.453  19.319  19.393  1.00  0.00    -0.205 N 
HETATM   12  C13 UNL     1       2.813  19.424  19.752  1.00  0.00     0.670 C 
HETATM   13  N8  UNL     1       3.666  18.491  19.552  1.00  0.00    -0.235 N 
HETATM   14  N9  UNL     1       3.254  20.622  20.372  1.00  0.00    -0.196 N 
ATOM     15  H82 UNL     1       3.349  17.630  19.106  1.00  0.00     0.174 HD
ATOM     16  H81 UNL     1       4.650  18.567  19.811  1.00  0.00     0.174 HD
ATOM     17  H9  UNL     1       3.626  20.561  21.320  1.00  0.00     0.180 HD
ATOM     18  H7  UNL     1       0.779  19.982  19.776  1.00  0.00     0.179 HD
BRANCH  14  19
HETATM   19  C14 UNL     1       3.210  21.903  19.754  1.00  0.00     0.325 A 
HETATM   20  C15 UNL     1       4.363  22.806  19.703  1.00  0.00     0.289 A 
HETATM   21  N10 UNL     1       3.827  22.193  18.498  1.00  0.00    -0.049 N 
ATOM     22 2H10 UNL     1       4.224  21.624  17.750  1.00  0.00     0.279 HD
ATOM     23 1H10 UNL     1       3.491  22.551  17.605  1.00  0.00     0.279 HD
ENDBRANCH  14  19
ENDBRANCH  10  11
BRANCH   8  24
HETATM   24  N4  UNL     1      -0.815  15.584  17.889  1.00  0.00    -0.351 N 
HETATM   25  C10 UNL     1      -1.359  14.383  18.431  1.00  0.00     0.182 C 
HETATM   26  N5  UNL     1      -1.355  14.144  19.698  1.00  0.00    -0.374 N 
HETATM   27  N6  UNL     1      -1.924  13.409  17.570  1.00  0.00    -0.064 NA
ATOM     28  H52 UNL     1      -0.949  14.844  20.318  1.00  0.00     0.158 HD
ATOM     29  H51 UNL     1      -1.744  13.284  20.086  1.00  0.00     0.158 HD
ATOM     30  H4  UNL     1      -0.355  15.565  16.979  1.00  0.00     0.163 HD
ENDBRANCH   8  24
BRANCH   1  31
HETATM   31  C6  UNL     1       1.653  21.515  15.523  1.00  0.00     0.126 C 
BRANCH  31  32
HETATM   32  C5  UNL     1       2.574  21.106  14.421  1.00  0.00     0.048 C 
BRANCH  32  33
HETATM   33  C4  UNL     1       3.817  20.404  14.957  1.00  0.00     0.237 C 
BRANCH  33  34
HETATM   34  N1  UNL     1       4.958  20.955  14.281  1.00  0.00    -0.079 N 
HETATM   35  C1  UNL     1       6.113  20.077  14.337  1.00  0.00     0.271 C 
HETATM   36  C2  UNL     1       4.616  21.228  12.916  1.00  0.00     0.271 C 
HETATM   37  C3  UNL     1       5.319  22.181  14.979  1.00  0.00     0.271 C 
ENDBRANCH  33  34
ENDBRANCH  32  33
ENDBRANCH  31  32
ENDBRANCH   1  31
TORSDOF 7
ENDMDL
MODEL 3
REMARK VINA RESULT: -6.079335440      3.025      7.699
REMARK  7 active torsions:
REMARK  status: ('A' for Active; 'I' for Inactive)
REMARK    1  A    between atoms: N1_2  and  C4_5 
REMARK    2  A    between atoms: C4_5  and  C5_6 
REMARK    3  A    between atoms: C5_6  and  C6_7 
REMARK    4  A    between atoms: C6_7  and  N2_8 
REMARK       I    between atoms: N2_8  and  C7_10 
REMARK       I    between atoms: C7_10  and  N3_12 
REMARK    5  A    between atoms: C9_15  and  N4_16 
REMARK       I    between atoms: N4_16  and  C10_18 
REMARK    6  A    between atoms: C12_24  and  N7_25 
REMARK       I    between atoms: N7_25  and  C13_27 
REMARK       I    between atoms: C13_27  and  N9_31 
REMARK    7  A    between atoms: N9_31  and  C14_33 
ROOT
HETATM    1  N2  UNL     1       0.338  20.795  16.670  1.00  0.00    -0.343 N 
ATOM      2  H2  UNL     1       1.044  20.400  17.290  1.00  0.00     0.164 HD
HETATM    3  C7  UNL     1      -0.783  20.024  16.355  1.00  0.00     0.326 C 
HETATM    4  O1  UNL     1      -1.676  20.475  15.600  1.00  0.00    -0.247 OA
HETATM    5  N3  UNL     1      -0.985  18.700  16.856  1.00  0.00    -0.245 N 
HETATM    6  C8  UNL     1      -2.088  17.835  16.554  1.00  0.00     0.252 C 
HETATM    7  O2  UNL     1      -3.121  18.205  15.943  1.00  0.00    -0.270 OA
HETATM    8  C9  UNL     1      -1.822  16.478  17.063  1.00  0.00     0.180 C 
HETATM    9  C11 UNL     1      -0.694  16.667  18.025  1.00  0.00     0.083 C 
HETATM   10  C12 UNL     1      -0.084  18.020  17.739  1.00  0.00     0.216 C 
ENDROOT
BRANCH  10  11
HETATM   11  N7  UNL     1       0.141  18.689  18.980  1.00  0.00    -0.205 N 
HETATM   12  C13 UNL     1       1.444  18.834  19.503  1.00  0.00     0.670 C 
HETATM   13  N8  UNL     1       2.448  18.161  19.081  1.00  0.00    -0.235 N 
HETATM   14  N9  UNL     1       1.647  19.765  20.555  1.00  0.00    -0.196 N 
ATOM     15  H82 UNL     1       2.302  17.491  18.325  1.00  0.00     0.174 HD
ATOM     16  H81 UNL     1       3.390  18.265  19.459  1.00  0.00     0.174 HD
ATOM     17  H9  UNL     1       1.970  19.408  21.454  1.00  0.00     0.180 HD
ATOM     18  H7  UNL     1      -0.652  19.070  19.496  1.00  0.00     0.179 HD
BRANCH  14  19
HETATM   19  C14 UNL     1       1.429  21.166  20.432  1.00  0.00     0.325 A 
HETATM   20  C15 UNL     1       2.343  22.168  20.984  1.00  0.00     0.289 A 
HETATM   21  N10 UNL     1       2.175  22.005  19.549  1.00  0.00    -0.049 N 
ATOM     22 2H10 UNL     1       2.813  21.834  18.771  1.00  0.00     0.279 HD
ATOM     23 1H10 UNL     1       1.930  22.632  18.783  1.00  0.00     0.279 HD
ENDBRANCH  14  19
ENDBRANCH  10  11
BRANCH   8  24
HETATM   24  N4  UNL     1      -1.502  15.581  15.981  1.00  0.00    -0.351 N 
HETATM   25  C10 UNL     1      -1.832  14.197  16.067  1.00  0.00     0.182 C 
HETATM   26  N5  UNL     1      -1.799  13.556  17.185  1.00  0.00    -0.374 N 
HETATM   27  N6  UNL     1      -2.210  13.486  14.901  1.00  0.00    -0.064 NA
ATOM     28  H52 UNL     1      -1.528  14.068  18.025  1.00  0.00     0.158 HD
ATOM     29  H51 UNL     1      -2.035  12.566  17.246  1.00  0.00     0.158 HD
ATOM     30  H4  UNL     1      -1.036  15.940  15.147  1.00  0.00     0.163 HD
ENDBRANCH   8  24
BRANCH   1  31
HETATM   31  C6  UNL     1       0.539  22.113  16.159  1.00  0.00     0.126 C 
BRANCH  31  32
HETATM   32  C5  UNL     1       1.979  22.433  15.930  1.00  0.00     0.048 C 
BRANCH  32  33
HETATM   33  C4  UNL     1       2.818  21.170  15.764  1.00  0.00     0.237 C 
BRANCH  33  34
HETATM   34  N1  UNL     1       3.599  21.316  14.567  1.00  0.00    -0.079 N 
HETATM   35  C1  UNL     1       4.796  20.493  14.583  1.00  0.00     0.271 C 
HETATM   36  C2  UNL     1       2.792  20.984  13.430  1.00  0.00     0.271 C 
HETATM   37  C3  UNL     1       4.034  22.704  14.505  1.00  0.00     0.271 C 
ENDBRANCH  33  34
ENDBRANCH  32  33
ENDBRANCH  31  32
ENDBRANCH   1  31
TORSDOF 7
ENDMDL
MODEL 4
REMARK VINA RESULT: -5.999317004      1.117      1.563
REMARK  7 active torsions:
REMARK  status: ('A' for Active; 'I' for Inactive)
REMARK    1  A    between atoms: N1_2  and  C4_5 
REMARK    2  A    between atoms: C4_5  and  C5_6 
REMARK    3  A    between atoms: C5_6  and  C6_7 
REMARK    4  A    between atoms: C6_7  and  N2_8 
REMARK       I    between atoms: N2_8  and  C7_10 
REMARK       I    between atoms: C7_10  and  N3_12 
REMARK    5  A    between atoms: C9_15  and  N4_16 
REMARK       I    between atoms: N4_16  and  C10_18 
REMARK    6  A    between atoms: C12_24  and  N7_25 
REMARK       I    between atoms: N7_25  and  C13_27 
REMARK       I    between atoms: C13_27  and  N9_31 
REMARK    7  A    between atoms: N9_31  and  C14_33 
ROOT
HETATM    1  N2  UNL     1      -2.830  18.030  17.137  1.00  0.00    -0.343 N 
ATOM      2  H2  UNL     1      -2.813  17.147  17.645  1.00  0.00     0.164 HD
HETATM    3  C7  UNL     1      -1.699  18.850  17.183  1.00  0.00     0.326 C 
HETATM    4  O1  UNL     1      -1.678  19.942  16.568  1.00  0.00    -0.247 OA
HETATM    5  N3  UNL     1      -0.520  18.513  17.919  1.00  0.00    -0.245 N 
HETATM    6  C8  UNL     1       0.663  19.312  18.043  1.00  0.00     0.252 C 
HETATM    7  O2  UNL     1       0.883  20.345  17.365  1.00  0.00    -0.270 OA
HETATM    8  C9  UNL     1       1.554  18.742  19.068  1.00  0.00     0.180 C 
HETATM    9  C11 UNL     1       1.037  17.354  19.266  1.00  0.00     0.083 C 
HETATM   10  C12 UNL     1      -0.352  17.306  18.673  1.00  0.00     0.216 C 
ENDROOT
BRANCH  10  11
HETATM   11  N7  UNL     1      -0.479  16.109  17.905  1.00  0.00    -0.205 N 
HETATM   12  C13 UNL     1      -1.184  14.994  18.406  1.00  0.00     0.670 C 
HETATM   13  N8  UNL     1      -1.503  14.861  19.638  1.00  0.00    -0.235 N 
HETATM   14  N9  UNL     1      -1.549  13.966  17.498  1.00  0.00    -0.196 N 
ATOM     15  H82 UNL     1      -1.241  15.600  20.291  1.00  0.00     0.174 HD
ATOM     16  H81 UNL     1      -2.013  14.055  20.000  1.00  0.00     0.174 HD
ATOM     17  H9  UNL     1      -1.160  13.035  17.648  1.00  0.00     0.180 HD
ATOM     18  H7  UNL     1      -0.052  16.059  16.979  1.00  0.00     0.179 HD
BRANCH  14  19
HETATM   19  C14 UNL     1      -2.423  14.153  16.391  1.00  0.00     0.325 A 
HETATM   20  C15 UNL     1      -1.985  14.719  15.113  1.00  0.00     0.289 A 
HETATM   21  N10 UNL     1      -2.403  13.330  15.223  1.00  0.00    -0.049 N 
ATOM     22 2H10 UNL     1      -1.973  12.435  14.989  1.00  0.00     0.279 HD
ATOM     23 1H10 UNL     1      -3.094  12.753  14.745  1.00  0.00     0.279 HD
ENDBRANCH  14  19
ENDBRANCH  10  11
BRANCH   8  24
HETATM   24  N4  UNL     1       1.525  19.537  20.270  1.00  0.00    -0.351 N 
HETATM   25  C10 UNL     1       2.627  20.375  20.611  1.00  0.00     0.182 C 
HETATM   26  N5  UNL     1       3.843  20.046  20.339  1.00  0.00    -0.374 N 
HETATM   27  N6  UNL     1       2.400  21.609  21.269  1.00  0.00    -0.064 NA
ATOM     28  H52 UNL     1       4.007  19.158  19.865  1.00  0.00     0.158 HD
ATOM     29  H51 UNL     1       4.631  20.646  20.583  1.00  0.00     0.158 HD
ATOM     30  H4  UNL     1       0.709  19.500  20.881  1.00  0.00     0.163 HD
ENDBRANCH   8  24
BRANCH   1  31
HETATM   31  C6  UNL     1      -4.007  18.377  16.408  1.00  0.00     0.126 C 
BRANCH  31  32
HETATM   32  C5  UNL     1      -4.998  19.131  17.232  1.00  0.00     0.048 C 
BRANCH  32  33
HETATM   33  C4  UNL     1      -5.203  20.549  16.710  1.00  0.00     0.237 C 
BRANCH  33  34
HETATM   34  N1  UNL     1      -5.022  21.453  17.811  1.00  0.00    -0.079 N 
HETATM   35  C1  UNL     1      -6.245  22.154  18.160  1.00  0.00     0.271 C 
HETATM   36  C2  UNL     1      -4.533  20.727  18.946  1.00  0.00     0.271 C 
HETATM   37  C3  UNL     1      -4.058  22.459  17.386  1.00  0.00     0.271 C 
ENDBRANCH  33  34
ENDBRANCH  32  33
ENDBRANCH  31  32
ENDBRANCH   1  31
TORSDOF 7
ENDMDL
MODEL 5
REMARK VINA RESULT: -5.984800058      1.036      1.237
REMARK  7 active torsions:
REMARK  status: ('A' for Active; 'I' for Inactive)
REMARK    1  A    between atoms: N1_2  and  C4_5 
REMARK    2  A    between atoms: C4_5  and  C5_6 
REMARK    3  A    between atoms: C5_6  and  C6_7 
REMARK    4  A    between atoms: C6_7  and  N2_8 
REMARK       I    between atoms: N2_8  and  C7_10 
REMARK       I    between atoms: C7_10  and  N3_12 
REMARK    5  A    between atoms: C9_15  and  N4_16 
REMARK       I    between atoms: N4_16  and  C10_18 
REMARK    6  A    between atoms: C12_24  and  N7_25 
REMARK       I    between atoms: N7_25  and  C13_27 
REMARK       I    between atoms: C13_27  and  N9_31 
REMARK    7  A    between atoms: N9_31  and  C14_33 
ROOT
HETATM    1  N2  UNL     1      -2.161  18.705  16.636  1.00  0.00    -0.343 N 
ATOM      2  H2  UNL     1      -2.314  17.824  17.126  1.00  0.00     0.164 HD
HETATM    3  C7  UNL     1      -0.971  19.399  16.864  1.00  0.00     0.326 C 
HETATM    4  O1  UNL     1      -0.742  20.483  16.277  1.00  0.00    -0.247 OA
HETATM    5  N3  UNL     1       0.043  18.937  17.761  1.00  0.00    -0.245 N 
HETATM    6  C8  UNL     1       1.271  19.606  18.073  1.00  0.00     0.252 C 
HETATM    7  O2  UNL     1       1.699  20.610  17.452  1.00  0.00    -0.270 OA
HETATM    8  C9  UNL     1       1.934  18.942  19.209  1.00  0.00     0.180 C 
HETATM    9  C11 UNL     1       1.250  17.618  19.305  1.00  0.00     0.083 C 
HETATM   10  C12 UNL     1      -0.032  17.718  18.511  1.00  0.00     0.216 C 
ENDROOT
BRANCH  10  11
HETATM   11  N7  UNL     1      -0.168  16.543  17.713  1.00  0.00    -0.205 N 
HETATM   12  C13 UNL     1      -1.127  15.556  18.026  1.00  0.00     0.670 C 
HETATM   13  N8  UNL     1      -1.727  15.494  19.156  1.00  0.00    -0.235 N 
HETATM   14  N9  UNL     1      -1.436  14.581  17.042  1.00  0.00    -0.196 N 
ATOM     15  H82 UNL     1      -1.504  16.195  19.863  1.00  0.00     0.174 HD
ATOM     16  H81 UNL     1      -2.420  14.781  19.382  1.00  0.00     0.174 HD
ATOM     17  H9  UNL     1      -1.236  13.605  17.257  1.00  0.00     0.180 HD
ATOM     18  H7  UNL     1       0.439  16.413  16.903  1.00  0.00     0.179 HD
BRANCH  14  19
HETATM   19  C14 UNL     1      -2.007  14.882  15.774  1.00  0.00     0.325 A 
HETATM   20  C15 UNL     1      -2.000  13.941  14.651  1.00  0.00     0.289 A 
HETATM   21  N10 UNL     1      -3.238  14.323  15.312  1.00  0.00    -0.049 N 
ATOM     22 2H10 UNL     1      -3.998  13.808  15.755  1.00  0.00     0.279 HD
ATOM     23 1H10 UNL     1      -4.124  14.715  14.994  1.00  0.00     0.279 HD
ENDBRANCH  14  19
ENDBRANCH  10  11
BRANCH   8  24
HETATM   24  N4  UNL     1       1.809  19.735  20.407  1.00  0.00    -0.351 N 
HETATM   25  C10 UNL     1       2.849  20.630  20.794  1.00  0.00     0.182 C 
HETATM   26  N5  UNL     1       4.091  20.367  20.578  1.00  0.00    -0.374 N 
HETATM   27  N6  UNL     1       2.527  21.851  21.439  1.00  0.00    -0.064 NA
ATOM     28  H52 UNL     1       4.323  19.488  20.114  1.00  0.00     0.158 HD
ATOM     29  H51 UNL     1       4.835  21.007  20.855  1.00  0.00     0.158 HD
ATOM     30  H4  UNL     1       0.970  19.655  20.981  1.00  0.00     0.163 HD
ENDBRANCH   8  24
BRANCH   1  31
HETATM   31  C6  UNL     1      -3.173  19.175  15.746  1.00  0.00     0.126 C 
BRANCH  31  32
HETATM   32  C5  UNL     1      -4.555  18.920  16.251  1.00  0.00     0.048 C 
BRANCH  32  33
HETATM   33  C4  UNL     1      -5.309  20.218  16.514  1.00  0.00     0.237 C 
BRANCH  33  34
HETATM   34  N1  UNL     1      -5.840  20.156  17.846  1.00  0.00    -0.079 N 
HETATM   35  C1  UNL     1      -6.808  21.207  18.108  1.00  0.00     0.271 C 
HETATM   36  C2  UNL     1      -6.443  18.873  18.058  1.00  0.00     0.271 C 
HETATM   37  C3  UNL     1      -4.728  20.362  18.762  1.00  0.00     0.271 C 
ENDBRANCH  33  34
ENDBRANCH  32  33
ENDBRANCH  31  32
ENDBRANCH   1  31
TORSDOF 7
ENDMDL
