MODEL 1
REMARK VINA RESULT: -7.845778017      0.000      0.000
REMARK  3 active torsions:
REMARK  status: ('A' for Active; 'I' for Inactive)
REMARK       I    between atoms: C3_3  and  N1_5 
REMARK    1  A    between atoms: N1_5  and  C4_7 
REMARK    2  A    between atoms: C12_15  and  N2_16 
REMARK       I    between atoms: N2_16  and  C13_18 
REMARK    3  A    between atoms: C13_18  and  C14_20 
ROOT
HETATM    1  C1  UNL     1      57.267  19.563  51.533  1.00  0.00     0.022 C 
HETATM    2  C2  UNL     1      57.050  18.560  52.170  1.00  0.00    -0.017 C 
HETATM    3  C3  UNL     1      56.795  17.354  52.926  1.00  0.00     0.295 C 
HETATM    4  O1  UNL     1      57.100  17.388  54.158  1.00  0.00    -0.258 OA
HETATM    5  N1  UNL     1      56.234  16.197  52.327  1.00  0.00    -0.345 N 
ATOM      6  H1  UNL     1      55.997  16.198  51.334  1.00  0.00     0.163 HD
ENDROOT
BRANCH   5   7
HETATM    7  C4  UNL     1      56.006  15.049  53.109  1.00  0.00     0.093 C 
HETATM    8  C5  UNL     1      57.263  14.196  53.332  1.00  0.00     0.010 C 
HETATM    9  C6  UNL     1      57.699  13.536  52.066  1.00  0.00     0.013 C 
HETATM   10  C11 UNL     1      56.626  13.150  54.261  1.00  0.00     0.014 C 
HETATM   11  C7  UNL     1      56.630  12.752  51.386  1.00  0.00     0.009 C 
HETATM   12  C8  UNL     1      55.439  13.677  51.158  1.00  0.00     0.014 C 
HETATM   13  C12 UNL     1      56.010  11.774  52.374  1.00  0.00     0.093 C 
HETATM   14  C9  UNL     1      55.074  14.016  52.585  1.00  0.00     0.015 C 
HETATM   15  C10 UNL     1      55.429  12.754  53.385  1.00  0.00     0.015 C 
BRANCH  13  16
HETATM   16  N2  UNL     1      55.045  10.904  51.800  1.00  0.00    -0.355 N 
HETATM   17  C13 UNL     1      55.267   9.500  51.716  1.00  0.00     0.225 C 
HETATM   18  O2  UNL     1      56.342   9.022  52.162  1.00  0.00    -0.273 OA
ATOM     19  H2  UNL     1      54.174  11.294  51.440  1.00  0.00     0.162 HD
BRANCH  17  20
HETATM   20  C14 UNL     1      54.290   8.566  51.128  1.00  0.00     0.030 C 
HETATM   21  C15 UNL     1      53.537   7.837  52.241  1.00  0.00     0.024 C 
HETATM   22  C16 UNL     1      53.230   9.296  50.318  1.00  0.00     0.024 C 
HETATM   23  C17 UNL     1      54.971   7.511  50.294  1.00  0.00     0.024 C 
ENDBRANCH  17  20
ENDBRANCH  13  16
ENDBRANCH   5   7
TORSDOF 3
ENDMDL
MODEL 2
REMARK VINA RESULT: -7.816103550      1.433      7.522
REMARK  3 active torsions:
REMARK  status: ('A' for Active; 'I' for Inactive)
REMARK       I    between atoms: C3_3  and  N1_5 
REMARK    1  A    between atoms: N1_5  and  C4_7 
REMARK    2  A    between atoms: C12_15  and  N2_16 
REMARK       I    between atoms: N2_16  and  C13_18 
REMARK    3  A    between atoms: C13_18  and  C14_20 
ROOT
HETATM    1  C1  UNL     1      55.246   7.253  51.178  1.00  0.00     0.022 C 
HETATM    2  C2  UNL     1      55.005   8.235  51.840  1.00  0.00    -0.017 C 
HETATM    3  C3  UNL     1      54.720   9.416  52.625  1.00  0.00     0.295 C 
HETATM    4  O1  UNL     1      53.608   9.428  53.238  1.00  0.00    -0.258 OA
HETATM    5  N1  UNL     1      55.631  10.499  52.708  1.00  0.00    -0.345 N 
ATOM      6  H1  UNL     1      56.519  10.462  52.206  1.00  0.00     0.163 HD
ENDROOT
BRANCH   5   7
HETATM    7  C4  UNL     1      55.304  11.625  53.487  1.00  0.00     0.093 C 
HETATM    8  C5  UNL     1      54.154  12.461  52.908  1.00  0.00     0.010 C 
HETATM    9  C6  UNL     1      54.569  13.156  51.653  1.00  0.00     0.013 C 
HETATM   10  C11 UNL     1      54.062  13.484  54.051  1.00  0.00     0.014 C 
HETATM   11  C7  UNL     1      55.812  13.968  51.786  1.00  0.00     0.009 C 
HETATM   12  C8  UNL     1      56.914  13.059  52.320  1.00  0.00     0.014 C 
HETATM   13  C12 UNL     1      55.671  14.921  52.965  1.00  0.00     0.093 C 
HETATM   14  C9  UNL     1      56.336  12.681  53.664  1.00  0.00     0.015 C 
HETATM   15  C10 UNL     1      55.534  13.915  54.102  1.00  0.00     0.015 C 
BRANCH  13  16
HETATM   16  N2  UNL     1      56.764  15.815  53.120  1.00  0.00    -0.355 N 
HETATM   17  C13 UNL     1      56.580  17.226  53.090  1.00  0.00     0.225 C 
HETATM   18  O2  UNL     1      55.422  17.689  52.923  1.00  0.00    -0.273 OA
ATOM     19  H2  UNL     1      57.701  15.437  53.256  1.00  0.00     0.162 HD
BRANCH  17  20
HETATM   20  C14 UNL     1      57.689  18.185  53.248  1.00  0.00     0.030 C 
HETATM   21  C15 UNL     1      57.234  19.363  54.109  1.00  0.00     0.024 C 
HETATM   22  C16 UNL     1      58.869  17.565  53.979  1.00  0.00     0.024 C 
HETATM   23  C17 UNL     1      58.117  18.752  51.919  1.00  0.00     0.024 C 
ENDBRANCH  17  20
ENDBRANCH  13  16
ENDBRANCH   5   7
TORSDOF 3
ENDMDL
MODEL 3
REMARK VINA RESULT: -7.794299203      1.676      7.516
REMARK  3 active torsions:
REMARK  status: ('A' for Active; 'I' for Inactive)
REMARK       I    between atoms: C3_3  and  N1_5 
REMARK    1  A    between atoms: N1_5  and  C4_7 
REMARK    2  A    between atoms: C12_15  and  N2_16 
REMARK       I    between atoms: N2_16  and  C13_18 
REMARK    3  A    between atoms: C13_18  and  C14_20 
ROOT
HETATM    1  C1  UNL     1      55.131   6.279  52.211  1.00  0.00     0.022 C 
HETATM    2  C2  UNL     1      54.824   7.442  52.104  1.00  0.00    -0.017 C 
HETATM    3  C3  UNL     1      54.466   8.837  51.974  1.00  0.00     0.295 C 
HETATM    4  O1  UNL     1      53.464   9.094  51.237  1.00  0.00    -0.258 OA
HETATM    5  N1  UNL     1      55.191   9.862  52.634  1.00  0.00    -0.345 N 
ATOM      6  H1  UNL     1      55.991   9.627  53.221  1.00  0.00     0.163 HD
ENDROOT
BRANCH   5   7
HETATM    7  C4  UNL     1      54.799  11.205  52.473  1.00  0.00     0.093 C 
HETATM    8  C5  UNL     1      55.264  11.828  51.149  1.00  0.00     0.010 C 
HETATM    9  C6  UNL     1      56.746  12.010  51.128  1.00  0.00     0.013 C 
HETATM   10  C11 UNL     1      54.583  13.194  51.327  1.00  0.00     0.014 C 
HETATM   11  C7  UNL     1      57.285  12.763  52.296  1.00  0.00     0.009 C 
HETATM   12  C8  UNL     1      56.821  12.058  53.566  1.00  0.00     0.014 C 
HETATM   13  C12 UNL     1      56.534  14.078  52.443  1.00  0.00     0.093 C 
HETATM   14  C9  UNL     1      55.323  12.209  53.436  1.00  0.00     0.015 C 
HETATM   15  C10 UNL     1      55.131  13.551  52.716  1.00  0.00     0.015 C 
BRANCH  13  16
HETATM   16  N2  UNL     1      57.039  14.921  53.469  1.00  0.00    -0.355 N 
HETATM   17  C13 UNL     1      57.010  16.340  53.347  1.00  0.00     0.225 C 
HETATM   18  O2  UNL     1      56.526  16.855  52.307  1.00  0.00    -0.273 OA
ATOM     19  H2  UNL     1      57.430  14.501  54.312  1.00  0.00     0.162 HD
BRANCH  17  20
HETATM   20  C14 UNL     1      57.524  17.247  54.390  1.00  0.00     0.030 C 
HETATM   21  C15 UNL     1      59.050  17.302  54.320  1.00  0.00     0.024 C 
HETATM   22  C16 UNL     1      57.045  18.674  54.179  1.00  0.00     0.024 C 
HETATM   23  C17 UNL     1      57.164  16.757  55.769  1.00  0.00     0.024 C 
ENDBRANCH  17  20
ENDBRANCH  13  16
ENDBRANCH   5   7
TORSDOF 3
ENDMDL
MODEL 4
REMARK VINA RESULT: -7.768056759      2.394      3.393
REMARK  3 active torsions:
REMARK  status: ('A' for Active; 'I' for Inactive)
REMARK       I    between atoms: C3_3  and  N1_5 
REMARK    1  A    between atoms: N1_5  and  C4_7 
REMARK    2  A    between atoms: C12_15  and  N2_16 
REMARK       I    between atoms: N2_16  and  C13_18 
REMARK    3  A    between atoms: C13_18  and  C14_20 
ROOT
HETATM    1  C1  UNL     1      58.189  22.095  52.253  1.00  0.00     0.022 C 
HETATM    2  C2  UNL     1      57.849  21.213  53.004  1.00  0.00    -0.017 C 
HETATM    3  C3  UNL     1      57.448  20.150  53.899  1.00  0.00     0.295 C 
HETATM    4  O1  UNL     1      57.338  20.461  55.126  1.00  0.00    -0.258 OA
HETATM    5  N1  UNL     1      57.189  18.836  53.435  1.00  0.00    -0.345 N 
ATOM      6  H1  UNL     1      57.284  18.614  52.444  1.00  0.00     0.163 HD
ENDROOT
BRANCH   5   7
HETATM    7  C4  UNL     1      56.801  17.838  54.350  1.00  0.00     0.093 C 
HETATM    8  C5  UNL     1      57.930  16.863  54.713  1.00  0.00     0.010 C 
HETATM    9  C6  UNL     1      58.287  15.993  53.553  1.00  0.00     0.013 C 
HETATM   10  C11 UNL     1      57.150  16.039  55.749  1.00  0.00     0.014 C 
HETATM   11  C7  UNL     1      57.129  15.275  52.949  1.00  0.00     0.009 C 
HETATM   12  C8  UNL     1      56.076  16.312  52.574  1.00  0.00     0.014 C 
HETATM   13  C12 UNL     1      56.374  14.524  54.036  1.00  0.00     0.093 C 
HETATM   14  C9  UNL     1      55.745  16.878  53.936  1.00  0.00     0.015 C 
HETATM   15  C10 UNL     1      55.919  15.694  54.898  1.00  0.00     0.015 C 
BRANCH  13  16
HETATM   16  N2  UNL     1      55.307  13.722  53.551  1.00  0.00    -0.355 N 
HETATM   17  C13 UNL     1      55.334  12.302  53.661  1.00  0.00     0.225 C 
HETATM   18  O2  UNL     1      56.327  11.749  54.200  1.00  0.00    -0.273 OA
ATOM     19  H2  UNL     1      54.503  14.173  53.114  1.00  0.00     0.162 HD
BRANCH  17  20
HETATM   20  C14 UNL     1      54.246  11.437  53.169  1.00  0.00     0.030 C 
HETATM   21  C15 UNL     1      53.842  11.866  51.758  1.00  0.00     0.024 C 
HETATM   22  C16 UNL     1      54.689   9.987  53.053  1.00  0.00     0.024 C 
HETATM   23  C17 UNL     1      53.017  11.556  54.033  1.00  0.00     0.024 C 
ENDBRANCH  17  20
ENDBRANCH  13  16
ENDBRANCH   5   7
TORSDOF 3
ENDMDL
MODEL 5
REMARK VINA RESULT: -7.628861504      1.166      7.440
REMARK  3 active torsions:
REMARK  status: ('A' for Active; 'I' for Inactive)
REMARK       I    between atoms: C3_3  and  N1_5 
REMARK    1  A    between atoms: N1_5  and  C4_7 
REMARK    2  A    between atoms: C12_15  and  N2_16 
REMARK       I    between atoms: N2_16  and  C13_18 
REMARK    3  A    between atoms: C13_18  and  C14_20 
ROOT
HETATM    1  C1  UNL     1      53.113   8.666  49.575  1.00  0.00     0.022 C 
HETATM    2  C2  UNL     1      53.934   9.171  50.302  1.00  0.00    -0.017 C 
HETATM    3  C3  UNL     1      54.912   9.783  51.175  1.00  0.00     0.295 C 
HETATM    4  O1  UNL     1      55.553   8.995  51.938  1.00  0.00    -0.258 OA
HETATM    5  N1  UNL     1      55.143  11.181  51.179  1.00  0.00    -0.345 N 
ATOM      6  H1  UNL     1      54.614  11.790  50.554  1.00  0.00     0.163 HD
ENDROOT
BRANCH   5   7
HETATM    7  C4  UNL     1      56.107  11.725  52.049  1.00  0.00     0.093 C 
HETATM    8  C5  UNL     1      55.589  11.955  53.476  1.00  0.00     0.010 C 
HETATM    9  C6  UNL     1      54.587  13.062  53.514  1.00  0.00     0.013 C 
HETATM   10  C11 UNL     1      56.912  12.443  54.088  1.00  0.00     0.014 C 
HETATM   11  C7  UNL     1      55.058  14.335  52.900  1.00  0.00     0.009 C 
HETATM   12  C8  UNL     1      55.511  14.032  51.476  1.00  0.00     0.014 C 
HETATM   13  C12 UNL     1      56.394  14.731  53.515  1.00  0.00     0.093 C 
HETATM   14  C9  UNL     1      56.649  13.075  51.743  1.00  0.00     0.015 C 
HETATM   15  C10 UNL     1      57.247  13.548  53.076  1.00  0.00     0.015 C 
BRANCH  13  16
HETATM   16  N2  UNL     1      56.885  15.987  53.071  1.00  0.00    -0.355 N 
HETATM   17  C13 UNL     1      57.455  16.926  53.977  1.00  0.00     0.225 C 
HETATM   18  O2  UNL     1      57.523  16.632  55.199  1.00  0.00    -0.273 OA
ATOM     19  H2  UNL     1      56.829  16.222  52.080  1.00  0.00     0.162 HD
BRANCH  17  20
HETATM   20  C14 UNL     1      57.975  18.239  53.554  1.00  0.00     0.030 C 
HETATM   21  C15 UNL     1      57.290  19.348  54.353  1.00  0.00     0.024 C 
HETATM   22  C16 UNL     1      59.462  18.374  53.844  1.00  0.00     0.024 C 
HETATM   23  C17 UNL     1      57.685  18.501  52.099  1.00  0.00     0.024 C 
ENDBRANCH  17  20
ENDBRANCH  13  16
ENDBRANCH   5   7
TORSDOF 3
ENDMDL
