MODEL 1
REMARK VINA RESULT: -8.180400889      0.000      0.000
REMARK  3 active torsions:
REMARK  status: ('A' for Active; 'I' for Inactive)
REMARK    1  A    between atoms: C3_3  and  C4_4 
REMARK    2  A    between atoms: C8_8  and  C9_9 
REMARK    3  A    between atoms: C12_12  and  C13_13 
REMARK       I    between atoms: C13_13  and  N1_15 
ROOT
HETATM    1  C1  UNL     1      56.095  17.035  57.757  1.00  0.00     0.112 C 
HETATM    2  C2  UNL     1      56.246  16.555  56.375  1.00  0.00    -0.106 C 
HETATM    3  C3  UNL     1      56.379  16.175  55.235  1.00  0.00    -0.072 C 
ENDROOT
BRANCH   3   4
HETATM    4  C4  UNL     1      56.550  15.708  53.888  1.00  0.00    -0.004 A 
HETATM    5  C5  UNL     1      57.326  16.214  52.944  1.00  0.00    -0.010 A 
HETATM    6  C6  UNL     1      57.221  15.444  51.694  1.00  0.00     0.034 A 
HETATM    7  C7  UNL     1      56.278  14.324  51.957  1.00  0.00     0.003 A 
HETATM    8  C8  UNL     1      56.974  12.977  51.893  1.00  0.00    -0.005 C 
HETATM    9  C17 UNL     1      55.826  14.516  53.361  1.00  0.00     0.036 A 
HETATM   10  C11 UNL     1      56.423  12.183  53.051  1.00  0.00     0.008 C 
HETATM   11  C12 UNL     1      54.955  11.910  53.049  1.00  0.00     0.083 C 
HETATM   12  C16 UNL     1      56.154  13.269  54.102  1.00  0.00     0.001 C 
HETATM   13  C15 UNL     1      54.920  12.453  54.487  1.00  0.00     0.020 C 
BRANCH   8  14
HETATM   14  C9  UNL     1      56.739  12.356  50.555  1.00  0.00     0.001 C 
HETATM   15  C10 UNL     1      57.705  11.219  50.363  1.00  0.00     0.005 C 
ENDBRANCH   8  14
BRANCH  11  16
HETATM   16  C13 UNL     1      54.560  10.489  53.097  1.00  0.00     0.228 C 
HETATM   17  O1  UNL     1      53.698  10.074  53.892  1.00  0.00    -0.273 OA
HETATM   18  N1  UNL     1      55.161   9.552  52.223  1.00  0.00    -0.303 N 
HETATM   19  C14 UNL     1      54.670   8.386  51.998  1.00  0.00     0.203 C 
ATOM     20  H1  UNL     1      56.026   9.815  51.749  1.00  0.00     0.171 HD
HETATM   21  N2  UNL     1      53.471   7.937  52.612  1.00  0.00    -0.066 NA
HETATM   22  N3  UNL     1      55.346   7.518  51.106  1.00  0.00    -0.066 NA
ENDBRANCH  11  16
ENDBRANCH   3   4
TORSDOF 3
ENDMDL
MODEL 2
REMARK VINA RESULT: -7.986956285      1.133      1.305
REMARK  3 active torsions:
REMARK  status: ('A' for Active; 'I' for Inactive)
REMARK    1  A    between atoms: C3_3  and  C4_4 
REMARK    2  A    between atoms: C8_8  and  C9_9 
REMARK    3  A    between atoms: C12_12  and  C13_13 
REMARK       I    between atoms: C13_13  and  N1_15 
ROOT
HETATM    1  C1  UNL     1      56.091  16.675  58.765  1.00  0.00     0.112 C 
HETATM    2  C2  UNL     1      56.326  16.565  57.316  1.00  0.00    -0.106 C 
HETATM    3  C3  UNL     1      56.531  16.461  56.129  1.00  0.00    -0.072 C 
ENDROOT
BRANCH   3   4
HETATM    4  C4  UNL     1      56.754  16.330  54.717  1.00  0.00    -0.004 A 
HETATM    5  C5  UNL     1      57.645  16.963  53.972  1.00  0.00    -0.010 A 
HETATM    6  C6  UNL     1      57.555  16.549  52.563  1.00  0.00     0.034 A 
HETATM    7  C7  UNL     1      56.487  15.518  52.484  1.00  0.00     0.003 A 
HETATM    8  C8  UNL     1      57.045  14.158  52.107  1.00  0.00    -0.005 C 
HETATM    9  C17 UNL     1      55.953  15.403  53.868  1.00  0.00     0.036 A 
HETATM   10  C11 UNL     1      56.332  13.169  52.994  1.00  0.00     0.008 C 
HETATM   11  C12 UNL     1      54.848  13.079  52.855  1.00  0.00     0.083 C 
HETATM   12  C16 UNL     1      56.097  13.980  54.276  1.00  0.00     0.001 C 
HETATM   13  C15 UNL     1      54.762  13.243  54.381  1.00  0.00     0.020 C 
BRANCH   8  14
HETATM   14  C9  UNL     1      56.848  13.926  50.645  1.00  0.00     0.001 C 
HETATM   15  C10 UNL     1      57.234  12.509  50.314  1.00  0.00     0.005 C 
ENDBRANCH   8  14
BRANCH  11  16
HETATM   16  C13 UNL     1      54.308  11.748  52.516  1.00  0.00     0.228 C 
HETATM   17  O1  UNL     1      53.124  11.590  52.168  1.00  0.00    -0.273 OA
HETATM   18  N1  UNL     1      55.138  10.604  52.580  1.00  0.00    -0.303 N 
HETATM   19  C14 UNL     1      54.836   9.485  52.024  1.00  0.00     0.203 C 
ATOM     20  H1  UNL     1      56.019  10.671  53.091  1.00  0.00     0.171 HD
HETATM   21  N2  UNL     1      53.632   9.302  51.294  1.00  0.00    -0.066 NA
HETATM   22  N3  UNL     1      55.734   8.396  52.145  1.00  0.00    -0.066 NA
ENDBRANCH  11  16
ENDBRANCH   3   4
TORSDOF 3
ENDMDL
MODEL 3
REMARK VINA RESULT: -7.760148145      1.541      2.055
REMARK  3 active torsions:
REMARK  status: ('A' for Active; 'I' for Inactive)
REMARK    1  A    between atoms: C3_3  and  C4_4 
REMARK    2  A    between atoms: C8_8  and  C9_9 
REMARK    3  A    between atoms: C12_12  and  C13_13 
REMARK       I    between atoms: C13_13  and  N1_15 
ROOT
HETATM    1  C1  UNL     1      56.095  16.662  58.902  1.00  0.00     0.112 C 
HETATM    2  C2  UNL     1      56.367  16.580  57.458  1.00  0.00    -0.106 C 
HETATM    3  C3  UNL     1      56.602  16.498  56.275  1.00  0.00    -0.072 C 
ENDROOT
BRANCH   3   4
HETATM    4  C4  UNL     1      56.860  16.395  54.866  1.00  0.00    -0.004 A 
HETATM    5  C5  UNL     1      57.817  16.986  54.169  1.00  0.00    -0.010 A 
HETATM    6  C6  UNL     1      57.742  16.623  52.745  1.00  0.00     0.034 A 
HETATM    7  C7  UNL     1      56.608  15.673  52.600  1.00  0.00     0.003 A 
HETATM    8  C8  UNL     1      57.081  14.289  52.196  1.00  0.00    -0.005 C 
HETATM    9  C17 UNL     1      56.024  15.554  53.964  1.00  0.00     0.036 A 
HETATM   10  C11 UNL     1      56.272  13.327  53.028  1.00  0.00     0.008 C 
HETATM   11  C12 UNL     1      54.791  13.347  52.843  1.00  0.00     0.083 C 
HETATM   12  C16 UNL     1      56.054  14.112  54.329  1.00  0.00     0.001 C 
HETATM   13  C15 UNL     1      54.668  13.470  54.370  1.00  0.00     0.020 C 
BRANCH   8  14
HETATM   14  C9  UNL     1      56.914  14.117  50.721  1.00  0.00     0.001 C 
HETATM   15  C10 UNL     1      57.331  12.722  50.338  1.00  0.00     0.005 C 
ENDBRANCH   8  14
BRANCH  11  16
HETATM   16  C13 UNL     1      54.169  12.069  52.444  1.00  0.00     0.228 C 
HETATM   17  O1  UNL     1      54.654  11.355  51.549  1.00  0.00    -0.273 OA
HETATM   18  N1  UNL     1      52.989  11.620  53.084  1.00  0.00    -0.303 N 
HETATM   19  C14 UNL     1      52.567  10.409  53.009  1.00  0.00     0.203 C 
ATOM     20  H1  UNL     1      52.448  12.290  53.631  1.00  0.00     0.171 HD
HETATM   21  N2  UNL     1      53.256   9.410  52.271  1.00  0.00    -0.066 NA
HETATM   22  N3  UNL     1      51.373  10.056  53.684  1.00  0.00    -0.066 NA
ENDBRANCH  11  16
ENDBRANCH   3   4
TORSDOF 3
ENDMDL
MODEL 4
REMARK VINA RESULT: -7.440145960      1.247      1.532
REMARK  3 active torsions:
REMARK  status: ('A' for Active; 'I' for Inactive)
REMARK    1  A    between atoms: C3_3  and  C4_4 
REMARK    2  A    between atoms: C8_8  and  C9_9 
REMARK    3  A    between atoms: C12_12  and  C13_13 
REMARK       I    between atoms: C13_13  and  N1_15 
ROOT
HETATM    1  C1  UNL     1      56.399  16.460  58.579  1.00  0.00     0.112 C 
HETATM    2  C2  UNL     1      56.409  16.395  57.109  1.00  0.00    -0.106 C 
HETATM    3  C3  UNL     1      56.403  16.329  55.902  1.00  0.00    -0.072 C 
ENDROOT
BRANCH   3   4
HETATM    4  C4  UNL     1      56.389  16.272  54.468  1.00  0.00    -0.004 A 
HETATM    5  C5  UNL     1      56.787  17.201  53.613  1.00  0.00    -0.010 A 
HETATM    6  C6  UNL     1      56.609  16.757  52.221  1.00  0.00     0.034 A 
HETATM    7  C7  UNL     1      56.060  15.377  52.275  1.00  0.00     0.003 A 
HETATM    8  C8  UNL     1      57.043  14.359  51.724  1.00  0.00    -0.005 C 
HETATM    9  C17 UNL     1      55.892  15.081  53.723  1.00  0.00     0.036 A 
HETATM   10  C11 UNL     1      56.976  13.183  52.665  1.00  0.00     0.008 C 
HETATM   11  C12 UNL     1      55.660  12.487  52.790  1.00  0.00     0.083 C 
HETATM   12  C16 UNL     1      56.677  13.851  54.014  1.00  0.00     0.001 C 
HETATM   13  C15 UNL     1      55.804  12.633  54.314  1.00  0.00     0.020 C 
BRANCH   8  14
HETATM   14  C9  UNL     1      56.685  14.036  50.310  1.00  0.00     0.001 C 
HETATM   15  C10 UNL     1      57.308  12.719  49.933  1.00  0.00     0.005 C 
ENDBRANCH   8  14
BRANCH  11  16
HETATM   16  C13 UNL     1      55.656  11.046  52.476  1.00  0.00     0.228 C 
HETATM   17  O1  UNL     1      56.671  10.463  52.054  1.00  0.00    -0.273 OA
HETATM   18  N1  UNL     1      54.478  10.281  52.652  1.00  0.00    -0.303 N 
HETATM   19  C14 UNL     1      54.474   8.996  52.690  1.00  0.00     0.203 C 
ATOM     20  H1  UNL     1      53.590  10.773  52.754  1.00  0.00     0.171 HD
HETATM   21  N2  UNL     1      55.661   8.230  52.558  1.00  0.00    -0.066 NA
HETATM   22  N3  UNL     1      53.242   8.321  52.870  1.00  0.00    -0.066 NA
ENDBRANCH  11  16
ENDBRANCH   3   4
TORSDOF 3
ENDMDL
MODEL 5
REMARK VINA RESULT: -7.235502857      1.288      1.371
REMARK  3 active torsions:
REMARK  status: ('A' for Active; 'I' for Inactive)
REMARK    1  A    between atoms: C3_3  and  C4_4 
REMARK    2  A    between atoms: C8_8  and  C9_9 
REMARK    3  A    between atoms: C12_12  and  C13_13 
REMARK       I    between atoms: C13_13  and  N1_15 
ROOT
HETATM    1  C1  UNL     1      56.091  17.014  57.846  1.00  0.00     0.112 C 
HETATM    2  C2  UNL     1      56.196  16.635  56.428  1.00  0.00    -0.106 C 
HETATM    3  C3  UNL     1      56.265  16.319  55.263  1.00  0.00    -0.072 C 
ENDROOT
BRANCH   3   4
HETATM    4  C4  UNL     1      56.350  15.965  53.874  1.00  0.00    -0.004 A 
HETATM    5  C5  UNL     1      56.816  16.697  52.875  1.00  0.00    -0.010 A 
HETATM    6  C6  UNL     1      56.731  15.973  51.597  1.00  0.00     0.034 A 
HETATM    7  C7  UNL     1      56.164  14.632  51.898  1.00  0.00     0.003 A 
HETATM    8  C8  UNL     1      57.170  13.525  51.640  1.00  0.00    -0.005 C 
HETATM    9  C17 UNL     1      55.892  14.643  53.360  1.00  0.00     0.036 A 
HETATM   10  C11 UNL     1      57.025  12.570  52.798  1.00  0.00     0.008 C 
HETATM   11  C12 UNL     1      55.697  11.912  52.973  1.00  0.00     0.083 C 
HETATM   12  C16 UNL     1      56.641  13.503  53.955  1.00  0.00     0.001 C 
HETATM   13  C15 UNL     1      55.735  12.372  54.439  1.00  0.00     0.020 C 
BRANCH   8  14
HETATM   14  C9  UNL     1      56.909  12.914  50.303  1.00  0.00     0.001 C 
HETATM   15  C10 UNL     1      57.606  11.582  50.225  1.00  0.00     0.005 C 
ENDBRANCH   8  14
BRANCH  11  16
HETATM   16  C13 UNL     1      55.698  10.436  52.965  1.00  0.00     0.228 C 
HETATM   17  O1  UNL     1      54.679   9.780  52.682  1.00  0.00    -0.273 OA
HETATM   18  N1  UNL     1      56.878   9.722  53.285  1.00  0.00    -0.303 N 
HETATM   19  C14 UNL     1      57.040   8.477  53.014  1.00  0.00     0.203 C 
ATOM     20  H1  UNL     1      57.635  10.221  53.753  1.00  0.00     0.171 HD
HETATM   21  N2  UNL     1      56.040   7.705  52.365  1.00  0.00    -0.066 NA
HETATM   22  N3  UNL     1      58.258   7.850  53.375  1.00  0.00    -0.066 NA
ENDBRANCH  11  16
ENDBRANCH   3   4
TORSDOF 3
ENDMDL
