MODEL 1
REMARK VINA RESULT: -7.230084450      0.000      0.000
REMARK  5 active torsions:
REMARK  status: ('A' for Active; 'I' for Inactive)
REMARK    1  A    between atoms: C2_2  and  N5_20 
REMARK    2  A    between atoms: N1_3  and  N2_5 
REMARK    3  A    between atoms: N2_5  and  C3_7 
REMARK    4  A    between atoms: C3_7  and  N3_9 
REMARK    5  A    between atoms: N3_9  and  N4_11 
ROOT
HETATM    1  C3  UNL     1      55.500  13.068  54.032  1.00  0.00     0.205 C 
HETATM    2  S1  UNL     1      53.921  12.776  54.089  1.00  0.00    -0.038 SA
ENDROOT
BRANCH   1   3
HETATM    3  N2  UNL     1      56.315  11.872  53.900  1.00  0.00    -0.274 N 
ATOM      4  H2  UNL     1      56.246  11.149  54.617  1.00  0.00     0.189 HD
BRANCH   3   5
HETATM    5  N1  UNL     1      57.178  11.678  52.842  1.00  0.00    -0.287 N 
HETATM    6  C2  UNL     1      56.889  11.080  51.748  1.00  0.00     0.089 C 
HETATM    7  C1  UNL     1      57.947  10.959  50.706  1.00  0.00     0.090 C 
ATOM      8  H1  UNL     1      58.125  12.042  52.939  1.00  0.00     0.188 HD
BRANCH   6   9
HETATM    9  N5  UNL     1      55.619  10.515  51.453  1.00  0.00    -0.379 N 
HETATM   10  C12 UNL     1      55.360   9.122  51.836  1.00  0.00     0.150 C 
HETATM   11  C13 UNL     1      54.563  11.246  50.788  1.00  0.00     0.150 C 
ENDBRANCH   6   9
ENDBRANCH   3   5
ENDBRANCH   1   3
BRANCH   1  12
HETATM   12  N3  UNL     1      56.130  14.273  54.211  1.00  0.00    -0.268 N 
ATOM     13  H3  UNL     1      56.613  14.289  55.111  1.00  0.00     0.190 HD
BRANCH  12  14
HETATM   14  N4  UNL     1      56.310  15.454  53.559  1.00  0.00    -0.263 N 
HETATM   15  C4  UNL     1      56.844  16.465  54.351  1.00  0.00     0.031 A 
HETATM   16  C5  UNL     1      57.079  16.192  55.813  1.00  0.00     0.070 C 
HETATM   17  C6  UNL     1      57.153  17.702  53.852  1.00  0.00     0.033 A 
HETATM   18  C7  UNL     1      56.948  18.008  52.530  1.00  0.00    -0.058 A 
HETATM   19  C8  UNL     1      57.269  19.340  51.962  1.00  0.00     0.048 C 
HETATM   20  C9  UNL     1      56.430  17.034  51.742  1.00  0.00     0.033 A 
HETATM   21  C10 UNL     1      56.128  15.779  52.283  1.00  0.00     0.031 A 
HETATM   22  C11 UNL     1      55.707  14.773  51.276  1.00  0.00     0.070 C 
ENDBRANCH  12  14
ENDBRANCH   1  12
TORSDOF 5
ENDMDL
MODEL 2
REMARK VINA RESULT: -7.116591271      2.727      4.668
REMARK  5 active torsions:
REMARK  status: ('A' for Active; 'I' for Inactive)
REMARK    1  A    between atoms: C2_2  and  N5_20 
REMARK    2  A    between atoms: N1_3  and  N2_5 
REMARK    3  A    between atoms: N2_5  and  C3_7 
REMARK    4  A    between atoms: C3_7  and  N3_9 
REMARK    5  A    between atoms: N3_9  and  N4_11 
ROOT
HETATM    1  C3  UNL     1      54.344  10.059  51.633  1.00  0.00     0.205 C 
HETATM    2  S1  UNL     1      53.603   9.334  52.860  1.00  0.00    -0.038 SA
ENDROOT
BRANCH   1   3
HETATM    3  N2  UNL     1      54.756   9.152  50.575  1.00  0.00    -0.274 N 
ATOM      4  H2  UNL     1      55.735   8.868  50.525  1.00  0.00     0.189 HD
BRANCH   3   5
HETATM    5  N1  UNL     1      53.874   8.660  49.636  1.00  0.00    -0.287 N 
HETATM    6  C2  UNL     1      53.651   7.423  49.402  1.00  0.00     0.089 C 
HETATM    7  C1  UNL     1      52.660   7.068  48.348  1.00  0.00     0.090 C 
ATOM      8  H1  UNL     1      53.355   9.341  49.082  1.00  0.00     0.188 HD
BRANCH   6   9
HETATM    9  N5  UNL     1      54.289   6.349  50.081  1.00  0.00    -0.379 N 
HETATM   10  C12 UNL     1      55.416   5.672  49.429  1.00  0.00     0.150 C 
HETATM   11  C13 UNL     1      53.880   5.887  51.389  1.00  0.00     0.150 C 
ENDBRANCH   6   9
ENDBRANCH   3   5
ENDBRANCH   1   3
BRANCH   1  12
HETATM   12  N3  UNL     1      54.717  11.377  51.547  1.00  0.00    -0.268 N 
ATOM     13  H3  UNL     1      54.487  11.750  50.626  1.00  0.00     0.190 HD
BRANCH  12  14
HETATM   14  N4  UNL     1      55.301  12.339  52.313  1.00  0.00    -0.263 N 
HETATM   15  C4  UNL     1      56.499  12.824  51.801  1.00  0.00     0.031 A 
HETATM   16  C5  UNL     1      57.055  12.202  50.547  1.00  0.00     0.070 C 
HETATM   17  C6  UNL     1      57.196  13.838  52.401  1.00  0.00     0.033 A 
HETATM   18  C7  UNL     1      56.741  14.432  53.551  1.00  0.00    -0.058 A 
HETATM   19  C8  UNL     1      57.476  15.529  54.226  1.00  0.00     0.048 C 
HETATM   20  C9  UNL     1      55.573  13.974  54.064  1.00  0.00     0.033 A 
HETATM   21  C10 UNL     1      54.883  12.936  53.424  1.00  0.00     0.031 A 
HETATM   22  C11 UNL     1      53.555  12.641  54.016  1.00  0.00     0.070 C 
ENDBRANCH  12  14
ENDBRANCH   1  12
TORSDOF 5
ENDMDL
MODEL 3
REMARK VINA RESULT: -6.885895916      2.864      4.757
REMARK  5 active torsions:
REMARK  status: ('A' for Active; 'I' for Inactive)
REMARK    1  A    between atoms: C2_2  and  N5_20 
REMARK    2  A    between atoms: N1_3  and  N2_5 
REMARK    3  A    between atoms: N2_5  and  C3_7 
REMARK    4  A    between atoms: C3_7  and  N3_9 
REMARK    5  A    between atoms: N3_9  and  N4_11 
ROOT
HETATM    1  C3  UNL     1      54.256   9.819  51.555  1.00  0.00     0.205 C 
HETATM    2  S1  UNL     1      53.800   8.943  52.822  1.00  0.00    -0.038 SA
ENDROOT
BRANCH   1   3
HETATM    3  N2  UNL     1      54.643   9.027  50.399  1.00  0.00    -0.274 N 
ATOM      4  H2  UNL     1      55.631   8.824  50.251  1.00  0.00     0.189 HD
BRANCH   3   5
HETATM    5  N1  UNL     1      53.721   8.539  49.496  1.00  0.00    -0.287 N 
HETATM    6  C2  UNL     1      53.504   7.302  49.251  1.00  0.00     0.089 C 
HETATM    7  C1  UNL     1      52.468   6.952  48.240  1.00  0.00     0.090 C 
ATOM      8  H1  UNL     1      53.167   9.222  48.980  1.00  0.00     0.188 HD
BRANCH   6   9
HETATM    9  N5  UNL     1      54.189   6.227  49.879  1.00  0.00    -0.379 N 
HETATM   10  C12 UNL     1      53.623   5.651  51.105  1.00  0.00     0.150 C 
HETATM   11  C13 UNL     1      55.422   5.668  49.370  1.00  0.00     0.150 C 
ENDBRANCH   6   9
ENDBRANCH   3   5
ENDBRANCH   1   3
BRANCH   1  12
HETATM   12  N3  UNL     1      54.427  11.179  51.502  1.00  0.00    -0.268 N 
ATOM     13  H3  UNL     1      53.773  11.592  50.836  1.00  0.00     0.190 HD
BRANCH  12  14
HETATM   14  N4  UNL     1      55.200  12.148  52.065  1.00  0.00    -0.263 N 
HETATM   15  C4  UNL     1      54.629  12.757  53.177  1.00  0.00     0.031 A 
HETATM   16  C5  UNL     1      53.233  12.363  53.581  1.00  0.00     0.070 C 
HETATM   17  C6  UNL     1      55.286  13.708  53.910  1.00  0.00     0.033 A 
HETATM   18  C7  UNL     1      56.555  14.113  53.579  1.00  0.00    -0.058 A 
HETATM   19  C8  UNL     1      57.289  15.144  54.351  1.00  0.00     0.048 C 
HETATM   20  C9  UNL     1      57.128  13.529  52.498  1.00  0.00     0.033 A 
HETATM   21  C10 UNL     1      56.430  12.557  51.771  1.00  0.00     0.031 A 
HETATM   22  C11 UNL     1      57.235  11.905  50.709  1.00  0.00     0.070 C 
ENDBRANCH  12  14
ENDBRANCH   1  12
TORSDOF 5
ENDMDL
MODEL 4
REMARK VINA RESULT: -6.882774838      1.656      2.349
REMARK  5 active torsions:
REMARK  status: ('A' for Active; 'I' for Inactive)
REMARK    1  A    between atoms: C2_2  and  N5_20 
REMARK    2  A    between atoms: N1_3  and  N2_5 
REMARK    3  A    between atoms: N2_5  and  C3_7 
REMARK    4  A    between atoms: C3_7  and  N3_9 
REMARK    5  A    between atoms: N3_9  and  N4_11 
ROOT
HETATM    1  C3  UNL     1      56.421  12.828  53.459  1.00  0.00     0.205 C 
HETATM    2  S1  UNL     1      57.396  12.344  52.278  1.00  0.00    -0.038 SA
ENDROOT
BRANCH   1   3
HETATM    3  N2  UNL     1      55.658  11.752  54.069  1.00  0.00    -0.274 N 
ATOM      4  H2  UNL     1      56.158  10.951  54.454  1.00  0.00     0.189 HD
BRANCH   3   5
HETATM    5  N1  UNL     1      54.281  11.774  54.146  1.00  0.00    -0.287 N 
HETATM    6  C2  UNL     1      53.485  11.082  53.423  1.00  0.00     0.089 C 
HETATM    7  C1  UNL     1      52.019  11.231  53.641  1.00  0.00     0.090 C 
ATOM      8  H1  UNL     1      53.862  12.395  54.839  1.00  0.00     0.188 HD
BRANCH   6   9
HETATM    9  N5  UNL     1      53.902  10.172  52.414  1.00  0.00    -0.379 N 
HETATM   10  C12 UNL     1      54.180  10.690  51.069  1.00  0.00     0.150 C 
HETATM   11  C13 UNL     1      54.067   8.755  52.646  1.00  0.00     0.150 C 
ENDBRANCH   6   9
ENDBRANCH   3   5
ENDBRANCH   1   3
BRANCH   1  12
HETATM   12  N3  UNL     1      56.160  14.117  53.847  1.00  0.00    -0.268 N 
ATOM     13  H3  UNL     1      55.725  14.127  54.770  1.00  0.00     0.190 HD
BRANCH  12  14
HETATM   14  N4  UNL     1      56.302  15.388  53.379  1.00  0.00    -0.263 N 
HETATM   15  C4  UNL     1      56.841  16.276  54.303  1.00  0.00     0.031 A 
HETATM   16  C5  UNL     1      57.121  15.788  55.699  1.00  0.00     0.070 C 
HETATM   17  C6  UNL     1      57.115  17.581  53.992  1.00  0.00     0.033 A 
HETATM   18  C7  UNL     1      56.868  18.081  52.738  1.00  0.00    -0.058 A 
HETATM   19  C8  UNL     1      57.151  19.491  52.373  1.00  0.00     0.048 C 
HETATM   20  C9  UNL     1      56.344  17.229  51.823  1.00  0.00     0.033 A 
HETATM   21  C10 UNL     1      56.078  15.900  52.173  1.00  0.00     0.031 A 
HETATM   22  C11 UNL     1      55.646  15.052  51.035  1.00  0.00     0.070 C 
ENDBRANCH  12  14
ENDBRANCH   1  12
TORSDOF 5
ENDMDL
MODEL 5
REMARK VINA RESULT: -6.878619006      1.659      3.012
REMARK  5 active torsions:
REMARK  status: ('A' for Active; 'I' for Inactive)
REMARK    1  A    between atoms: C2_2  and  N5_20 
REMARK    2  A    between atoms: N1_3  and  N2_5 
REMARK    3  A    between atoms: N2_5  and  C3_7 
REMARK    4  A    between atoms: C3_7  and  N3_9 
REMARK    5  A    between atoms: N3_9  and  N4_11 
ROOT
HETATM    1  C3  UNL     1      56.396  13.134  53.276  1.00  0.00     0.205 C 
HETATM    2  S1  UNL     1      57.436  12.600  52.174  1.00  0.00    -0.038 SA
ENDROOT
BRANCH   1   3
HETATM    3  N2  UNL     1      55.767  12.078  54.051  1.00  0.00    -0.274 N 
ATOM      4  H2  UNL     1      56.360  11.404  54.535  1.00  0.00     0.189 HD
BRANCH   3   5
HETATM    5  N1  UNL     1      54.397  11.954  54.157  1.00  0.00    -0.287 N 
HETATM    6  C2  UNL     1      53.657  11.226  53.409  1.00  0.00     0.089 C 
HETATM    7  C1  UNL     1      52.190  11.211  53.664  1.00  0.00     0.090 C 
ATOM      8  H1  UNL     1      53.935  12.489  54.893  1.00  0.00     0.188 HD
BRANCH   6   9
HETATM    9  N5  UNL     1      54.139  10.423  52.340  1.00  0.00    -0.379 N 
HETATM   10  C12 UNL     1      54.247  11.019  51.003  1.00  0.00     0.150 C 
HETATM   11  C13 UNL     1      54.530   9.040  52.504  1.00  0.00     0.150 C 
ENDBRANCH   6   9
ENDBRANCH   3   5
ENDBRANCH   1   3
BRANCH   1  12
HETATM   12  N3  UNL     1      55.972  14.425  53.463  1.00  0.00    -0.268 N 
ATOM     13  H3  UNL     1      54.964  14.446  53.620  1.00  0.00     0.190 HD
BRANCH  12  14
HETATM   14  N4  UNL     1      56.482  15.687  53.504  1.00  0.00    -0.263 N 
HETATM   15  C4  UNL     1      56.361  16.387  52.308  1.00  0.00     0.031 A 
HETATM   16  C5  UNL     1      55.782  15.681  51.111  1.00  0.00     0.070 C 
HETATM   17  C6  UNL     1      56.760  17.690  52.179  1.00  0.00     0.033 A 
HETATM   18  C7  UNL     1      57.305  18.377  53.235  1.00  0.00    -0.058 A 
HETATM   19  C8  UNL     1      57.750  19.787  53.123  1.00  0.00     0.048 C 
HETATM   20  C9  UNL     1      57.428  17.711  54.409  1.00  0.00     0.033 A 
HETATM   21  C10 UNL     1      57.008  16.379  54.509  1.00  0.00     0.031 A 
HETATM   22  C11 UNL     1      57.070  15.829  55.886  1.00  0.00     0.070 C 
ENDBRANCH  12  14
ENDBRANCH   1  12
TORSDOF 5
ENDMDL
