MODEL 1
REMARK VINA RESULT: -8.025732701      0.000      0.000
REMARK  3 active torsions:
REMARK  status: ('A' for Active; 'I' for Inactive)
REMARK    1  A    between atoms: C3_3  and  C4_4 
REMARK    2  A    between atoms: C4_4  and  S1_5 
REMARK    3  A    between atoms: S1_5  and  C6_7 
ROOT
HETATM    1  C1  UNL     1      58.720  11.312  51.483  1.00  0.00     0.112 C 
HETATM    2  C2  UNL     1      57.420  10.698  51.800  1.00  0.00    -0.110 C 
HETATM    3  C3  UNL     1      56.346  10.211  52.052  1.00  0.00    -0.097 C 
ENDROOT
BRANCH   3   4
HETATM    4  C4  UNL     1      55.014   9.628  52.343  1.00  0.00     0.163 C 
BRANCH   4   5
HETATM    5  S1  UNL     1      54.101  10.915  53.162  1.00  0.00    -0.163 SA
HETATM    6  C5  UNL     1      52.390  10.712  52.738  1.00  0.00     0.086 C 
BRANCH   5   7
HETATM    7  C6  UNL     1      54.709  12.485  52.800  1.00  0.00     0.063 A 
HETATM    8  C7  UNL     1      55.315  13.315  53.739  1.00  0.00     0.052 A 
HETATM    9  C8  UNL     1      55.691  14.505  53.129  1.00  0.00     0.021 A 
HETATM   10  C9  UNL     1      56.279  15.742  53.280  1.00  0.00     0.006 A 
HETATM   11  C11 UNL     1      55.298  14.367  51.814  1.00  0.00     0.117 A 
HETATM   12  C10 UNL     1      56.242  16.352  52.059  1.00  0.00     0.111 A 
HETATM   13  C14 UNL     1      56.921  16.626  54.266  1.00  0.00     0.167 A 
HETATM   14  N1  UNL     1      55.644  15.503  51.182  1.00  0.00    -0.337 N 
HETATM   15  C12 UNL     1      56.863  17.656  52.217  1.00  0.00     0.271 A 
ATOM     16  H1  UNL     1      55.482  15.699  50.194  1.00  0.00     0.167 HD
HETATM   17  O1  UNL     1      57.014  18.515  51.299  1.00  0.00    -0.266 OA
HETATM   18  N3  UNL     1      57.272  17.818  53.557  1.00  0.00    -0.347 N 
HETATM   19  C13 UNL     1      57.935  18.972  54.150  1.00  0.00     0.153 C 
HETATM   20  N2  UNL     1      54.715  13.164  51.627  1.00  0.00    -0.337 N 
ATOM     21  H2  UNL     1      54.340  12.820  50.743  1.00  0.00     0.168 HD
ENDBRANCH   5   7
ENDBRANCH   4   5
ENDBRANCH   3   4
TORSDOF 3
ENDMDL
MODEL 2
REMARK VINA RESULT: -7.974393437      1.359      2.537
REMARK  3 active torsions:
REMARK  status: ('A' for Active; 'I' for Inactive)
REMARK    1  A    between atoms: C3_3  and  C4_4 
REMARK    2  A    between atoms: C4_4  and  S1_5 
REMARK    3  A    between atoms: S1_5  and  C6_7 
ROOT
HETATM    1  C1  UNL     1      52.753  12.555  54.889  1.00  0.00     0.112 C 
HETATM    2  C2  UNL     1      53.436  11.520  54.095  1.00  0.00    -0.110 C 
HETATM    3  C3  UNL     1      53.976  10.666  53.439  1.00  0.00    -0.097 C 
ENDROOT
BRANCH   3   4
HETATM    4  C4  UNL     1      54.619   9.611  52.617  1.00  0.00     0.163 C 
BRANCH   4   5
HETATM    5  S1  UNL     1      56.201  10.272  52.150  1.00  0.00    -0.163 SA
HETATM    6  C5  UNL     1      57.410   9.617  53.272  1.00  0.00     0.086 C 
BRANCH   5   7
HETATM    7  C6  UNL     1      56.202  11.992  52.080  1.00  0.00     0.063 A 
HETATM    8  C7  UNL     1      56.828  12.804  53.021  1.00  0.00     0.052 A 
HETATM    9  C8  UNL     1      56.642  14.138  52.677  1.00  0.00     0.021 A 
HETATM   10  C9  UNL     1      56.885  15.456  53.000  1.00  0.00     0.006 A 
HETATM   11  C11 UNL     1      55.897  14.102  51.517  1.00  0.00     0.117 A 
HETATM   12  C10 UNL     1      56.286  16.217  52.037  1.00  0.00     0.111 A 
HETATM   13  C14 UNL     1      57.543  16.321  53.990  1.00  0.00     0.167 A 
HETATM   14  N1  UNL     1      55.692  15.379  51.147  1.00  0.00    -0.337 N 
HETATM   15  C12 UNL     1      56.540  17.606  52.376  1.00  0.00     0.271 A 
ATOM     16  H1  UNL     1      55.170  15.674  50.321  1.00  0.00     0.167 HD
HETATM   17  O1  UNL     1      56.142  18.610  51.714  1.00  0.00    -0.266 OA
HETATM   18  N3  UNL     1      57.303  17.665  53.561  1.00  0.00    -0.347 N 
HETATM   19  C13 UNL     1      57.779  18.855  54.253  1.00  0.00     0.153 C 
HETATM   20  N2  UNL     1      55.639  12.824  51.169  1.00  0.00    -0.337 N 
ATOM     21  H2  UNL     1      55.106  12.530  50.351  1.00  0.00     0.168 HD
ENDBRANCH   5   7
ENDBRANCH   4   5
ENDBRANCH   3   4
TORSDOF 3
ENDMDL
MODEL 3
REMARK VINA RESULT: -7.845532186      2.068      3.529
REMARK  3 active torsions:
REMARK  status: ('A' for Active; 'I' for Inactive)
REMARK    1  A    between atoms: C3_3  and  C4_4 
REMARK    2  A    between atoms: C4_4  and  S1_5 
REMARK    3  A    between atoms: S1_5  and  C6_7 
ROOT
HETATM    1  C1  UNL     1      52.576  12.465  55.237  1.00  0.00     0.112 C 
HETATM    2  C2  UNL     1      53.315  12.336  53.970  1.00  0.00    -0.110 C 
HETATM    3  C3  UNL     1      53.913  12.211  52.931  1.00  0.00    -0.097 C 
ENDROOT
BRANCH   3   4
HETATM    4  C4  UNL     1      54.635  12.035  51.648  1.00  0.00     0.163 C 
BRANCH   4   5
HETATM    5  S1  UNL     1      56.350  12.305  52.026  1.00  0.00    -0.163 SA
HETATM    6  C5  UNL     1      56.855  11.041  53.165  1.00  0.00     0.086 C 
BRANCH   5   7
HETATM    7  C6  UNL     1      56.654  13.899  52.604  1.00  0.00     0.063 A 
HETATM    8  C7  UNL     1      56.537  15.042  51.817  1.00  0.00     0.052 A 
HETATM    9  C8  UNL     1      56.850  16.161  52.579  1.00  0.00     0.021 A 
HETATM   10  C9  UNL     1      56.982  17.532  52.613  1.00  0.00     0.006 A 
HETATM   11  C11 UNL     1      57.154  15.662  53.829  1.00  0.00     0.117 A 
HETATM   12  C10 UNL     1      57.366  17.863  53.881  1.00  0.00     0.111 A 
HETATM   13  C14 UNL     1      56.862  18.745  51.789  1.00  0.00     0.167 A 
HETATM   14  N1  UNL     1      57.465  16.717  54.604  1.00  0.00    -0.337 N 
HETATM   15  C12 UNL     1      57.505  19.309  53.917  1.00  0.00     0.271 A 
ATOM     16  H1  UNL     1      57.734  16.665  55.587  1.00  0.00     0.167 HD
HETATM   17  O1  UNL     1      57.848  19.990  54.928  1.00  0.00    -0.266 OA
HETATM   18  N3  UNL     1      57.199  19.839  52.646  1.00  0.00    -0.347 N 
HETATM   19  C13 UNL     1      57.211  21.238  52.241  1.00  0.00     0.153 C 
HETATM   20  N2  UNL     1      57.035  14.318  53.836  1.00  0.00    -0.337 N 
ATOM     21  H2  UNL     1      57.205  13.713  54.639  1.00  0.00     0.168 HD
ENDBRANCH   5   7
ENDBRANCH   4   5
ENDBRANCH   3   4
TORSDOF 3
ENDMDL
MODEL 4
REMARK VINA RESULT: -7.840984460      1.604      2.985
REMARK  3 active torsions:
REMARK  status: ('A' for Active; 'I' for Inactive)
REMARK    1  A    between atoms: C3_3  and  C4_4 
REMARK    2  A    between atoms: C4_4  and  S1_5 
REMARK    3  A    between atoms: S1_5  and  C6_7 
ROOT
HETATM    1  C1  UNL     1      52.352  12.781  55.083  1.00  0.00     0.112 C 
HETATM    2  C2  UNL     1      53.576  12.243  54.468  1.00  0.00    -0.110 C 
HETATM    3  C3  UNL     1      54.587  11.802  53.982  1.00  0.00    -0.097 C 
ENDROOT
BRANCH   3   4
HETATM    4  C4  UNL     1      55.840  11.252  53.409  1.00  0.00     0.163 C 
BRANCH   4   5
HETATM    5  S1  UNL     1      56.016  12.029  51.820  1.00  0.00    -0.163 SA
HETATM    6  C5  UNL     1      57.417  11.295  51.016  1.00  0.00     0.086 C 
BRANCH   5   7
HETATM    7  C6  UNL     1      56.120  13.744  51.934  1.00  0.00     0.063 A 
HETATM    8  C7  UNL     1      56.931  14.411  52.847  1.00  0.00     0.052 A 
HETATM    9  C8  UNL     1      56.785  15.783  52.680  1.00  0.00     0.021 A 
HETATM   10  C9  UNL     1      57.159  17.041  53.099  1.00  0.00     0.006 A 
HETATM   11  C11 UNL     1      55.874  15.917  51.653  1.00  0.00     0.117 A 
HETATM   12  C10 UNL     1      56.475  17.936  52.327  1.00  0.00     0.111 A 
HETATM   13  C14 UNL     1      58.013  17.754  54.061  1.00  0.00     0.167 A 
HETATM   14  N1  UNL     1      55.701  17.237  51.456  1.00  0.00    -0.337 N 
HETATM   15  C12 UNL     1      56.868  19.263  52.767  1.00  0.00     0.271 A 
ATOM     16  H1  UNL     1      55.083  17.650  50.757  1.00  0.00     0.167 HD
HETATM   17  O1  UNL     1      56.443  20.354  52.286  1.00  0.00    -0.266 OA
HETATM   18  N3  UNL     1      57.800  19.148  53.820  1.00  0.00    -0.347 N 
HETATM   19  C13 UNL     1      58.452  20.226  54.552  1.00  0.00     0.153 C 
HETATM   20  N2  UNL     1      55.484  14.702  51.215  1.00  0.00    -0.337 N 
ATOM     21  H2  UNL     1      54.817  14.530  50.462  1.00  0.00     0.168 HD
ENDBRANCH   5   7
ENDBRANCH   4   5
ENDBRANCH   3   4
TORSDOF 3
ENDMDL
MODEL 5
REMARK VINA RESULT: -7.834635441      1.857      3.132
REMARK  3 active torsions:
REMARK  status: ('A' for Active; 'I' for Inactive)
REMARK    1  A    between atoms: C3_3  and  C4_4 
REMARK    2  A    between atoms: C4_4  and  S1_5 
REMARK    3  A    between atoms: S1_5  and  C6_7 
ROOT
HETATM    1  C1  UNL     1      52.394  12.811  55.355  1.00  0.00     0.112 C 
HETATM    2  C2  UNL     1      52.491  11.938  54.173  1.00  0.00    -0.110 C 
HETATM    3  C3  UNL     1      52.586  11.235  53.199  1.00  0.00    -0.097 C 
ENDROOT
BRANCH   3   4
HETATM    4  C4  UNL     1      52.727  10.379  51.997  1.00  0.00     0.163 C 
BRANCH   4   5
HETATM    5  S1  UNL     1      54.423  10.547  51.489  1.00  0.00    -0.163 SA
HETATM    6  C5  UNL     1      55.268   9.051  51.932  1.00  0.00     0.086 C 
BRANCH   5   7
HETATM    7  C6  UNL     1      55.165  11.962  52.133  1.00  0.00     0.063 A 
HETATM    8  C7  UNL     1      55.018  13.232  51.581  1.00  0.00     0.052 A 
HETATM    9  C8  UNL     1      55.741  14.149  52.334  1.00  0.00     0.021 A 
HETATM   10  C9  UNL     1      56.118  15.464  52.497  1.00  0.00     0.006 A 
HETATM   11  C11 UNL     1      56.318  13.402  53.341  1.00  0.00     0.117 A 
HETATM   12  C10 UNL     1      56.921  15.514  53.600  1.00  0.00     0.111 A 
HETATM   13  C14 UNL     1      55.969  16.810  51.920  1.00  0.00     0.167 A 
HETATM   14  N1  UNL     1      57.031  14.255  54.098  1.00  0.00    -0.337 N 
HETATM   15  C12 UNL     1      57.319  16.900  53.772  1.00  0.00     0.271 A 
ATOM     16  H1  UNL     1      57.572  13.995  54.923  1.00  0.00     0.167 HD
HETATM   17  O1  UNL     1      58.067  17.342  54.693  1.00  0.00    -0.266 OA
HETATM   18  N3  UNL     1      56.739  17.683  52.751  1.00  0.00    -0.347 N 
HETATM   19  C13 UNL     1      56.875  19.118  52.546  1.00  0.00     0.153 C 
HETATM   20  N2  UNL     1      55.970  12.104  53.215  1.00  0.00    -0.337 N 
ATOM     21  H2  UNL     1      56.266  11.350  53.834  1.00  0.00     0.168 HD
ENDBRANCH   5   7
ENDBRANCH   4   5
ENDBRANCH   3   4
TORSDOF 3
ENDMDL
