MODEL 1
REMARK VINA RESULT: -8.016532652      0.000      0.000
REMARK  9 active torsions:
REMARK  status: ('A' for Active; 'I' for Inactive)
REMARK    1  A    between atoms: C2_2  and  C3_3 
REMARK    2  A    between atoms: C3_3  and  C4_4 
REMARK    3  A    between atoms: C4_4  and  C5_5 
REMARK    4  A    between atoms: C5_5  and  C6_6 
REMARK    5  A    between atoms: C6_6  and  C7_7 
REMARK    6  A    between atoms: C7_7  and  C8_8 
REMARK    7  A    between atoms: C8_8  and  C9_9 
REMARK    8  A    between atoms: C9_9  and  C10_10 
REMARK    9  A    between atoms: C10_10  and  N1_11 
REMARK       I    between atoms: N1_11  and  C11_13 
REMARK       I    between atoms: N3_15  and  C12_17 
REMARK       I    between atoms: C12_17  and  N4_19 
ROOT
HETATM    1  N1  UNL     1      56.296  11.229  51.648  1.00  0.00    -0.364 N 
ATOM      2  H1  UNL     1      55.280  11.313  51.682  1.00  0.00     0.162 HD
HETATM    3  C11 UNL     1      56.916  10.106  52.239  1.00  0.00     0.192 C 
HETATM    4  N2  UNL     1      58.280  10.161  52.630  1.00  0.00    -0.063 NA
HETATM    5  N3  UNL     1      56.261   9.032  52.428  1.00  0.00    -0.283 N 
ATOM      6  H3  UNL     1      56.706   8.220  52.857  1.00  0.00     0.173 HD
HETATM    7  C12 UNL     1      54.895   8.983  52.030  1.00  0.00     0.324 C 
HETATM    8  O1  UNL     1      54.559   8.517  50.901  1.00  0.00    -0.247 OA
HETATM    9  N4  UNL     1      53.871   9.453  52.880  1.00  0.00    -0.334 N 
HETATM   10  C13 UNL     1      54.080  10.015  54.199  1.00  0.00     0.127 C 
HETATM   11  C14 UNL     1      53.506  11.425  54.252  1.00  0.00     0.020 C 
HETATM   12  C15 UNL     1      52.223  11.530  53.478  1.00  0.00     0.003 C 
HETATM   13  C16 UNL     1      51.581  10.164  53.271  1.00  0.00     0.020 C 
HETATM   14  C17 UNL     1      52.494   9.365  52.394  1.00  0.00     0.127 C 
ENDROOT
BRANCH   1  15
HETATM   15  C10 UNL     1      57.080  12.279  50.985  1.00  0.00     0.122 C 
BRANCH  15  16
HETATM   16  C9  UNL     1      57.237  13.403  51.981  1.00  0.00     0.020 C 
BRANCH  16  17
HETATM   17  C8  UNL     1      55.879  13.799  52.518  1.00  0.00     0.002 C 
BRANCH  17  18
HETATM   18  C7  UNL     1      55.343  14.949  51.733  1.00  0.00     0.000 C 
BRANCH  18  19
HETATM   19  C6  UNL     1      56.104  16.235  52.062  1.00  0.00     0.000 C 
BRANCH  19  20
HETATM   20  C5  UNL     1      55.844  16.604  53.484  1.00  0.00     0.000 C 
BRANCH  20  21
HETATM   21  C4  UNL     1      57.109  17.098  54.144  1.00  0.00     0.000 C 
BRANCH  21  22
HETATM   22  C3  UNL     1      57.723  16.044  55.015  1.00  0.00    -0.000 C 
BRANCH  22  23
HETATM   23  C2  UNL     1      56.669  15.359  55.853  1.00  0.00    -0.005 C 
HETATM   24  C1  UNL     1      56.682  16.028  57.223  1.00  0.00     0.005 C 
ENDBRANCH  22  23
ENDBRANCH  21  22
ENDBRANCH  20  21
ENDBRANCH  19  20
ENDBRANCH  18  19
ENDBRANCH  17  18
ENDBRANCH  16  17
ENDBRANCH  15  16
ENDBRANCH   1  15
TORSDOF 9
ENDMDL
MODEL 2
REMARK VINA RESULT: -7.958360852      0.976      1.343
REMARK  9 active torsions:
REMARK  status: ('A' for Active; 'I' for Inactive)
REMARK    1  A    between atoms: C2_2  and  C3_3 
REMARK    2  A    between atoms: C3_3  and  C4_4 
REMARK    3  A    between atoms: C4_4  and  C5_5 
REMARK    4  A    between atoms: C5_5  and  C6_6 
REMARK    5  A    between atoms: C6_6  and  C7_7 
REMARK    6  A    between atoms: C7_7  and  C8_8 
REMARK    7  A    between atoms: C8_8  and  C9_9 
REMARK    8  A    between atoms: C9_9  and  C10_10 
REMARK    9  A    between atoms: C10_10  and  N1_11 
REMARK       I    between atoms: N1_11  and  C11_13 
REMARK       I    between atoms: N3_15  and  C12_17 
REMARK       I    between atoms: C12_17  and  N4_19 
ROOT
HETATM    1  N1  UNL     1      56.287  11.186  51.561  1.00  0.00    -0.364 N 
ATOM      2  H1  UNL     1      55.270  11.244  51.609  1.00  0.00     0.162 HD
HETATM    3  C11 UNL     1      56.948  10.109  52.193  1.00  0.00     0.192 C 
HETATM    4  N2  UNL     1      58.316  10.219  52.556  1.00  0.00    -0.063 NA
HETATM    5  N3  UNL     1      56.326   9.028  52.445  1.00  0.00    -0.283 N 
ATOM      6  H3  UNL     1      56.800   8.249  52.903  1.00  0.00     0.173 HD
HETATM    7  C12 UNL     1      54.955   8.924  52.075  1.00  0.00     0.324 C 
HETATM    8  O1  UNL     1      54.613   8.396  50.975  1.00  0.00    -0.247 OA
HETATM    9  N4  UNL     1      53.934   9.407  52.920  1.00  0.00    -0.334 N 
HETATM   10  C13 UNL     1      54.150  10.036  54.206  1.00  0.00     0.127 C 
HETATM   11  C14 UNL     1      53.538  11.431  54.204  1.00  0.00     0.020 C 
HETATM   12  C15 UNL     1      52.239  11.465  53.449  1.00  0.00     0.003 C 
HETATM   13  C16 UNL     1      51.632  10.074  53.318  1.00  0.00     0.020 C 
HETATM   14  C17 UNL     1      52.552   9.259  52.463  1.00  0.00     0.127 C 
ENDROOT
BRANCH   1  15
HETATM   15  C10 UNL     1      57.031  12.223  50.835  1.00  0.00     0.122 C 
BRANCH  15  16
HETATM   16  C9  UNL     1      56.483  13.555  51.291  1.00  0.00     0.020 C 
BRANCH  16  17
HETATM   17  C8  UNL     1      56.784  13.751  52.761  1.00  0.00     0.002 C 
BRANCH  17  18
HETATM   18  C7  UNL     1      55.555  14.216  53.468  1.00  0.00     0.000 C 
BRANCH  18  19
HETATM   19  C6  UNL     1      55.912  14.882  54.798  1.00  0.00     0.000 C 
BRANCH  19  20
HETATM   20  C5  UNL     1      57.211  15.600  54.651  1.00  0.00     0.000 C 
BRANCH  20  21
HETATM   21  C4  UNL     1      57.544  16.359  55.913  1.00  0.00     0.000 C 
BRANCH  21  22
HETATM   22  C3  UNL     1      56.855  15.770  57.106  1.00  0.00    -0.000 C 
BRANCH  22  23
HETATM   23  C2  UNL     1      56.088  16.830  57.862  1.00  0.00    -0.005 C 
HETATM   24  C1  UNL     1      54.607  16.498  57.719  1.00  0.00     0.005 C 
ENDBRANCH  22  23
ENDBRANCH  21  22
ENDBRANCH  20  21
ENDBRANCH  19  20
ENDBRANCH  18  19
ENDBRANCH  17  18
ENDBRANCH  16  17
ENDBRANCH  15  16
ENDBRANCH   1  15
TORSDOF 9
ENDMDL
MODEL 3
REMARK VINA RESULT: -7.938138432      0.762      1.525
REMARK  9 active torsions:
REMARK  status: ('A' for Active; 'I' for Inactive)
REMARK    1  A    between atoms: C2_2  and  C3_3 
REMARK    2  A    between atoms: C3_3  and  C4_4 
REMARK    3  A    between atoms: C4_4  and  C5_5 
REMARK    4  A    between atoms: C5_5  and  C6_6 
REMARK    5  A    between atoms: C6_6  and  C7_7 
REMARK    6  A    between atoms: C7_7  and  C8_8 
REMARK    7  A    between atoms: C8_8  and  C9_9 
REMARK    8  A    between atoms: C9_9  and  C10_10 
REMARK    9  A    between atoms: C10_10  and  N1_11 
REMARK       I    between atoms: N1_11  and  C11_13 
REMARK       I    between atoms: N3_15  and  C12_17 
REMARK       I    between atoms: C12_17  and  N4_19 
ROOT
HETATM    1  N1  UNL     1      56.319  11.242  51.747  1.00  0.00    -0.364 N 
ATOM      2  H1  UNL     1      55.304  11.336  51.782  1.00  0.00     0.162 HD
HETATM    3  C11 UNL     1      56.927  10.104  52.323  1.00  0.00     0.192 C 
HETATM    4  N2  UNL     1      58.291  10.137  52.714  1.00  0.00    -0.063 NA
HETATM    5  N3  UNL     1      56.259   9.034  52.497  1.00  0.00    -0.283 N 
ATOM      6  H3  UNL     1      56.695   8.211  52.915  1.00  0.00     0.173 HD
HETATM    7  C12 UNL     1      54.893   9.007  52.099  1.00  0.00     0.324 C 
HETATM    8  O1  UNL     1      54.552   8.560  50.963  1.00  0.00    -0.247 OA
HETATM    9  N4  UNL     1      53.874   9.477  52.955  1.00  0.00    -0.334 N 
HETATM   10  C13 UNL     1      54.090  10.017  54.281  1.00  0.00     0.127 C 
HETATM   11  C14 UNL     1      53.531  11.433  54.354  1.00  0.00     0.020 C 
HETATM   12  C15 UNL     1      52.250  11.563  53.582  1.00  0.00     0.003 C 
HETATM   13  C16 UNL     1      51.593  10.208  53.355  1.00  0.00     0.020 C 
HETATM   14  C17 UNL     1      52.497   9.410  52.467  1.00  0.00     0.127 C 
ENDROOT
BRANCH   1  15
HETATM   15  C10 UNL     1      57.115  12.292  51.099  1.00  0.00     0.122 C 
BRANCH  15  16
HETATM   16  C9  UNL     1      57.134  13.471  52.041  1.00  0.00     0.020 C 
BRANCH  16  17
HETATM   17  C8  UNL     1      55.833  14.234  51.928  1.00  0.00     0.002 C 
BRANCH  17  18
HETATM   18  C7  UNL     1      55.250  14.440  53.285  1.00  0.00     0.000 C 
BRANCH  18  19
HETATM   19  C6  UNL     1      56.341  14.407  54.357  1.00  0.00     0.000 C 
BRANCH  19  20
HETATM   20  C5  UNL     1      55.919  15.255  55.509  1.00  0.00     0.000 C 
BRANCH  20  21
HETATM   21  C4  UNL     1      57.102  15.995  56.086  1.00  0.00     0.000 C 
BRANCH  21  22
HETATM   22  C3  UNL     1      58.037  16.459  55.011  1.00  0.00    -0.000 C 
BRANCH  22  23
HETATM   23  C2  UNL     1      57.822  17.923  54.706  1.00  0.00    -0.005 C 
HETATM   24  C1  UNL     1      57.064  17.998  53.385  1.00  0.00     0.005 C 
ENDBRANCH  22  23
ENDBRANCH  21  22
ENDBRANCH  20  21
ENDBRANCH  19  20
ENDBRANCH  18  19
ENDBRANCH  17  18
ENDBRANCH  16  17
ENDBRANCH  15  16
ENDBRANCH   1  15
TORSDOF 9
ENDMDL
MODEL 4
REMARK VINA RESULT: -7.559713060      2.902      4.752
REMARK  9 active torsions:
REMARK  status: ('A' for Active; 'I' for Inactive)
REMARK    1  A    between atoms: C2_2  and  C3_3 
REMARK    2  A    between atoms: C3_3  and  C4_4 
REMARK    3  A    between atoms: C4_4  and  C5_5 
REMARK    4  A    between atoms: C5_5  and  C6_6 
REMARK    5  A    between atoms: C6_6  and  C7_7 
REMARK    6  A    between atoms: C7_7  and  C8_8 
REMARK    7  A    between atoms: C8_8  and  C9_9 
REMARK    8  A    between atoms: C9_9  and  C10_10 
REMARK    9  A    between atoms: C10_10  and  N1_11 
REMARK       I    between atoms: N1_11  and  C11_13 
REMARK       I    between atoms: N3_15  and  C12_17 
REMARK       I    between atoms: C12_17  and  N4_19 
ROOT
HETATM    1  N1  UNL     1      56.518  14.134  53.443  1.00  0.00    -0.364 N 
ATOM      2  H1  UNL     1      56.707  13.185  53.767  1.00  0.00     0.162 HD
HETATM    3  C11 UNL     1      55.517  14.345  52.469  1.00  0.00     0.192 C 
HETATM    4  N2  UNL     1      55.531  15.516  51.666  1.00  0.00    -0.063 NA
HETATM    5  N3  UNL     1      54.591  13.489  52.300  1.00  0.00    -0.283 N 
ATOM      6  H3  UNL     1      53.867  13.639  51.595  1.00  0.00     0.173 HD
HETATM    7  C12 UNL     1      54.581  12.320  53.111  1.00  0.00     0.324 C 
HETATM    8  O1  UNL     1      53.889  12.265  54.171  1.00  0.00    -0.247 OA
HETATM    9  N4  UNL     1      55.342  11.184  52.761  1.00  0.00    -0.334 N 
HETATM   10  C13 UNL     1      56.183  11.078  51.587  1.00  0.00     0.127 C 
HETATM   11  C14 UNL     1      57.613  10.765  52.009  1.00  0.00     0.020 C 
HETATM   12  C15 UNL     1      57.652   9.813  53.170  1.00  0.00     0.003 C 
HETATM   13  C16 UNL     1      56.347   9.040  53.303  1.00  0.00     0.020 C 
HETATM   14  C17 UNL     1      55.273  10.024  53.650  1.00  0.00     0.127 C 
ENDROOT
BRANCH   1  15
HETATM   15  C10 UNL     1      57.293  15.248  54.002  1.00  0.00     0.122 C 
BRANCH  15  16
HETATM   16  C9  UNL     1      56.616  15.650  55.291  1.00  0.00     0.020 C 
BRANCH  16  17
HETATM   17  C8  UNL     1      57.076  17.033  55.698  1.00  0.00     0.002 C 
BRANCH  17  18
HETATM   18  C7  UNL     1      58.157  17.494  54.779  1.00  0.00     0.000 C 
BRANCH  18  19
HETATM   19  C6  UNL     1      57.862  18.901  54.255  1.00  0.00     0.000 C 
BRANCH  19  20
HETATM   20  C5  UNL     1      57.466  18.814  52.820  1.00  0.00     0.000 C 
BRANCH  20  21
HETATM   21  C4  UNL     1      57.136  20.184  52.277  1.00  0.00     0.000 C 
BRANCH  21  22
HETATM   22  C3  UNL     1      56.653  21.102  53.358  1.00  0.00    -0.000 C 
BRANCH  22  23
HETATM   23  C2  UNL     1      57.190  22.500  53.157  1.00  0.00    -0.005 C 
HETATM   24  C1  UNL     1      58.553  22.558  53.840  1.00  0.00     0.005 C 
ENDBRANCH  22  23
ENDBRANCH  21  22
ENDBRANCH  20  21
ENDBRANCH  19  20
ENDBRANCH  18  19
ENDBRANCH  17  18
ENDBRANCH  16  17
ENDBRANCH  15  16
ENDBRANCH   1  15
TORSDOF 9
ENDMDL
MODEL 5
REMARK VINA RESULT: -7.529469047      1.696      2.424
REMARK  9 active torsions:
REMARK  status: ('A' for Active; 'I' for Inactive)
REMARK    1  A    between atoms: C2_2  and  C3_3 
REMARK    2  A    between atoms: C3_3  and  C4_4 
REMARK    3  A    between atoms: C4_4  and  C5_5 
REMARK    4  A    between atoms: C5_5  and  C6_6 
REMARK    5  A    between atoms: C6_6  and  C7_7 
REMARK    6  A    between atoms: C7_7  and  C8_8 
REMARK    7  A    between atoms: C8_8  and  C9_9 
REMARK    8  A    between atoms: C9_9  and  C10_10 
REMARK    9  A    between atoms: C10_10  and  N1_11 
REMARK       I    between atoms: N1_11  and  C11_13 
REMARK       I    between atoms: N3_15  and  C12_17 
REMARK       I    between atoms: C12_17  and  N4_19 
ROOT
HETATM    1  N1  UNL     1      56.330  11.427  51.486  1.00  0.00    -0.364 N 
ATOM      2  H1  UNL     1      55.315  11.485  51.563  1.00  0.00     0.162 HD
HETATM    3  C11 UNL     1      57.004  10.329  52.066  1.00  0.00     0.192 C 
HETATM    4  N2  UNL     1      58.382  10.424  52.396  1.00  0.00    -0.063 NA
HETATM    5  N3  UNL     1      56.386   9.242  52.299  1.00  0.00    -0.283 N 
ATOM      6  H3  UNL     1      56.870   8.448  52.720  1.00  0.00     0.173 HD
HETATM    7  C12 UNL     1      55.005   9.152  51.961  1.00  0.00     0.324 C 
HETATM    8  O1  UNL     1      54.633   8.660  50.855  1.00  0.00    -0.247 OA
HETATM    9  N4  UNL     1      54.007   9.610  52.848  1.00  0.00    -0.334 N 
HETATM   10  C13 UNL     1      54.259  10.197  54.148  1.00  0.00     0.127 C 
HETATM   11  C14 UNL     1      53.651  11.593  54.206  1.00  0.00     0.020 C 
HETATM   12  C15 UNL     1      52.333  11.654  53.487  1.00  0.00     0.003 C 
HETATM   13  C16 UNL     1      51.719  10.269  53.327  1.00  0.00     0.020 C 
HETATM   14  C17 UNL     1      52.614   9.479  52.423  1.00  0.00     0.127 C 
ENDROOT
BRANCH   1  15
HETATM   15  C10 UNL     1      57.057  12.486  50.774  1.00  0.00     0.122 C 
BRANCH  15  16
HETATM   16  C9  UNL     1      56.513  13.803  51.275  1.00  0.00     0.020 C 
BRANCH  16  17
HETATM   17  C8  UNL     1      56.545  13.824  52.787  1.00  0.00     0.002 C 
BRANCH  17  18
HETATM   18  C7  UNL     1      56.200  15.190  53.278  1.00  0.00     0.000 C 
BRANCH  18  19
HETATM   19  C6  UNL     1      55.975  16.149  52.108  1.00  0.00     0.000 C 
BRANCH  19  20
HETATM   20  C5  UNL     1      55.916  17.546  52.626  1.00  0.00     0.000 C 
BRANCH  20  21
HETATM   21  C4  UNL     1      57.039  18.374  52.048  1.00  0.00     0.000 C 
BRANCH  21  22
HETATM   22  C3  UNL     1      57.332  19.573  52.898  1.00  0.00    -0.000 C 
BRANCH  22  23
HETATM   23  C2  UNL     1      57.091  20.850  52.127  1.00  0.00    -0.005 C 
HETATM   24  C1  UNL     1      57.643  21.993  52.973  1.00  0.00     0.005 C 
ENDBRANCH  22  23
ENDBRANCH  21  22
ENDBRANCH  20  21
ENDBRANCH  19  20
ENDBRANCH  18  19
ENDBRANCH  17  18
ENDBRANCH  16  17
ENDBRANCH  15  16
ENDBRANCH   1  15
TORSDOF 9
ENDMDL
