MODEL 1
REMARK VINA RESULT: -7.750613370      0.000      0.000
REMARK  11 active torsions:
REMARK  status: ('A' for Active; 'I' for Inactive)
REMARK    1  A    between atoms: N1_2  and  C2_3 
REMARK    2  A    between atoms: C2_3  and  C3_4 
REMARK    3  A    between atoms: C3_4  and  C4_5 
REMARK    4  A    between atoms: C4_5  and  C5_6 
REMARK    5  A    between atoms: C5_6  and  C6_7 
REMARK    6  A    between atoms: C6_7  and  C7_8 
REMARK    7  A    between atoms: C7_8  and  C8_9 
REMARK    8  A    between atoms: C8_9  and  C9_10 
REMARK    9  A    between atoms: C9_10  and  C10_11 
REMARK   10  A    between atoms: C10_11  and  C11_12 
REMARK   11  A    between atoms: C12_13  and  C13_14 
ROOT
HETATM    1  C4  UNL     1      56.997  13.199  51.844  1.00  0.00     0.002 C 
ENDROOT
BRANCH   1   2
HETATM    2  C3  UNL     1      56.148  11.996  51.526  1.00  0.00     0.028 C 
BRANCH   2   3
HETATM    3  C2  UNL     1      55.869  11.144  52.753  1.00  0.00     0.237 C 
BRANCH   3   4
HETATM    4  N1  UNL     1      54.433  10.842  52.797  1.00  0.00    -0.071 N 
HETATM    5  C1  UNL     1      54.021  10.239  51.536  1.00  0.00     0.272 C 
HETATM    6  C14 UNL     1      53.695  12.080  52.926  1.00  0.00     0.237 C 
HETATM    7  C15 UNL     1      53.693  12.625  54.317  1.00  0.00     0.028 C 
HETATM    8  C16 UNL     1      52.489  12.201  55.120  1.00  0.00     0.002 C 
HETATM    9  C17 UNL     1      52.470  10.725  55.394  1.00  0.00     0.002 C 
HETATM   10  C18 UNL     1      52.695   9.895  54.142  1.00  0.00     0.028 C 
HETATM   11  C19 UNL     1      54.189   9.919  53.859  1.00  0.00     0.237 C 
ENDBRANCH   3   4
ENDBRANCH   2   3
ENDBRANCH   1   2
BRANCH   1  12
HETATM   12  C5  UNL     1      56.277  14.497  51.548  1.00  0.00     0.000 C 
BRANCH  12  13
HETATM   13  C6  UNL     1      55.874  15.227  52.784  1.00  0.00     0.000 C 
BRANCH  13  14
HETATM   14  C7  UNL     1      56.657  14.773  53.994  1.00  0.00     0.000 C 
BRANCH  14  15
HETATM   15  C8  UNL     1      56.107  15.348  55.266  1.00  0.00     0.001 C 
BRANCH  15  16
HETATM   16  C9  UNL     1      57.109  16.181  56.015  1.00  0.00     0.012 C 
BRANCH  16  17
HETATM   17  C10 UNL     1      58.207  16.579  55.046  1.00  0.00     0.094 C 
BRANCH  17  18
HETATM   18  C11 UNL     1      58.027  18.000  54.691  1.00  0.00    -0.097 C 
HETATM   19  C12 UNL     1      57.859  19.161  54.397  1.00  0.00    -0.009 C 
BRANCH  19  20
HETATM   20  C13 UNL     1      57.637  20.535  54.043  1.00  0.00     0.309 C 
HETATM   21  N2  UNL     1      56.507  20.885  53.261  1.00  0.00    -0.049 NA
HETATM   22  O1  UNL     1      58.416  21.468  54.404  1.00  0.00    -0.262 OA
ENDBRANCH  19  20
ENDBRANCH  17  18
ENDBRANCH  16  17
ENDBRANCH  15  16
ENDBRANCH  14  15
ENDBRANCH  13  14
ENDBRANCH  12  13
ENDBRANCH   1  12
TORSDOF 11
ENDMDL
MODEL 2
REMARK VINA RESULT: -7.637873027      1.164      1.248
REMARK  11 active torsions:
REMARK  status: ('A' for Active; 'I' for Inactive)
REMARK    1  A    between atoms: N1_2  and  C2_3 
REMARK    2  A    between atoms: C2_3  and  C3_4 
REMARK    3  A    between atoms: C3_4  and  C4_5 
REMARK    4  A    between atoms: C4_5  and  C5_6 
REMARK    5  A    between atoms: C5_6  and  C6_7 
REMARK    6  A    between atoms: C6_7  and  C7_8 
REMARK    7  A    between atoms: C7_8  and  C8_9 
REMARK    8  A    between atoms: C8_9  and  C9_10 
REMARK    9  A    between atoms: C9_10  and  C10_11 
REMARK   10  A    between atoms: C10_11  and  C11_12 
REMARK   11  A    between atoms: C12_13  and  C13_14 
ROOT
HETATM    1  C4  UNL     1      56.941  12.400  51.226  1.00  0.00     0.002 C 
ENDROOT
BRANCH   1   2
HETATM    2  C3  UNL     1      55.568  11.780  51.263  1.00  0.00     0.028 C 
BRANCH   2   3
HETATM    3  C2  UNL     1      55.479  10.634  52.256  1.00  0.00     0.237 C 
BRANCH   3   4
HETATM    4  N1  UNL     1      54.062  10.338  52.504  1.00  0.00    -0.071 N 
HETATM    5  C1  UNL     1      53.441   9.854  51.279  1.00  0.00     0.272 C 
HETATM    6  C14 UNL     1      53.380  11.565  52.858  1.00  0.00     0.237 C 
HETATM    7  C15 UNL     1      53.613  11.982  54.274  1.00  0.00     0.028 C 
HETATM    8  C16 UNL     1      52.544  11.496  55.221  1.00  0.00     0.002 C 
HETATM    9  C17 UNL     1      52.538  10.001  55.364  1.00  0.00     0.002 C 
HETATM   10  C18 UNL     1      52.542   9.286  54.024  1.00  0.00     0.028 C 
HETATM   11  C19 UNL     1      53.971   9.325  53.507  1.00  0.00     0.237 C 
ENDBRANCH   3   4
ENDBRANCH   2   3
ENDBRANCH   1   2
BRANCH   1  12
HETATM   12  C5  UNL     1      57.115  13.460  52.292  1.00  0.00     0.000 C 
BRANCH  12  13
HETATM   13  C6  UNL     1      56.139  14.579  52.156  1.00  0.00     0.000 C 
BRANCH  13  14
HETATM   14  C7  UNL     1      55.543  14.981  53.485  1.00  0.00     0.000 C 
BRANCH  14  15
HETATM   15  C8  UNL     1      56.421  14.588  54.636  1.00  0.00     0.001 C 
BRANCH  15  16
HETATM   16  C9  UNL     1      56.549  15.668  55.673  1.00  0.00     0.012 C 
BRANCH  16  17
HETATM   17  C10 UNL     1      57.868  16.384  55.445  1.00  0.00     0.094 C 
BRANCH  17  18
HETATM   18  C11 UNL     1      57.656  17.454  54.452  1.00  0.00    -0.097 C 
HETATM   19  C12 UNL     1      57.495  18.323  53.625  1.00  0.00    -0.009 C 
BRANCH  19  20
HETATM   20  C13 UNL     1      57.322  19.344  52.630  1.00  0.00     0.309 C 
HETATM   21  N2  UNL     1      57.035  20.673  53.030  1.00  0.00    -0.049 NA
HETATM   22  O1  UNL     1      57.417  19.108  51.387  1.00  0.00    -0.262 OA
ENDBRANCH  19  20
ENDBRANCH  17  18
ENDBRANCH  16  17
ENDBRANCH  15  16
ENDBRANCH  14  15
ENDBRANCH  13  14
ENDBRANCH  12  13
ENDBRANCH   1  12
TORSDOF 11
ENDMDL
MODEL 3
REMARK VINA RESULT: -7.590804042      1.846      3.872
REMARK  11 active torsions:
REMARK  status: ('A' for Active; 'I' for Inactive)
REMARK    1  A    between atoms: N1_2  and  C2_3 
REMARK    2  A    between atoms: C2_3  and  C3_4 
REMARK    3  A    between atoms: C3_4  and  C4_5 
REMARK    4  A    between atoms: C4_5  and  C5_6 
REMARK    5  A    between atoms: C5_6  and  C6_7 
REMARK    6  A    between atoms: C6_7  and  C7_8 
REMARK    7  A    between atoms: C7_8  and  C8_9 
REMARK    8  A    between atoms: C8_9  and  C9_10 
REMARK    9  A    between atoms: C9_10  and  C10_11 
REMARK   10  A    between atoms: C10_11  and  C11_12 
REMARK   11  A    between atoms: C12_13  and  C13_14 
ROOT
HETATM    1  C4  UNL     1      55.620  15.324  55.329  1.00  0.00     0.002 C 
ENDROOT
BRANCH   1   2
HETATM    2  C3  UNL     1      56.081  14.358  54.269  1.00  0.00     0.028 C 
BRANCH   2   3
HETATM    3  C2  UNL     1      55.091  13.226  54.049  1.00  0.00     0.237 C 
BRANCH   3   4
HETATM    4  N1  UNL     1      55.413  12.562  52.779  1.00  0.00    -0.071 N 
HETATM    5  C1  UNL     1      54.407  12.901  51.781  1.00  0.00     0.272 C 
HETATM    6  C14 UNL     1      55.346  11.129  52.967  1.00  0.00     0.237 C 
HETATM    7  C15 UNL     1      56.551  10.565  53.647  1.00  0.00     0.028 C 
HETATM    8  C16 UNL     1      57.597  10.064  52.683  1.00  0.00     0.002 C 
HETATM    9  C17 UNL     1      58.218  11.170  51.880  1.00  0.00     0.002 C 
HETATM   10  C18 UNL     1      57.182  12.080  51.242  1.00  0.00     0.028 C 
HETATM   11  C19 UNL     1      56.690  13.020  52.331  1.00  0.00     0.237 C 
ENDBRANCH   3   4
ENDBRANCH   2   3
ENDBRANCH   1   2
BRANCH   1  12
HETATM   12  C5  UNL     1      56.741  15.714  56.268  1.00  0.00     0.000 C 
BRANCH  12  13
HETATM   13  C6  UNL     1      57.868  16.395  55.568  1.00  0.00     0.000 C 
BRANCH  13  14
HETATM   14  C7  UNL     1      57.484  17.772  55.077  1.00  0.00     0.000 C 
BRANCH  14  15
HETATM   15  C8  UNL     1      57.928  18.007  53.664  1.00  0.00     0.001 C 
BRANCH  15  16
HETATM   16  C9  UNL     1      56.807  17.895  52.669  1.00  0.00     0.012 C 
BRANCH  16  17
HETATM   17  C10 UNL     1      57.023  18.947  51.597  1.00  0.00     0.094 C 
BRANCH  17  18
HETATM   18  C11 UNL     1      56.980  20.279  52.232  1.00  0.00    -0.097 C 
HETATM   19  C12 UNL     1      56.962  21.365  52.764  1.00  0.00    -0.009 C 
BRANCH  19  20
HETATM   20  C13 UNL     1      56.958  22.648  53.410  1.00  0.00     0.309 C 
HETATM   21  N2  UNL     1      55.756  23.397  53.478  1.00  0.00    -0.049 NA
HETATM   22  O1  UNL     1      57.998  23.151  53.934  1.00  0.00    -0.262 OA
ENDBRANCH  19  20
ENDBRANCH  17  18
ENDBRANCH  16  17
ENDBRANCH  15  16
ENDBRANCH  14  15
ENDBRANCH  13  14
ENDBRANCH  12  13
ENDBRANCH   1  12
TORSDOF 11
ENDMDL
MODEL 4
REMARK VINA RESULT: -7.562134885      1.128      1.675
REMARK  11 active torsions:
REMARK  status: ('A' for Active; 'I' for Inactive)
REMARK    1  A    between atoms: N1_2  and  C2_3 
REMARK    2  A    between atoms: C2_3  and  C3_4 
REMARK    3  A    between atoms: C3_4  and  C4_5 
REMARK    4  A    between atoms: C4_5  and  C5_6 
REMARK    5  A    between atoms: C5_6  and  C6_7 
REMARK    6  A    between atoms: C6_7  and  C7_8 
REMARK    7  A    between atoms: C7_8  and  C8_9 
REMARK    8  A    between atoms: C8_9  and  C9_10 
REMARK    9  A    between atoms: C9_10  and  C10_11 
REMARK   10  A    between atoms: C10_11  and  C11_12 
REMARK   11  A    between atoms: C12_13  and  C13_14 
ROOT
HETATM    1  C4  UNL     1      55.689  14.441  52.567  1.00  0.00     0.002 C 
ENDROOT
BRANCH   1   2
HETATM    2  C3  UNL     1      55.238  13.163  51.910  1.00  0.00     0.028 C 
BRANCH   2   3
HETATM    3  C2  UNL     1      55.507  11.943  52.774  1.00  0.00     0.237 C 
BRANCH   3   4
HETATM    4  N1  UNL     1      54.295  11.113  52.804  1.00  0.00    -0.071 N 
HETATM    5  C1  UNL     1      54.003  10.625  51.463  1.00  0.00     0.272 C 
HETATM    6  C14 UNL     1      53.172  11.935  53.200  1.00  0.00     0.237 C 
HETATM    7  C15 UNL     1      53.116  12.191  54.672  1.00  0.00     0.028 C 
HETATM    8  C16 UNL     1      52.244  11.209  55.413  1.00  0.00     0.002 C 
HETATM    9  C17 UNL     1      52.798   9.814  55.389  1.00  0.00     0.002 C 
HETATM   10  C18 UNL     1      53.179   9.360  53.990  1.00  0.00     0.028 C 
HETATM   11  C19 UNL     1      54.521   9.999  53.670  1.00  0.00     0.237 C 
ENDBRANCH   3   4
ENDBRANCH   2   3
ENDBRANCH   1   2
BRANCH   1  12
HETATM   12  C5  UNL     1      56.335  14.190  53.913  1.00  0.00     0.000 C 
BRANCH  12  13
HETATM   13  C6  UNL     1      55.661  14.925  55.021  1.00  0.00     0.000 C 
BRANCH  13  14
HETATM   14  C7  UNL     1      56.640  15.707  55.865  1.00  0.00     0.000 C 
BRANCH  14  15
HETATM   15  C8  UNL     1      57.843  16.136  55.078  1.00  0.00     0.001 C 
BRANCH  15  16
HETATM   16  C9  UNL     1      57.873  17.614  54.810  1.00  0.00     0.012 C 
BRANCH  16  17
HETATM   17  C10 UNL     1      57.086  17.876  53.538  1.00  0.00     0.094 C 
BRANCH  17  18
HETATM   18  C11 UNL     1      57.130  19.323  53.249  1.00  0.00    -0.097 C 
HETATM   19  C12 UNL     1      57.156  20.512  53.030  1.00  0.00    -0.009 C 
BRANCH  19  20
HETATM   20  C13 UNL     1      57.172  21.928  52.790  1.00  0.00     0.309 C 
HETATM   21  N2  UNL     1      56.155  22.747  53.342  1.00  0.00    -0.049 NA
HETATM   22  O1  UNL     1      58.071  22.492  52.094  1.00  0.00    -0.262 OA
ENDBRANCH  19  20
ENDBRANCH  17  18
ENDBRANCH  16  17
ENDBRANCH  15  16
ENDBRANCH  14  15
ENDBRANCH  13  14
ENDBRANCH  12  13
ENDBRANCH   1  12
TORSDOF 11
ENDMDL
MODEL 5
REMARK VINA RESULT: -7.547118653      2.955      8.754
REMARK  11 active torsions:
REMARK  status: ('A' for Active; 'I' for Inactive)
REMARK    1  A    between atoms: N1_2  and  C2_3 
REMARK    2  A    between atoms: C2_3  and  C3_4 
REMARK    3  A    between atoms: C3_4  and  C4_5 
REMARK    4  A    between atoms: C4_5  and  C5_6 
REMARK    5  A    between atoms: C5_6  and  C6_7 
REMARK    6  A    between atoms: C6_7  and  C7_8 
REMARK    7  A    between atoms: C7_8  and  C8_9 
REMARK    8  A    between atoms: C8_9  and  C9_10 
REMARK    9  A    between atoms: C9_10  and  C10_11 
REMARK   10  A    between atoms: C10_11  and  C11_12 
REMARK   11  A    between atoms: C12_13  and  C13_14 
ROOT
HETATM    1  C4  UNL     1      57.707  16.161  55.413  1.00  0.00     0.002 C 
ENDROOT
BRANCH   1   2
HETATM    2  C3  UNL     1      58.219  17.410  54.744  1.00  0.00     0.028 C 
BRANCH   2   3
HETATM    3  C2  UNL     1      57.139  18.468  54.591  1.00  0.00     0.237 C 
BRANCH   3   4
HETATM    4  N1  UNL     1      57.493  19.340  53.464  1.00  0.00    -0.071 N 
HETATM    5  C1  UNL     1      57.633  18.542  52.253  1.00  0.00     0.272 C 
HETATM    6  C14 UNL     1      58.787  19.937  53.719  1.00  0.00     0.237 C 
HETATM    7  C15 UNL     1      58.730  21.083  54.677  1.00  0.00     0.028 C 
HETATM    8  C16 UNL     1      58.606  22.422  53.994  1.00  0.00     0.002 C 
HETATM    9  C17 UNL     1      57.296  22.586  53.279  1.00  0.00     0.002 C 
HETATM   10  C18 UNL     1      56.971  21.407  52.378  1.00  0.00     0.028 C 
HETATM   11  C19 UNL     1      56.449  20.297  53.276  1.00  0.00     0.237 C 
ENDBRANCH   3   4
ENDBRANCH   2   3
ENDBRANCH   1   2
BRANCH   1  12
HETATM   12  C5  UNL     1      56.334  15.769  54.908  1.00  0.00     0.000 C 
BRANCH  12  13
HETATM   13  C6  UNL     1      56.311  14.406  54.302  1.00  0.00     0.000 C 
BRANCH  13  14
HETATM   14  C7  UNL     1      55.643  14.396  52.947  1.00  0.00     0.000 C 
BRANCH  14  15
HETATM   15  C8  UNL     1      54.606  13.318  52.841  1.00  0.00     0.001 C 
BRANCH  15  16
HETATM   16  C9  UNL     1      54.054  12.900  54.175  1.00  0.00     0.012 C 
BRANCH  16  17
HETATM   17  C10 UNL     1      53.950  11.385  54.185  1.00  0.00     0.094 C 
BRANCH  17  18
HETATM   18  C11 UNL     1      55.264  10.822  53.821  1.00  0.00    -0.097 C 
HETATM   19  C12 UNL     1      56.351  10.374  53.535  1.00  0.00    -0.009 C 
BRANCH  19  20
HETATM   20  C13 UNL     1      57.652   9.860  53.210  1.00  0.00     0.309 C 
HETATM   21  N2  UNL     1      58.120   8.681  53.842  1.00  0.00    -0.049 NA
HETATM   22  O1  UNL     1      58.416  10.421  52.366  1.00  0.00    -0.262 OA
ENDBRANCH  19  20
ENDBRANCH  17  18
ENDBRANCH  16  17
ENDBRANCH  15  16
ENDBRANCH  14  15
ENDBRANCH  13  14
ENDBRANCH  12  13
ENDBRANCH   1  12
TORSDOF 11
ENDMDL
