MODEL 1
REMARK VINA RESULT: -7.789583228      0.000      0.000
REMARK  9 active torsions:
REMARK  status: ('A' for Active; 'I' for Inactive)
REMARK    1  A    between atoms: N1_2  and  C2_3 
REMARK    2  A    between atoms: C2_3  and  C3_4 
REMARK    3  A    between atoms: C3_4  and  C4_5 
REMARK    4  A    between atoms: C4_5  and  C5_6 
REMARK    5  A    between atoms: C5_6  and  C6_7 
REMARK    6  A    between atoms: C6_7  and  C7_8 
REMARK    7  A    between atoms: C7_8  and  C8_9 
REMARK    8  A    between atoms: C8_9  and  N2_10 
REMARK    9  A    between atoms: N2_10  and  C9_11 
ROOT
HETATM    1  C9  UNL     1      54.389  12.743  52.084  1.00  0.00     0.360 C 
HETATM    2  C10 UNL     1      53.368  11.979  52.802  1.00  0.00     0.087 C 
HETATM    3  N3  UNL     1      52.549  11.373  53.351  1.00  0.00    -0.196 NA
ENDROOT
BRANCH   1   4
HETATM    4  N2  UNL     1      55.721  12.502  52.587  1.00  0.00    -0.055 N 
HETATM    5  C11 UNL     1      56.645  13.181  51.705  1.00  0.00     0.238 C 
HETATM    6  C12 UNL     1      57.187  12.271  50.629  1.00  0.00     0.028 C 
HETATM    7  C13 UNL     1      58.033  11.219  51.282  1.00  0.00     0.003 C 
HETATM    8  C14 UNL     1      57.509  10.819  52.642  1.00  0.00     0.028 C 
HETATM    9  C15 UNL     1      56.026  11.114  52.775  1.00  0.00     0.238 C 
BRANCH   4  10
HETATM   10  C8  UNL     1      55.868  13.151  53.900  1.00  0.00     0.238 C 
BRANCH  10  11
HETATM   11  C7  UNL     1      56.237  14.599  53.754  1.00  0.00     0.028 C 
BRANCH  11  12
HETATM   12  C6  UNL     1      56.671  15.133  55.093  1.00  0.00     0.002 C 
BRANCH  12  13
HETATM   13  C5  UNL     1      57.826  16.106  55.015  1.00  0.00     0.000 C 
BRANCH  13  14
HETATM   14  C4  UNL     1      57.345  17.521  55.078  1.00  0.00     0.002 C 
BRANCH  14  15
HETATM   15  C3  UNL     1      57.998  18.447  54.090  1.00  0.00     0.028 C 
BRANCH  15  16
HETATM   16  C2  UNL     1      56.959  19.194  53.320  1.00  0.00     0.237 C 
BRANCH  16  17
HETATM   17  N1  UNL     1      57.175  20.629  53.338  1.00  0.00    -0.071 N 
HETATM   18  C1  UNL     1      55.951  21.342  53.718  1.00  0.00     0.272 C 
HETATM   19  C16 UNL     1      57.574  21.142  52.041  1.00  0.00     0.237 C 
HETATM   20  C17 UNL     1      58.145  22.505  52.341  1.00  0.00     0.029 C 
HETATM   21  C18 UNL     1      58.526  22.461  53.808  1.00  0.00     0.029 C 
HETATM   22  C19 UNL     1      58.215  21.026  54.244  1.00  0.00     0.237 C 
ENDBRANCH  16  17
ENDBRANCH  15  16
ENDBRANCH  14  15
ENDBRANCH  13  14
ENDBRANCH  12  13
ENDBRANCH  11  12
ENDBRANCH  10  11
ENDBRANCH   4  10
ENDBRANCH   1   4
TORSDOF 9
ENDMDL
MODEL 2
REMARK VINA RESULT: -7.746774763      1.306      7.968
REMARK  9 active torsions:
REMARK  status: ('A' for Active; 'I' for Inactive)
REMARK    1  A    between atoms: N1_2  and  C2_3 
REMARK    2  A    between atoms: C2_3  and  C3_4 
REMARK    3  A    between atoms: C3_4  and  C4_5 
REMARK    4  A    between atoms: C4_5  and  C5_6 
REMARK    5  A    between atoms: C5_6  and  C6_7 
REMARK    6  A    between atoms: C6_7  and  C7_8 
REMARK    7  A    between atoms: C7_8  and  C8_9 
REMARK    8  A    between atoms: C8_9  and  N2_10 
REMARK    9  A    between atoms: N2_10  and  C9_11 
ROOT
HETATM    1  C9  UNL     1      57.634  18.618  52.226  1.00  0.00     0.360 C 
HETATM    2  C10 UNL     1      56.399  17.850  52.056  1.00  0.00     0.087 C 
HETATM    3  N3  UNL     1      55.435  17.229  51.911  1.00  0.00    -0.196 NA
ENDROOT
BRANCH   1   4
HETATM    4  N2  UNL     1      57.656  19.371  53.458  1.00  0.00    -0.055 N 
HETATM    5  C11 UNL     1      56.593  20.349  53.387  1.00  0.00     0.238 C 
HETATM    6  C12 UNL     1      57.077  21.688  52.884  1.00  0.00     0.028 C 
HETATM    7  C13 UNL     1      58.016  22.263  53.902  1.00  0.00     0.003 C 
HETATM    8  C14 UNL     1      58.829  21.200  54.604  1.00  0.00     0.028 C 
HETATM    9  C15 UNL     1      58.936  19.939  53.766  1.00  0.00     0.238 C 
BRANCH   4  10
HETATM   10  C8  UNL     1      57.307  18.480  54.577  1.00  0.00     0.238 C 
BRANCH  10  11
HETATM   11  C7  UNL     1      58.437  17.548  54.904  1.00  0.00     0.028 C 
BRANCH  11  12
HETATM   12  C6  UNL     1      57.901  16.145  55.020  1.00  0.00     0.002 C 
BRANCH  12  13
HETATM   13  C5  UNL     1      56.572  16.059  55.734  1.00  0.00     0.000 C 
BRANCH  13  14
HETATM   14  C4  UNL     1      55.670  15.063  55.076  1.00  0.00     0.002 C 
BRANCH  14  15
HETATM   15  C3  UNL     1      56.317  14.265  53.978  1.00  0.00     0.028 C 
BRANCH  15  16
HETATM   16  C2  UNL     1      55.349  13.275  53.422  1.00  0.00     0.237 C 
BRANCH  16  17
HETATM   17  N1  UNL     1      55.982  12.307  52.544  1.00  0.00    -0.071 N 
HETATM   18  C1  UNL     1      55.078  11.910  51.459  1.00  0.00     0.272 C 
HETATM   19  C16 UNL     1      56.356  11.093  53.243  1.00  0.00     0.237 C 
HETATM   20  C17 UNL     1      57.337  10.419  52.316  1.00  0.00     0.029 C 
HETATM   21  C18 UNL     1      57.861  11.526  51.422  1.00  0.00     0.029 C 
HETATM   22  C19 UNL     1      57.192  12.798  51.952  1.00  0.00     0.237 C 
ENDBRANCH  16  17
ENDBRANCH  15  16
ENDBRANCH  14  15
ENDBRANCH  13  14
ENDBRANCH  12  13
ENDBRANCH  11  12
ENDBRANCH  10  11
ENDBRANCH   4  10
ENDBRANCH   1   4
TORSDOF 9
ENDMDL
MODEL 3
REMARK VINA RESULT: -7.653888103      1.583      8.131
REMARK  9 active torsions:
REMARK  status: ('A' for Active; 'I' for Inactive)
REMARK    1  A    between atoms: N1_2  and  C2_3 
REMARK    2  A    between atoms: C2_3  and  C3_4 
REMARK    3  A    between atoms: C3_4  and  C4_5 
REMARK    4  A    between atoms: C4_5  and  C5_6 
REMARK    5  A    between atoms: C5_6  and  C6_7 
REMARK    6  A    between atoms: C6_7  and  C7_8 
REMARK    7  A    between atoms: C7_8  and  C8_9 
REMARK    8  A    between atoms: C8_9  and  N2_10 
REMARK    9  A    between atoms: N2_10  and  C9_11 
ROOT
HETATM    1  C9  UNL     1      57.658  18.708  52.194  1.00  0.00     0.360 C 
HETATM    2  C10 UNL     1      56.446  17.907  52.015  1.00  0.00     0.087 C 
HETATM    3  N3  UNL     1      55.499  17.260  51.863  1.00  0.00    -0.196 NA
ENDROOT
BRANCH   1   4
HETATM    4  N2  UNL     1      57.672  19.425  53.448  1.00  0.00    -0.055 N 
HETATM    5  C11 UNL     1      56.610  20.406  53.396  1.00  0.00     0.238 C 
HETATM    6  C12 UNL     1      57.099  21.759  52.935  1.00  0.00     0.028 C 
HETATM    7  C13 UNL     1      58.031  22.304  53.976  1.00  0.00     0.003 C 
HETATM    8  C14 UNL     1      58.838  21.220  54.653  1.00  0.00     0.028 C 
HETATM    9  C15 UNL     1      58.950  19.983  53.780  1.00  0.00     0.238 C 
BRANCH   4  10
HETATM   10  C8  UNL     1      57.314  18.503  54.538  1.00  0.00     0.238 C 
BRANCH  10  11
HETATM   11  C7  UNL     1      58.448  17.573  54.859  1.00  0.00     0.028 C 
BRANCH  11  12
HETATM   12  C6  UNL     1      57.909  16.177  55.021  1.00  0.00     0.002 C 
BRANCH  12  13
HETATM   13  C5  UNL     1      56.653  16.102  55.859  1.00  0.00     0.000 C 
BRANCH  13  14
HETATM   14  C4  UNL     1      55.658  15.162  55.257  1.00  0.00     0.002 C 
BRANCH  14  15
HETATM   15  C3  UNL     1      56.201  14.303  54.149  1.00  0.00     0.028 C 
BRANCH  15  16
HETATM   16  C2  UNL     1      55.114  13.957  53.186  1.00  0.00     0.237 C 
BRANCH  16  17
HETATM   17  N1  UNL     1      54.762  12.548  53.224  1.00  0.00    -0.071 N 
HETATM   18  C1  UNL     1      54.346  12.075  51.900  1.00  0.00     0.272 C 
HETATM   19  C16 UNL     1      53.663  12.280  54.131  1.00  0.00     0.237 C 
HETATM   20  C17 UNL     1      53.722  10.789  54.354  1.00  0.00     0.029 C 
HETATM   21  C18 UNL     1      55.144  10.393  54.004  1.00  0.00     0.029 C 
HETATM   22  C19 UNL     1      55.842  11.715  53.671  1.00  0.00     0.237 C 
ENDBRANCH  16  17
ENDBRANCH  15  16
ENDBRANCH  14  15
ENDBRANCH  13  14
ENDBRANCH  12  13
ENDBRANCH  11  12
ENDBRANCH  10  11
ENDBRANCH   4  10
ENDBRANCH   1   4
TORSDOF 9
ENDMDL
MODEL 4
REMARK VINA RESULT: -7.538002520      1.335      2.826
REMARK  9 active torsions:
REMARK  status: ('A' for Active; 'I' for Inactive)
REMARK    1  A    between atoms: N1_2  and  C2_3 
REMARK    2  A    between atoms: C2_3  and  C3_4 
REMARK    3  A    between atoms: C3_4  and  C4_5 
REMARK    4  A    between atoms: C4_5  and  C5_6 
REMARK    5  A    between atoms: C5_6  and  C6_7 
REMARK    6  A    between atoms: C6_7  and  C7_8 
REMARK    7  A    between atoms: C7_8  and  C8_9 
REMARK    8  A    between atoms: C8_9  and  N2_10 
REMARK    9  A    between atoms: N2_10  and  C9_11 
ROOT
HETATM    1  C9  UNL     1      56.002  11.553  51.614  1.00  0.00     0.360 C 
HETATM    2  C10 UNL     1      57.402  11.140  51.723  1.00  0.00     0.087 C 
HETATM    3  N3  UNL     1      58.511  10.818  51.788  1.00  0.00    -0.196 NA
ENDROOT
BRANCH   1   4
HETATM    4  N2  UNL     1      55.486  12.100  52.847  1.00  0.00    -0.055 N 
HETATM    5  C11 UNL     1      55.661  11.095  53.873  1.00  0.00     0.238 C 
HETATM    6  C12 UNL     1      54.429  10.242  54.059  1.00  0.00     0.028 C 
HETATM    7  C13 UNL     1      53.331  11.110  54.600  1.00  0.00     0.003 C 
HETATM    8  C14 UNL     1      53.396  12.522  54.067  1.00  0.00     0.028 C 
HETATM    9  C15 UNL     1      54.140  12.584  52.745  1.00  0.00     0.238 C 
BRANCH   4  10
HETATM   10  C8  UNL     1      56.319  13.242  53.257  1.00  0.00     0.238 C 
BRANCH  10  11
HETATM   11  C7  UNL     1      56.017  14.460  52.433  1.00  0.00     0.028 C 
BRANCH  11  12
HETATM   12  C6  UNL     1      56.262  15.691  53.265  1.00  0.00     0.002 C 
BRANCH  12  13
HETATM   13  C5  UNL     1      57.094  15.434  54.501  1.00  0.00     0.000 C 
BRANCH  13  14
HETATM   14  C4  UNL     1      57.787  16.680  54.953  1.00  0.00     0.002 C 
BRANCH  14  15
HETATM   15  C3  UNL     1      57.458  17.905  54.145  1.00  0.00     0.028 C 
BRANCH  15  16
HETATM   16  C2  UNL     1      58.548  18.917  54.277  1.00  0.00     0.237 C 
BRANCH  16  17
HETATM   17  N1  UNL     1      58.059  20.281  54.177  1.00  0.00    -0.071 N 
HETATM   18  C1  UNL     1      56.970  20.521  55.130  1.00  0.00     0.272 C 
HETATM   19  C16 UNL     1      57.537  20.583  52.859  1.00  0.00     0.237 C 
HETATM   20  C17 UNL     1      57.480  22.090  52.819  1.00  0.00     0.029 C 
HETATM   21  C18 UNL     1      58.458  22.551  53.882  1.00  0.00     0.029 C 
HETATM   22  C19 UNL     1      59.080  21.258  54.420  1.00  0.00     0.237 C 
ENDBRANCH  16  17
ENDBRANCH  15  16
ENDBRANCH  14  15
ENDBRANCH  13  14
ENDBRANCH  12  13
ENDBRANCH  11  12
ENDBRANCH  10  11
ENDBRANCH   4  10
ENDBRANCH   1   4
TORSDOF 9
ENDMDL
MODEL 5
REMARK VINA RESULT: -7.521946022      1.396      2.513
REMARK  9 active torsions:
REMARK  status: ('A' for Active; 'I' for Inactive)
REMARK    1  A    between atoms: N1_2  and  C2_3 
REMARK    2  A    between atoms: C2_3  and  C3_4 
REMARK    3  A    between atoms: C3_4  and  C4_5 
REMARK    4  A    between atoms: C4_5  and  C5_6 
REMARK    5  A    between atoms: C5_6  and  C6_7 
REMARK    6  A    between atoms: C6_7  and  C7_8 
REMARK    7  A    between atoms: C7_8  and  C8_9 
REMARK    8  A    between atoms: C8_9  and  N2_10 
REMARK    9  A    between atoms: N2_10  and  C9_11 
ROOT
HETATM    1  C9  UNL     1      56.175  15.080  51.282  1.00  0.00     0.360 C 
HETATM    2  C10 UNL     1      55.776  16.419  51.714  1.00  0.00     0.087 C 
HETATM    3  N3  UNL     1      55.456  17.484  52.036  1.00  0.00    -0.196 NA
ENDROOT
BRANCH   1   4
HETATM    4  N2  UNL     1      55.855  14.061  52.255  1.00  0.00    -0.055 N 
HETATM    5  C11 UNL     1      57.057  13.290  52.485  1.00  0.00     0.238 C 
HETATM    6  C12 UNL     1      57.119  12.052  51.622  1.00  0.00     0.028 C 
HETATM    7  C13 UNL     1      56.019  11.125  52.045  1.00  0.00     0.003 C 
HETATM    8  C14 UNL     1      54.782  11.865  52.497  1.00  0.00     0.028 C 
HETATM    9  C15 UNL     1      54.720  13.260  51.901  1.00  0.00     0.238 C 
BRANCH   4  10
HETATM   10  C8  UNL     1      55.537  14.703  53.541  1.00  0.00     0.238 C 
BRANCH  10  11
HETATM   11  C7  UNL     1      56.706  14.649  54.481  1.00  0.00     0.028 C 
BRANCH  11  12
HETATM   12  C6  UNL     1      56.372  15.425  55.728  1.00  0.00     0.002 C 
BRANCH  12  13
HETATM   13  C5  UNL     1      56.960  16.817  55.755  1.00  0.00     0.000 C 
BRANCH  13  14
HETATM   14  C4  UNL     1      58.251  16.872  55.002  1.00  0.00     0.002 C 
BRANCH  14  15
HETATM   15  C3  UNL     1      58.495  18.166  54.275  1.00  0.00     0.028 C 
BRANCH  15  16
HETATM   16  C2  UNL     1      57.411  19.143  54.586  1.00  0.00     0.237 C 
BRANCH  16  17
HETATM   17  N1  UNL     1      57.518  20.363  53.805  1.00  0.00    -0.071 N 
HETATM   18  C1  UNL     1      57.768  20.062  52.392  1.00  0.00     0.272 C 
HETATM   19  C16 UNL     1      58.606  21.210  54.253  1.00  0.00     0.237 C 
HETATM   20  C17 UNL     1      58.305  22.555  53.640  1.00  0.00     0.029 C 
HETATM   21  C18 UNL     1      56.819  22.530  53.341  1.00  0.00     0.029 C 
HETATM   22  C19 UNL     1      56.340  21.178  53.880  1.00  0.00     0.237 C 
ENDBRANCH  16  17
ENDBRANCH  15  16
ENDBRANCH  14  15
ENDBRANCH  13  14
ENDBRANCH  12  13
ENDBRANCH  11  12
ENDBRANCH  10  11
ENDBRANCH   4  10
ENDBRANCH   1   4
TORSDOF 9
ENDMDL
