MODEL 1
REMARK VINA RESULT: -6.168492667      0.000      0.000
REMARK  1 active torsions:
REMARK  status: ('A' for Active; 'I' for Inactive)
REMARK    1  A    between atoms: C2_2  and  C3_3 
ROOT
HETATM    1  C3  UNL     1     -36.358 -10.178 -46.687  1.00  0.00     0.103 C 
HETATM    2  C4  UNL     1     -36.812 -10.555 -48.050  1.00  0.00     0.074 C 
HETATM    3  N1  UNL     1     -37.151 -10.860 -49.113  1.00  0.00    -0.196 NA
HETATM    4  C5  UNL     1     -36.107 -11.447 -45.947  1.00  0.00     0.192 C 
HETATM    5  C6  UNL     1     -35.831 -12.538 -46.898  1.00  0.00     0.074 C 
HETATM    6  N2  UNL     1     -35.604 -13.412 -47.636  1.00  0.00    -0.196 NA
HETATM    7  C7  UNL     1     -34.840 -11.187 -45.228  1.00  0.00     0.132 C 
HETATM    8  N3  UNL     1     -34.419 -11.662 -44.105  1.00  0.00    -0.382 N 
ATOM      9  H31 UNL     1     -33.546 -11.483 -43.609  1.00  0.00     0.158 HD
ATOM     10  H32 UNL     1     -34.952 -12.322 -43.539  1.00  0.00     0.158 HD
HETATM   11  O1  UNL     1     -34.120 -10.297 -45.991  1.00  0.00    -0.326 OA
HETATM   12  C8  UNL     1     -35.019  -9.563 -46.821  1.00  0.00     0.084 C 
HETATM   13  C9  UNL     1     -34.462  -9.710 -48.243  1.00  0.00     0.048 C 
HETATM   14  C10 UNL     1     -34.922  -8.124 -46.459  1.00  0.00     0.048 C 
ENDROOT
BRANCH   1  15
HETATM   15  C2  UNL     1     -37.419  -9.313 -46.107  1.00  0.00     0.025 C 
HETATM   16  C1  UNL     1     -38.342  -9.957 -45.152  1.00  0.00     0.007 C 
ENDBRANCH   1  15
TORSDOF 1
ENDMDL
MODEL 2
REMARK VINA RESULT: -5.863505083      2.091      2.881
REMARK  1 active torsions:
REMARK  status: ('A' for Active; 'I' for Inactive)
REMARK    1  A    between atoms: C2_2  and  C3_3 
ROOT
HETATM    1  C3  UNL     1     -36.086 -10.329 -46.121  1.00  0.00     0.103 C 
HETATM    2  C4  UNL     1     -34.757 -10.547 -46.747  1.00  0.00     0.074 C 
HETATM    3  N1  UNL     1     -33.722 -10.734 -47.231  1.00  0.00    -0.196 NA
HETATM    4  C5  UNL     1     -37.006 -11.354 -46.689  1.00  0.00     0.192 C 
HETATM    5  C6  UNL     1     -36.233 -12.512 -47.171  1.00  0.00     0.074 C 
HETATM    6  N2  UNL     1     -35.638 -13.439 -47.552  1.00  0.00    -0.196 NA
HETATM    7  C7  UNL     1     -37.774 -11.823 -45.513  1.00  0.00     0.132 C 
HETATM    8  N3  UNL     1     -38.978 -12.280 -45.446  1.00  0.00    -0.382 N 
ATOM      9  H31 UNL     1     -39.507 -12.603 -44.636  1.00  0.00     0.158 HD
ATOM     10  H32 UNL     1     -39.587 -12.379 -46.258  1.00  0.00     0.158 HD
HETATM   11  O1  UNL     1     -36.951 -11.690 -44.418  1.00  0.00    -0.326 OA
HETATM   12  C8  UNL     1     -35.968 -10.694 -44.693  1.00  0.00     0.084 C 
HETATM   13  C9  UNL     1     -34.623 -11.364 -44.384  1.00  0.00     0.048 C 
HETATM   14  C10 UNL     1     -36.139  -9.585 -43.718  1.00  0.00     0.048 C 
ENDROOT
BRANCH   1  15
HETATM   15  C2  UNL     1     -36.466  -8.919 -46.406  1.00  0.00     0.025 C 
HETATM   16  C1  UNL     1     -36.677  -8.569 -47.824  1.00  0.00     0.007 C 
ENDBRANCH   1  15
TORSDOF 1
ENDMDL
MODEL 3
REMARK VINA RESULT: -5.849042361      2.073      3.642
REMARK  1 active torsions:
REMARK  status: ('A' for Active; 'I' for Inactive)
REMARK    1  A    between atoms: C2_2  and  C3_3 
ROOT
HETATM    1  C3  UNL     1     -35.839 -10.584 -46.171  1.00  0.00     0.103 C 
HETATM    2  C4  UNL     1     -34.698 -11.426 -45.729  1.00  0.00     0.074 C 
HETATM    3  N1  UNL     1     -33.802 -12.081 -45.402  1.00  0.00    -0.196 NA
HETATM    4  C5  UNL     1     -35.259  -9.374 -46.819  1.00  0.00     0.192 C 
HETATM    5  C6  UNL     1     -33.900  -9.666 -47.306  1.00  0.00     0.074 C 
HETATM    6  N2  UNL     1     -32.826  -9.882 -47.705  1.00  0.00    -0.196 NA
HETATM    7  C7  UNL     1     -36.103  -9.183 -48.020  1.00  0.00     0.132 C 
HETATM    8  N3  UNL     1     -36.412  -8.097 -48.643  1.00  0.00    -0.382 N 
ATOM      9  H31 UNL     1     -36.994  -7.966 -49.471  1.00  0.00     0.158 HD
ATOM     10  H32 UNL     1     -36.086  -7.174 -48.359  1.00  0.00     0.158 HD
HETATM   11  O1  UNL     1     -36.543 -10.429 -48.403  1.00  0.00    -0.326 OA
HETATM   12  C8  UNL     1     -36.517 -11.300 -47.274  1.00  0.00     0.084 C 
HETATM   13  C9  UNL     1     -35.720 -12.527 -47.733  1.00  0.00     0.048 C 
HETATM   14  C10 UNL     1     -37.906 -11.755 -47.001  1.00  0.00     0.048 C 
ENDROOT
BRANCH   1  15
HETATM   15  C2  UNL     1     -36.663 -10.314 -44.963  1.00  0.00     0.025 C 
HETATM   16  C1  UNL     1     -36.061  -9.440 -43.938  1.00  0.00     0.007 C 
ENDBRANCH   1  15
TORSDOF 1
ENDMDL
MODEL 4
REMARK VINA RESULT: -5.843935189      1.879      2.854
REMARK  1 active torsions:
REMARK  status: ('A' for Active; 'I' for Inactive)
REMARK    1  A    between atoms: C2_2  and  C3_3 
ROOT
HETATM    1  C3  UNL     1     -37.169 -11.875 -45.988  1.00  0.00     0.103 C 
HETATM    2  C4  UNL     1     -36.473 -12.804 -46.915  1.00  0.00     0.074 C 
HETATM    3  N1  UNL     1     -35.917 -13.515 -47.638  1.00  0.00    -0.196 NA
HETATM    4  C5  UNL     1     -36.214 -11.563 -44.888  1.00  0.00     0.192 C 
HETATM    5  C6  UNL     1     -34.830 -11.767 -45.351  1.00  0.00     0.074 C 
HETATM    6  N2  UNL     1     -33.728 -11.917 -45.702  1.00  0.00    -0.196 NA
HETATM    7  C7  UNL     1     -36.378 -10.106 -44.685  1.00  0.00     0.132 C 
HETATM    8  N3  UNL     1     -36.229  -9.403 -43.615  1.00  0.00    -0.382 N 
ATOM      9  H31 UNL     1     -36.342  -8.398 -43.476  1.00  0.00     0.158 HD
ATOM     10  H32 UNL     1     -35.961  -9.799 -42.715  1.00  0.00     0.158 HD
HETATM   11  O1  UNL     1     -36.739  -9.571 -45.901  1.00  0.00    -0.326 OA
HETATM   12  C8  UNL     1     -37.343 -10.589 -46.697  1.00  0.00     0.084 C 
HETATM   13  C9  UNL     1     -36.580 -10.562 -48.027  1.00  0.00     0.048 C 
HETATM   14  C10 UNL     1     -38.745 -10.186 -46.987  1.00  0.00     0.048 C 
ENDROOT
BRANCH   1  15
HETATM   15  C2  UNL     1     -38.419 -12.558 -45.558  1.00  0.00     0.025 C 
HETATM   16  C1  UNL     1     -38.892 -13.663 -46.414  1.00  0.00     0.007 C 
ENDBRANCH   1  15
TORSDOF 1
ENDMDL
MODEL 5
REMARK VINA RESULT: -5.805323516      1.843      3.385
REMARK  1 active torsions:
REMARK  status: ('A' for Active; 'I' for Inactive)
REMARK    1  A    between atoms: C2_2  and  C3_3 
ROOT
HETATM    1  C3  UNL     1     -35.914 -10.488 -46.246  1.00  0.00     0.103 C 
HETATM    2  C4  UNL     1     -34.711 -11.355 -46.153  1.00  0.00     0.074 C 
HETATM    3  N1  UNL     1     -33.785 -12.044 -46.077  1.00  0.00    -0.196 NA
HETATM    4  C5  UNL     1     -36.904 -11.210 -47.093  1.00  0.00     0.192 C 
HETATM    5  C6  UNL     1     -36.635 -12.658 -47.060  1.00  0.00     0.074 C 
HETATM    6  N2  UNL     1     -36.441 -13.807 -47.039  1.00  0.00    -0.196 NA
HETATM    7  C7  UNL     1     -38.187 -11.005 -46.382  1.00  0.00     0.132 C 
HETATM    8  N3  UNL     1     -39.386 -10.939 -46.852  1.00  0.00    -0.382 N 
ATOM      9  H31 UNL     1     -40.270 -10.799 -46.362  1.00  0.00     0.158 HD
ATOM     10  H32 UNL     1     -39.607 -11.028 -47.844  1.00  0.00     0.158 HD
HETATM   11  O1  UNL     1     -37.889 -10.887 -45.044  1.00  0.00    -0.326 OA
HETATM   12  C8  UNL     1     -36.538 -10.452 -44.905  1.00  0.00     0.084 C 
HETATM   13  C9  UNL     1     -35.890 -11.461 -43.946  1.00  0.00     0.048 C 
HETATM   14  C10 UNL     1     -36.538  -9.133 -44.219  1.00  0.00     0.048 C 
ENDROOT
BRANCH   1  15
HETATM   15  C2  UNL     1     -35.458  -9.181 -46.789  1.00  0.00     0.025 C 
HETATM   16  C1  UNL     1     -34.913  -9.194 -48.161  1.00  0.00     0.007 C 
ENDBRANCH   1  15
TORSDOF 1
ENDMDL
