MODEL 1
REMARK VINA RESULT: -5.000652896      0.000      0.000
REMARK  1 active torsions:
REMARK  status: ('A' for Active; 'I' for Inactive)
REMARK    1  A    between atoms: C2_4  and  C3_5 
ROOT
HETATM    1  C3  UNL     1     -36.372 -11.608 -46.830  1.00  0.00     0.077 C 
HETATM    2  C4  UNL     1     -37.016 -10.513 -46.022  1.00  0.00     0.284 C 
HETATM    3  N1  UNL     1     -35.984  -9.661 -45.439  1.00  0.00     0.089 N 
HETATM    4  C5  UNL     1     -35.300 -10.352 -44.368  1.00  0.00     0.273 C 
HETATM    5  C6  UNL     1     -34.767 -11.665 -44.887  1.00  0.00     0.036 C 
HETATM    6  C7  UNL     1     -34.932 -11.737 -46.387  1.00  0.00     0.001 C 
HETATM    7  C8  UNL     1     -34.216 -10.497 -46.942  1.00  0.00     0.036 C 
HETATM    8  C9  UNL     1     -35.013  -9.309 -46.448  1.00  0.00     0.273 C 
ENDROOT
BRANCH   1   9
HETATM    9  C2  UNL     1     -37.117 -12.899 -46.747  1.00  0.00     0.077 A 
HETATM   10  C1  UNL     1     -38.405 -13.155 -46.364  1.00  0.00     0.109 A 
HETATM   11  S1  UNL     1     -38.136 -14.789 -46.648  1.00  0.00     0.026 SA
HETATM   12  O1  UNL     1     -36.691 -14.126 -47.033  1.00  0.00    -0.278 OA
ENDBRANCH   1   9
TORSDOF 1
ENDMDL
MODEL 2
REMARK VINA RESULT: -4.756491526      3.227      4.067
REMARK  1 active torsions:
REMARK  status: ('A' for Active; 'I' for Inactive)
REMARK    1  A    between atoms: C2_4  and  C3_5 
ROOT
HETATM    1  C3  UNL     1     -34.879  -9.987 -46.935  1.00  0.00     0.077 C 
HETATM    2  C4  UNL     1     -36.341  -9.770 -46.647  1.00  0.00     0.284 C 
HETATM    3  N1  UNL     1     -36.850 -10.869 -45.834  1.00  0.00     0.089 N 
HETATM    4  C5  UNL     1     -36.958 -12.077 -46.621  1.00  0.00     0.273 C 
HETATM    5  C6  UNL     1     -35.622 -12.374 -47.257  1.00  0.00     0.036 C 
HETATM    6  C7  UNL     1     -34.565 -11.448 -46.703  1.00  0.00     0.001 C 
HETATM    7  C8  UNL     1     -34.601 -11.642 -45.181  1.00  0.00     0.036 C 
HETATM    8  C9  UNL     1     -35.949 -11.121 -44.734  1.00  0.00     0.273 C 
ENDROOT
BRANCH   1   9
HETATM    9  C2  UNL     1     -34.486  -9.523 -48.298  1.00  0.00     0.077 A 
HETATM   10  C1  UNL     1     -35.242  -9.334 -49.422  1.00  0.00     0.109 A 
HETATM   11  S1  UNL     1     -33.857  -8.849 -50.241  1.00  0.00     0.026 SA
HETATM   12  O1  UNL     1     -33.282  -9.177 -48.744  1.00  0.00    -0.278 OA
ENDBRANCH   1   9
TORSDOF 1
ENDMDL
MODEL 3
REMARK VINA RESULT: -4.716125123      2.492      3.435
REMARK  1 active torsions:
REMARK  status: ('A' for Active; 'I' for Inactive)
REMARK    1  A    between atoms: C2_4  and  C3_5 
ROOT
HETATM    1  C3  UNL     1     -35.901 -11.568 -46.943  1.00  0.00     0.077 C 
HETATM    2  C4  UNL     1     -34.594 -11.433 -46.208  1.00  0.00     0.284 C 
HETATM    3  N1  UNL     1     -34.849 -11.248 -44.783  1.00  0.00     0.089 N 
HETATM    4  C5  UNL     1     -35.381  -9.928 -44.528  1.00  0.00     0.273 C 
HETATM    5  C6  UNL     1     -36.604  -9.714 -45.386  1.00  0.00     0.036 C 
HETATM    6  C7  UNL     1     -36.996 -11.006 -46.065  1.00  0.00     0.001 C 
HETATM    7  C8  UNL     1     -37.184 -12.027 -44.934  1.00  0.00     0.036 C 
HETATM    8  C9  UNL     1     -35.811 -12.223 -44.328  1.00  0.00     0.273 C 
ENDROOT
BRANCH   1   9
HETATM    9  C2  UNL     1     -35.868 -10.937 -48.295  1.00  0.00     0.077 A 
HETATM   10  C1  UNL     1     -35.158  -9.862 -48.755  1.00  0.00     0.109 A 
HETATM   11  S1  UNL     1     -35.864 -10.074 -50.265  1.00  0.00     0.026 SA
HETATM   12  O1  UNL     1     -36.536 -11.284 -49.392  1.00  0.00    -0.278 OA
ENDBRANCH   1   9
TORSDOF 1
ENDMDL
MODEL 4
REMARK VINA RESULT: -4.698226912      1.457      1.822
REMARK  1 active torsions:
REMARK  status: ('A' for Active; 'I' for Inactive)
REMARK    1  A    between atoms: C2_4  and  C3_5 
ROOT
HETATM    1  C3  UNL     1     -35.354 -10.982 -47.786  1.00  0.00     0.077 C 
HETATM    2  C4  UNL     1     -36.246  -9.790 -48.002  1.00  0.00     0.284 C 
HETATM    3  N1  UNL     1     -35.540  -8.572 -47.618  1.00  0.00     0.089 N 
HETATM    4  C5  UNL     1     -35.410  -8.491 -46.179  1.00  0.00     0.273 C 
HETATM    5  C6  UNL     1     -34.750  -9.750 -45.672  1.00  0.00     0.036 C 
HETATM    6  C7  UNL     1     -34.253 -10.581 -46.831  1.00  0.00     0.001 C 
HETATM    7  C8  UNL     1     -33.325  -9.658 -47.634  1.00  0.00     0.036 C 
HETATM    8  C9  UNL     1     -34.217  -8.571 -48.196  1.00  0.00     0.273 C 
ENDROOT
BRANCH   1   9
HETATM    9  C2  UNL     1     -36.105 -12.187 -47.324  1.00  0.00     0.077 A 
HETATM   10  C1  UNL     1     -37.270 -12.286 -46.614  1.00  0.00     0.109 A 
HETATM   11  S1  UNL     1     -37.142 -13.959 -46.686  1.00  0.00     0.026 SA
HETATM   12  O1  UNL     1     -35.809 -13.471 -47.500  1.00  0.00    -0.278 OA
ENDBRANCH   1   9
TORSDOF 1
ENDMDL
MODEL 5
REMARK VINA RESULT: -4.687648197      2.997      4.092
REMARK  1 active torsions:
REMARK  status: ('A' for Active; 'I' for Inactive)
REMARK    1  A    between atoms: C2_4  and  C3_5 
ROOT
HETATM    1  C3  UNL     1     -36.034 -10.692 -46.574  1.00  0.00     0.077 C 
HETATM    2  C4  UNL     1     -35.712 -12.146 -46.357  1.00  0.00     0.284 C 
HETATM    3  N1  UNL     1     -36.508 -12.665 -45.249  1.00  0.00     0.089 N 
HETATM    4  C5  UNL     1     -36.027 -12.143 -43.988  1.00  0.00     0.273 C 
HETATM    5  C6  UNL     1     -36.005 -10.636 -44.054  1.00  0.00     0.036 C 
HETATM    6  C7  UNL     1     -36.684 -10.160 -45.317  1.00  0.00     0.001 C 
HETATM    7  C8  UNL     1     -38.091 -10.774 -45.287  1.00  0.00     0.036 C 
HETATM    8  C9  UNL     1     -37.886 -12.269 -45.410  1.00  0.00     0.273 C 
ENDROOT
BRANCH   1   9
HETATM    9  C2  UNL     1     -34.841  -9.894 -46.986  1.00  0.00     0.077 A 
HETATM   10  C1  UNL     1     -34.730  -8.570 -47.310  1.00  0.00     0.109 A 
HETATM   11  S1  UNL     1     -33.086  -8.799 -47.573  1.00  0.00     0.026 SA
HETATM   12  O1  UNL     1     -33.582 -10.296 -47.135  1.00  0.00    -0.278 OA
ENDBRANCH   1   9
TORSDOF 1
ENDMDL
