MODEL 1
REMARK VINA RESULT: -8.693087450      0.000      0.000
REMARK  11 active torsions:
REMARK  status: ('A' for Active; 'I' for Inactive)
REMARK    1  A    between atoms: C2_2  and  N1_3 
REMARK    2  A    between atoms: C2_2  and  C29_37 
REMARK       I    between atoms: N1_3  and  C3_5 
REMARK    3  A    between atoms: C3_5  and  C4_7 
REMARK    4  A    between atoms: C4_7  and  C5_8 
REMARK    5  A    between atoms: C5_8  and  C6_9 
REMARK    6  A    between atoms: C5_8  and  C18_26 
REMARK    7  A    between atoms: C5_8  and  C24_32 
REMARK    8  A    between atoms: C6_9  and  C7_10 
REMARK    9  A    between atoms: C7_10  and  C8_11 
REMARK   10  A    between atoms: C8_11  and  C9_12 
REMARK       I    between atoms: N2_15  and  C12_16 
REMARK   11  A    between atoms: C12_16  and  C13_18 
ROOT
HETATM    1  C5  UNL     1       8.746  -4.929  15.027  1.00  0.00    -0.010 C 
ENDROOT
BRANCH   1   2
HETATM    2  C4  UNL     1       7.358  -5.383  15.070  1.00  0.00     0.057 C 
BRANCH   2   3
HETATM    3  C3  UNL     1       6.355  -4.917  15.996  1.00  0.00     0.238 C 
HETATM    4  N1  UNL     1       5.042  -4.535  15.593  1.00  0.00    -0.345 N 
ATOM      5  H1  UNL     1       4.828  -4.600  14.598  1.00  0.00     0.163 HD
HETATM    6  O1  UNL     1       6.500  -4.799  17.211  1.00  0.00    -0.269 OA
BRANCH   4   7
HETATM    7  C2  UNL     1       4.001  -4.070  16.447  1.00  0.00     0.170 C 
HETATM    8  C1  UNL     1       3.395  -2.813  15.874  1.00  0.00     0.042 C 
BRANCH   7   9
HETATM    9  C29 UNL     1       2.976  -5.156  16.612  1.00  0.00     0.253 C 
HETATM   10  N4  UNL     1       3.241  -6.266  17.450  1.00  0.00    -0.060 NA
HETATM   11  O3  UNL     1       1.864  -5.102  16.010  1.00  0.00    -0.275 OA
ENDBRANCH   7   9
ENDBRANCH   4   7
ENDBRANCH   2   3
ENDBRANCH   1   2
BRANCH   1  12
HETATM   12  C6  UNL     1       8.871  -3.434  15.263  1.00  0.00     0.014 C 
BRANCH  12  13
HETATM   13  C7  UNL     1       8.591  -2.560  14.105  1.00  0.00     0.003 C 
BRANCH  13  14
HETATM   14  C8  UNL     1       7.367  -1.675  14.415  1.00  0.00     0.033 C 
BRANCH  14  15
HETATM   15  C9  UNL     1       7.020  -0.837  13.201  1.00  0.00     0.189 C 
HETATM   16  C10 UNL     1       6.874   0.599  13.603  1.00  0.00     0.053 C 
HETATM   17  C11 UNL     1       5.969   1.381  12.655  1.00  0.00     0.129 C 
HETATM   18  N2  UNL     1       4.718   0.661  12.600  1.00  0.00    -0.328 N 
HETATM   19  C12 UNL     1       3.592   1.255  12.012  1.00  0.00     0.228 C 
HETATM   20  C17 UNL     1       4.684  -0.653  13.165  1.00  0.00     0.359 C 
HETATM   21  O2  UNL     1       3.754   2.452  11.548  1.00  0.00    -0.273 OA
HETATM   22  N3  UNL     1       5.831  -1.386  12.594  1.00  0.00    -0.055 N 
ATOM     23  H32 UNL     1       5.855  -1.365  11.574  1.00  0.00     0.279 HD
ATOM     24  H31 UNL     1       5.756  -2.397  12.701  1.00  0.00     0.279 HD
BRANCH  19  25
HETATM   25  C13 UNL     1       2.249   0.662  11.867  1.00  0.00     0.030 C 
HETATM   26  C14 UNL     1       1.243   1.782  11.628  1.00  0.00     0.025 C 
HETATM   27  C15 UNL     1       2.207  -0.193  10.613  1.00  0.00     0.025 C 
HETATM   28  C16 UNL     1       1.792  -0.103  13.077  1.00  0.00     0.025 C 
ENDBRANCH  19  25
ENDBRANCH  14  15
ENDBRANCH  13  14
ENDBRANCH  12  13
ENDBRANCH   1  12
BRANCH   1  29
HETATM   29  C18 UNL     1       9.765  -5.553  15.916  1.00  0.00    -0.002 C 
HETATM   30  C19 UNL     1       9.438  -6.932  16.441  1.00  0.00     0.005 C 
HETATM   31  C20 UNL     1      10.534  -7.228  17.482  1.00  0.00     0.000 C 
HETATM   32  C21 UNL     1      10.114  -6.450  18.698  1.00  0.00     0.000 C 
HETATM   33  C22 UNL     1      10.180  -4.994  18.355  1.00  0.00     0.000 C 
HETATM   34  C23 UNL     1      10.480  -4.719  16.895  1.00  0.00     0.005 C 
ENDBRANCH   1  29
BRANCH   1  35
HETATM   35  C24 UNL     1       9.171  -5.036  13.542  1.00  0.00    -0.002 C 
HETATM   36  C25 UNL     1       8.117  -5.742  12.754  1.00  0.00     0.005 C 
HETATM   37  C26 UNL     1       8.808  -6.685  11.789  1.00  0.00     0.000 C 
HETATM   38  C27 UNL     1      10.216  -6.810  12.224  1.00  0.00     0.000 C 
HETATM   39  C28 UNL     1      10.443  -5.764  13.296  1.00  0.00     0.005 C 
ENDBRANCH   1  35
TORSDOF 11
ENDMDL
MODEL 2
REMARK VINA RESULT: -8.637890263      1.308      1.739
REMARK  11 active torsions:
REMARK  status: ('A' for Active; 'I' for Inactive)
REMARK    1  A    between atoms: C2_2  and  N1_3 
REMARK    2  A    between atoms: C2_2  and  C29_37 
REMARK       I    between atoms: N1_3  and  C3_5 
REMARK    3  A    between atoms: C3_5  and  C4_7 
REMARK    4  A    between atoms: C4_7  and  C5_8 
REMARK    5  A    between atoms: C5_8  and  C6_9 
REMARK    6  A    between atoms: C5_8  and  C18_26 
REMARK    7  A    between atoms: C5_8  and  C24_32 
REMARK    8  A    between atoms: C6_9  and  C7_10 
REMARK    9  A    between atoms: C7_10  and  C8_11 
REMARK   10  A    between atoms: C8_11  and  C9_12 
REMARK       I    between atoms: N2_15  and  C12_16 
REMARK   11  A    between atoms: C12_16  and  C13_18 
ROOT
HETATM    1  C5  UNL     1       8.777  -4.834  15.074  1.00  0.00    -0.010 C 
ENDROOT
BRANCH   1   2
HETATM    2  C4  UNL     1       7.363  -5.193  15.157  1.00  0.00     0.057 C 
BRANCH   2   3
HETATM    3  C3  UNL     1       6.510  -4.969  16.298  1.00  0.00     0.238 C 
HETATM    4  N1  UNL     1       6.022  -6.024  17.123  1.00  0.00    -0.345 N 
ATOM      5  H1  UNL     1       6.300  -6.972  16.872  1.00  0.00     0.163 HD
HETATM    6  O1  UNL     1       6.113  -3.874  16.693  1.00  0.00    -0.269 OA
BRANCH   4   7
HETATM    7  C2  UNL     1       5.181  -5.880  18.264  1.00  0.00     0.170 C 
HETATM    8  C1  UNL     1       3.902  -6.651  18.055  1.00  0.00     0.042 C 
BRANCH   7   9
HETATM    9  C29 UNL     1       5.921  -6.350  19.485  1.00  0.00     0.253 C 
HETATM   10  N4  UNL     1       5.506  -7.522  20.162  1.00  0.00    -0.060 NA
HETATM   11  O3  UNL     1       6.921  -5.715  19.929  1.00  0.00    -0.275 OA
ENDBRANCH   7   9
ENDBRANCH   4   7
ENDBRANCH   2   3
ENDBRANCH   1   2
BRANCH   1  12
HETATM   12  C6  UNL     1       9.010  -3.350  15.296  1.00  0.00     0.014 C 
BRANCH  12  13
HETATM   13  C7  UNL     1       8.728  -2.461  14.150  1.00  0.00     0.003 C 
BRANCH  13  14
HETATM   14  C8  UNL     1       7.520  -1.563  14.482  1.00  0.00     0.033 C 
BRANCH  14  15
HETATM   15  C9  UNL     1       7.159  -0.721  13.275  1.00  0.00     0.189 C 
HETATM   16  C10 UNL     1       6.966   0.704  13.692  1.00  0.00     0.053 C 
HETATM   17  C11 UNL     1       6.048   1.471  12.745  1.00  0.00     0.129 C 
HETATM   18  N2  UNL     1       4.820   0.713  12.668  1.00  0.00    -0.328 N 
HETATM   19  C12 UNL     1       3.682   1.281  12.075  1.00  0.00     0.228 C 
HETATM   20  C17 UNL     1       4.819  -0.607  13.216  1.00  0.00     0.359 C 
HETATM   21  O2  UNL     1       3.812   2.488  11.627  1.00  0.00    -0.273 OA
HETATM   22  N3  UNL     1       5.994  -1.298  12.648  1.00  0.00    -0.055 N 
ATOM     23  H32 UNL     1       6.028  -1.264  11.629  1.00  0.00     0.279 HD
ATOM     24  H31 UNL     1       5.949  -2.313  12.742  1.00  0.00     0.279 HD
BRANCH  19  25
HETATM   25  C13 UNL     1       2.359   0.649  11.908  1.00  0.00     0.030 C 
HETATM   26  C14 UNL     1       1.327   1.739  11.645  1.00  0.00     0.025 C 
HETATM   27  C15 UNL     1       2.365  -0.212  10.657  1.00  0.00     0.025 C 
HETATM   28  C16 UNL     1       1.902  -0.124  13.114  1.00  0.00     0.025 C 
ENDBRANCH  19  25
ENDBRANCH  14  15
ENDBRANCH  13  14
ENDBRANCH  12  13
ENDBRANCH   1  12
BRANCH   1  29
HETATM   29  C18 UNL     1       9.775  -5.521  15.941  1.00  0.00    -0.002 C 
HETATM   30  C19 UNL     1       9.422  -6.924  16.380  1.00  0.00     0.005 C 
HETATM   31  C20 UNL     1      10.499  -7.294  17.419  1.00  0.00     0.000 C 
HETATM   32  C21 UNL     1      10.070  -6.580  18.671  1.00  0.00     0.000 C 
HETATM   33  C22 UNL     1      10.159  -5.108  18.413  1.00  0.00     0.000 C 
HETATM   34  C23 UNL     1      10.485  -4.754  16.975  1.00  0.00     0.005 C 
ENDBRANCH   1  29
BRANCH   1  35
HETATM   35  C24 UNL     1       9.155  -4.977  13.580  1.00  0.00    -0.002 C 
HETATM   36  C25 UNL     1       8.079  -5.708  12.845  1.00  0.00     0.005 C 
HETATM   37  C26 UNL     1       8.744  -6.673  11.882  1.00  0.00     0.000 C 
HETATM   38  C27 UNL     1      10.166  -6.780  12.273  1.00  0.00     0.000 C 
HETATM   39  C28 UNL     1      10.421  -5.705  13.311  1.00  0.00     0.005 C 
ENDBRANCH   1  35
TORSDOF 11
ENDMDL
MODEL 3
REMARK VINA RESULT: -8.450972532      1.666      2.435
REMARK  11 active torsions:
REMARK  status: ('A' for Active; 'I' for Inactive)
REMARK    1  A    between atoms: C2_2  and  N1_3 
REMARK    2  A    between atoms: C2_2  and  C29_37 
REMARK       I    between atoms: N1_3  and  C3_5 
REMARK    3  A    between atoms: C3_5  and  C4_7 
REMARK    4  A    between atoms: C4_7  and  C5_8 
REMARK    5  A    between atoms: C5_8  and  C6_9 
REMARK    6  A    between atoms: C5_8  and  C18_26 
REMARK    7  A    between atoms: C5_8  and  C24_32 
REMARK    8  A    between atoms: C6_9  and  C7_10 
REMARK    9  A    between atoms: C7_10  and  C8_11 
REMARK   10  A    between atoms: C8_11  and  C9_12 
REMARK       I    between atoms: N2_15  and  C12_16 
REMARK   11  A    between atoms: C12_16  and  C13_18 
ROOT
HETATM    1  C5  UNL     1       7.873  -4.083  14.387  1.00  0.00    -0.010 C 
ENDROOT
BRANCH   1   2
HETATM    2  C4  UNL     1       6.829  -5.086  14.578  1.00  0.00     0.057 C 
BRANCH   2   3
HETATM    3  C3  UNL     1       5.432  -4.805  14.803  1.00  0.00     0.238 C 
HETATM    4  N1  UNL     1       4.802  -4.960  16.073  1.00  0.00    -0.345 N 
ATOM      5  H1  UNL     1       5.387  -5.288  16.840  1.00  0.00     0.163 HD
HETATM    6  O1  UNL     1       4.635  -4.405  13.956  1.00  0.00    -0.269 OA
BRANCH   4   7
HETATM    7  C2  UNL     1       3.434  -4.699  16.371  1.00  0.00     0.170 C 
HETATM    8  C1  UNL     1       2.783  -5.949  16.910  1.00  0.00     0.042 C 
BRANCH   7   9
HETATM    9  C29 UNL     1       3.349  -3.562  17.349  1.00  0.00     0.253 C 
HETATM   10  N4  UNL     1       4.449  -2.686  17.520  1.00  0.00    -0.060 NA
HETATM   11  O3  UNL     1       2.304  -3.366  18.035  1.00  0.00    -0.275 OA
ENDBRANCH   7   9
ENDBRANCH   4   7
ENDBRANCH   2   3
ENDBRANCH   1   2
BRANCH   1  12
HETATM   12  C6  UNL     1       7.347  -2.821  13.725  1.00  0.00     0.014 C 
BRANCH  12  13
HETATM   13  C7  UNL     1       7.000  -1.702  14.625  1.00  0.00     0.003 C 
BRANCH  13  14
HETATM   14  C8  UNL     1       6.583  -0.479  13.785  1.00  0.00     0.033 C 
BRANCH  14  15
HETATM   15  C9  UNL     1       5.250   0.050  14.276  1.00  0.00     0.189 C 
HETATM   16  C10 UNL     1       4.259  -1.070  14.351  1.00  0.00     0.053 C 
HETATM   17  C11 UNL     1       2.817  -0.583  14.233  1.00  0.00     0.129 C 
HETATM   18  N2  UNL     1       2.745   0.179  13.007  1.00  0.00    -0.328 N 
HETATM   19  C12 UNL     1       1.497   0.552  12.485  1.00  0.00     0.228 C 
HETATM   20  C17 UNL     1       3.976   0.523  12.366  1.00  0.00     0.359 C 
HETATM   21  O2  UNL     1       0.460   0.169  13.157  1.00  0.00    -0.273 OA
HETATM   22  N3  UNL     1       4.837   1.124  13.404  1.00  0.00    -0.055 N 
ATOM     23  H32 UNL     1       4.391   1.895  13.900  1.00  0.00     0.279 HD
ATOM     24  H31 UNL     1       5.620   1.653  13.020  1.00  0.00     0.279 HD
BRANCH  19  25
HETATM   25  C13 UNL     1       1.245   1.330  11.257  1.00  0.00     0.030 C 
HETATM   26  C14 UNL     1      -0.255   1.567  11.129  1.00  0.00     0.025 C 
HETATM   27  C15 UNL     1       1.861   2.710  11.400  1.00  0.00     0.025 C 
HETATM   28  C16 UNL     1       1.703   0.642  10.002  1.00  0.00     0.025 C 
ENDBRANCH  19  25
ENDBRANCH  14  15
ENDBRANCH  13  14
ENDBRANCH  12  13
ENDBRANCH   1  12
BRANCH   1  29
HETATM   29  C18 UNL     1       8.677  -3.610  15.548  1.00  0.00    -0.002 C 
HETATM   30  C19 UNL     1      10.138  -3.332  15.279  1.00  0.00     0.005 C 
HETATM   31  C20 UNL     1      10.754  -3.081  16.668  1.00  0.00     0.000 C 
HETATM   32  C21 UNL     1      10.919  -4.455  17.257  1.00  0.00     0.000 C 
HETATM   33  C22 UNL     1       9.554  -5.036  17.452  1.00  0.00     0.000 C 
HETATM   34  C23 UNL     1       8.436  -4.188  16.879  1.00  0.00     0.005 C 
ENDBRANCH   1  29
BRANCH   1  35
HETATM   35  C24 UNL     1       8.791  -4.646  13.274  1.00  0.00    -0.002 C 
HETATM   36  C25 UNL     1       7.968  -5.258  12.188  1.00  0.00     0.005 C 
HETATM   37  C26 UNL     1       8.646  -6.543  11.755  1.00  0.00     0.000 C 
HETATM   38  C27 UNL     1       9.651  -6.882  12.786  1.00  0.00     0.000 C 
HETATM   39  C28 UNL     1       9.755  -5.687  13.712  1.00  0.00     0.005 C 
ENDBRANCH   1  35
TORSDOF 11
ENDMDL
MODEL 4
REMARK VINA RESULT: -8.431282621      1.119      1.577
REMARK  11 active torsions:
REMARK  status: ('A' for Active; 'I' for Inactive)
REMARK    1  A    between atoms: C2_2  and  N1_3 
REMARK    2  A    between atoms: C2_2  and  C29_37 
REMARK       I    between atoms: N1_3  and  C3_5 
REMARK    3  A    between atoms: C3_5  and  C4_7 
REMARK    4  A    between atoms: C4_7  and  C5_8 
REMARK    5  A    between atoms: C5_8  and  C6_9 
REMARK    6  A    between atoms: C5_8  and  C18_26 
REMARK    7  A    between atoms: C5_8  and  C24_32 
REMARK    8  A    between atoms: C6_9  and  C7_10 
REMARK    9  A    between atoms: C7_10  and  C8_11 
REMARK   10  A    between atoms: C8_11  and  C9_12 
REMARK       I    between atoms: N2_15  and  C12_16 
REMARK   11  A    between atoms: C12_16  and  C13_18 
ROOT
HETATM    1  C5  UNL     1       8.732  -4.886  15.007  1.00  0.00    -0.010 C 
ENDROOT
BRANCH   1   2
HETATM    2  C4  UNL     1       7.337  -5.316  15.050  1.00  0.00     0.057 C 
BRANCH   2   3
HETATM    3  C3  UNL     1       6.335  -4.812  15.958  1.00  0.00     0.238 C 
HETATM    4  N1  UNL     1       4.982  -4.580  15.573  1.00  0.00    -0.345 N 
ATOM      5  H1  UNL     1       4.737  -4.785  14.605  1.00  0.00     0.163 HD
HETATM    6  O1  UNL     1       6.515  -4.533  17.142  1.00  0.00    -0.269 OA
BRANCH   4   7
HETATM    7  C2  UNL     1       3.941  -4.090  16.412  1.00  0.00     0.170 C 
HETATM    8  C1  UNL     1       3.314  -2.869  15.785  1.00  0.00     0.042 C 
BRANCH   7   9
HETATM    9  C29 UNL     1       2.931  -5.180  16.635  1.00  0.00     0.253 C 
HETATM   10  N4  UNL     1       3.267  -6.313  17.415  1.00  0.00    -0.060 NA
HETATM   11  O3  UNL     1       1.771  -5.110  16.134  1.00  0.00    -0.275 OA
ENDBRANCH   7   9
ENDBRANCH   4   7
ENDBRANCH   2   3
ENDBRANCH   1   2
BRANCH   1  12
HETATM   12  C6  UNL     1       8.883  -3.392  15.230  1.00  0.00     0.014 C 
BRANCH  12  13
HETATM   13  C7  UNL     1       8.525  -2.518  14.092  1.00  0.00     0.003 C 
BRANCH  13  14
HETATM   14  C8  UNL     1       7.774  -1.277  14.615  1.00  0.00     0.033 C 
BRANCH  14  15
HETATM   15  C9  UNL     1       6.304  -1.382  14.265  1.00  0.00     0.189 C 
HETATM   16  C10 UNL     1       6.136  -2.212  13.030  1.00  0.00     0.053 C 
HETATM   17  C11 UNL     1       4.851  -1.884  12.275  1.00  0.00     0.129 C 
HETATM   18  N2  UNL     1       4.879  -0.461  12.023  1.00  0.00    -0.328 N 
HETATM   19  C12 UNL     1       3.961   0.111  11.131  1.00  0.00     0.228 C 
HETATM   20  C17 UNL     1       5.867   0.314  12.707  1.00  0.00     0.359 C 
HETATM   21  O2  UNL     1       3.126  -0.702  10.570  1.00  0.00    -0.273 OA
HETATM   22  N3  UNL     1       5.770  -0.047  14.135  1.00  0.00    -0.055 N 
ATOM     23  H32 UNL     1       4.827   0.047  14.511  1.00  0.00     0.279 HD
ATOM     24  H31 UNL     1       6.222   0.628  14.752  1.00  0.00     0.279 HD
BRANCH  19  25
HETATM   25  C13 UNL     1       3.848   1.537  10.766  1.00  0.00     0.030 C 
HETATM   26  C14 UNL     1       2.700   1.698   9.776  1.00  0.00     0.025 C 
HETATM   27  C15 UNL     1       3.441   2.339  11.990  1.00  0.00     0.025 C 
HETATM   28  C16 UNL     1       5.084   2.095  10.119  1.00  0.00     0.025 C 
ENDBRANCH  19  25
ENDBRANCH  14  15
ENDBRANCH  13  14
ENDBRANCH  12  13
ENDBRANCH   1  12
BRANCH   1  29
HETATM   29  C18 UNL     1       9.738  -5.519  15.905  1.00  0.00    -0.002 C 
HETATM   30  C19 UNL     1       9.388  -6.890  16.437  1.00  0.00     0.005 C 
HETATM   31  C20 UNL     1      10.475  -7.196  17.486  1.00  0.00     0.000 C 
HETATM   32  C21 UNL     1      10.061  -6.402  18.694  1.00  0.00     0.000 C 
HETATM   33  C22 UNL     1      10.150  -4.950  18.342  1.00  0.00     0.000 C 
HETATM   34  C23 UNL     1      10.461  -4.689  16.881  1.00  0.00     0.005 C 
ENDBRANCH   1  29
BRANCH   1  35
HETATM   35  C24 UNL     1       9.160  -5.014  13.525  1.00  0.00    -0.002 C 
HETATM   36  C25 UNL     1       8.103  -5.724  12.743  1.00  0.00     0.005 C 
HETATM   37  C26 UNL     1       8.790  -6.683  11.791  1.00  0.00     0.000 C 
HETATM   38  C27 UNL     1      10.197  -6.811  12.231  1.00  0.00     0.000 C 
HETATM   39  C28 UNL     1      10.427  -5.753  13.290  1.00  0.00     0.005 C 
ENDBRANCH   1  35
TORSDOF 11
ENDMDL
MODEL 5
REMARK VINA RESULT: -8.380351086      1.692      2.356
REMARK  11 active torsions:
REMARK  status: ('A' for Active; 'I' for Inactive)
REMARK    1  A    between atoms: C2_2  and  N1_3 
REMARK    2  A    between atoms: C2_2  and  C29_37 
REMARK       I    between atoms: N1_3  and  C3_5 
REMARK    3  A    between atoms: C3_5  and  C4_7 
REMARK    4  A    between atoms: C4_7  and  C5_8 
REMARK    5  A    between atoms: C5_8  and  C6_9 
REMARK    6  A    between atoms: C5_8  and  C18_26 
REMARK    7  A    between atoms: C5_8  and  C24_32 
REMARK    8  A    between atoms: C6_9  and  C7_10 
REMARK    9  A    between atoms: C7_10  and  C8_11 
REMARK   10  A    between atoms: C8_11  and  C9_12 
REMARK       I    between atoms: N2_15  and  C12_16 
REMARK   11  A    between atoms: C12_16  and  C13_18 
ROOT
HETATM    1  C5  UNL     1       8.804  -4.879  15.010  1.00  0.00    -0.010 C 
ENDROOT
BRANCH   1   2
HETATM    2  C4  UNL     1       7.379  -5.196  15.061  1.00  0.00     0.057 C 
BRANCH   2   3
HETATM    3  C3  UNL     1       6.415  -4.573  15.935  1.00  0.00     0.238 C 
HETATM    4  N1  UNL     1       5.146  -4.106  15.486  1.00  0.00    -0.345 N 
ATOM      5  H1  UNL     1       4.934  -4.226  14.496  1.00  0.00     0.163 HD
HETATM    6  O1  UNL     1       6.561  -4.378  17.141  1.00  0.00    -0.269 OA
BRANCH   4   7
HETATM    7  C2  UNL     1       4.145  -3.486  16.289  1.00  0.00     0.170 C 
HETATM    8  C1  UNL     1       3.459  -2.399  15.498  1.00  0.00     0.042 C 
BRANCH   7   9
HETATM    9  C29 UNL     1       3.171  -4.530  16.758  1.00  0.00     0.253 C 
HETATM   10  N4  UNL     1       2.186  -5.035  15.874  1.00  0.00    -0.060 NA
HETATM   11  O3  UNL     1       3.211  -4.977  17.941  1.00  0.00    -0.275 OA
ENDBRANCH   7   9
ENDBRANCH   4   7
ENDBRANCH   2   3
ENDBRANCH   1   2
BRANCH   1  12
HETATM   12  C6  UNL     1       9.076  -3.404  15.250  1.00  0.00     0.014 C 
BRANCH  12  13
HETATM   13  C7  UNL     1       8.404  -2.455  14.337  1.00  0.00     0.003 C 
BRANCH  13  14
HETATM   14  C8  UNL     1       7.858  -1.264  15.148  1.00  0.00     0.033 C 
BRANCH  14  15
HETATM   15  C9  UNL     1       6.623  -0.704  14.469  1.00  0.00     0.189 C 
HETATM   16  C10 UNL     1       6.306  -1.514  13.250  1.00  0.00     0.053 C 
HETATM   17  C11 UNL     1       5.520  -0.721  12.211  1.00  0.00     0.129 C 
HETATM   18  N2  UNL     1       6.292   0.469  11.937  1.00  0.00    -0.328 N 
HETATM   19  C12 UNL     1       5.963   1.283  10.842  1.00  0.00     0.228 C 
HETATM   20  C17 UNL     1       7.384   0.767  12.811  1.00  0.00     0.359 C 
HETATM   21  O2  UNL     1       4.960   0.895  10.124  1.00  0.00    -0.273 OA
HETATM   22  N3  UNL     1       6.853   0.692  14.187  1.00  0.00    -0.055 N 
ATOM     23  H32 UNL     1       6.026   1.272  14.332  1.00  0.00     0.279 HD
ATOM     24  H31 UNL     1       7.452   1.148  14.875  1.00  0.00     0.279 HD
BRANCH  19  25
HETATM   25  C13 UNL     1       6.638   2.527  10.426  1.00  0.00     0.030 C 
HETATM   26  C14 UNL     1       7.713   2.181   9.402  1.00  0.00     0.025 C 
HETATM   27  C15 UNL     1       5.650   3.414   9.690  1.00  0.00     0.025 C 
HETATM   28  C16 UNL     1       7.309   3.258  11.555  1.00  0.00     0.025 C 
ENDBRANCH  19  25
ENDBRANCH  14  15
ENDBRANCH  13  14
ENDBRANCH  12  13
ENDBRANCH   1  12
BRANCH   1  29
HETATM   29  C18 UNL     1       9.763  -5.602  15.891  1.00  0.00    -0.002 C 
HETATM   30  C19 UNL     1       9.313  -6.952  16.401  1.00  0.00     0.005 C 
HETATM   31  C20 UNL     1      10.379  -7.358  17.437  1.00  0.00     0.000 C 
HETATM   32  C21 UNL     1      10.031  -6.557  18.662  1.00  0.00     0.000 C 
HETATM   33  C22 UNL     1      10.228  -5.110  18.335  1.00  0.00     0.000 C 
HETATM   34  C23 UNL     1      10.551  -4.847  16.877  1.00  0.00     0.005 C 
ENDBRANCH   1  29
BRANCH   1  35
HETATM   35  C24 UNL     1       9.208  -5.022  13.523  1.00  0.00    -0.002 C 
HETATM   36  C25 UNL     1       8.122  -5.706  12.758  1.00  0.00     0.005 C 
HETATM   37  C26 UNL     1       8.771  -6.685  11.799  1.00  0.00     0.000 C 
HETATM   38  C27 UNL     1      10.180  -6.847  12.219  1.00  0.00     0.000 C 
HETATM   39  C28 UNL     1      10.452  -5.793  13.272  1.00  0.00     0.005 C 
ENDBRANCH   1  35
TORSDOF 11
ENDMDL
