MODEL 1
REMARK VINA RESULT: -5.483485958      0.000      0.000
REMARK  3 active torsions:
REMARK  status: ('A' for Active; 'I' for Inactive)
REMARK    1  A    between atoms: N1_1  and  C1_4 
REMARK    2  A    between atoms: C4_15  and  C5_16 
REMARK    3  A    between atoms: N5_17  and  N6_19 
ROOT
HETATM    1  C1  UNL     1      77.043  15.342  23.825  1.00  0.00     0.131 C 
HETATM    2  N2  UNL     1      76.548  14.516  24.794  1.00  0.00    -0.293 N 
ATOM      3  H2  UNL     1      77.017  13.622  24.940  1.00  0.00     0.172 HD
HETATM    4  C2  UNL     1      75.481  14.802  25.572  1.00  0.00     0.329 C 
HETATM    5  O1  UNL     1      75.277  13.953  26.495  1.00  0.00    -0.246 OA
HETATM    6  N3  UNL     1      74.614  15.853  25.502  1.00  0.00    -0.260 N 
ATOM      7  H3  UNL     1      73.787  15.762  26.093  1.00  0.00     0.175 HD
HETATM    8  C3  UNL     1      74.668  16.988  24.784  1.00  0.00     0.328 C 
HETATM    9  O2  UNL     1      74.000  17.982  25.172  1.00  0.00    -0.247 OA
HETATM   10  N4  UNL     1      75.412  17.139  23.644  1.00  0.00    -0.304 N 
ATOM     11  H4  UNL     1      75.196  17.966  23.086  1.00  0.00     0.171 HD
HETATM   12  C4  UNL     1      76.384  16.354  23.159  1.00  0.00     0.097 C 
ENDROOT
BRANCH  12  13
HETATM   13  C5  UNL     1      76.779  16.589  21.787  1.00  0.00     0.140 C 
HETATM   14  N5  UNL     1      76.839  15.656  20.901  1.00  0.00    -0.307 N 
ATOM     15  H5  UNL     1      76.598  14.704  21.175  1.00  0.00     0.186 HD
BRANCH  14  16
HETATM   16  N6  UNL     1      77.221  15.896  19.585  1.00  0.00    -0.276 N 
HETATM   17  C6  UNL     1      77.185  14.970  18.694  1.00  0.00     0.215 C 
HETATM   18  N7  UNL     1      76.745  13.686  19.079  1.00  0.00    -0.065 NA
HETATM   19  N8  UNL     1      77.578  15.219  17.343  1.00  0.00    -0.065 NA
ATOM     20  H6  UNL     1      77.536  16.828  19.321  1.00  0.00     0.189 HD
ENDBRANCH  14  16
ENDBRANCH  12  13
BRANCH   1  21
HETATM   21  N1  UNL     1      78.252  15.123  23.530  1.00  0.00    -0.383 N 
ATOM     22  H12 UNL     1      78.936  15.109  24.286  1.00  0.00     0.157 HD
ATOM     23  H11 UNL     1      78.416  14.978  22.534  1.00  0.00     0.157 HD
ENDBRANCH   1  21
TORSDOF 3
ENDMDL
MODEL 2
REMARK VINA RESULT: -5.438169327      3.345      5.158
REMARK  3 active torsions:
REMARK  status: ('A' for Active; 'I' for Inactive)
REMARK    1  A    between atoms: N1_1  and  C1_4 
REMARK    2  A    between atoms: C4_15  and  C5_16 
REMARK    3  A    between atoms: N5_17  and  N6_19 
ROOT
HETATM    1  C1  UNL     1      74.576  13.871  27.996  1.00  0.00     0.131 C 
HETATM    2  N2  UNL     1      74.283  13.509  29.280  1.00  0.00    -0.293 N 
ATOM      3  H2  UNL     1      73.370  13.089  29.459  1.00  0.00     0.172 HD
HETATM    4  C2  UNL     1      75.119  13.668  30.330  1.00  0.00     0.329 C 
HETATM    5  O1  UNL     1      74.697  13.141  31.406  1.00  0.00    -0.246 OA
HETATM    6  N3  UNL     1      76.325  14.303  30.389  1.00  0.00    -0.260 N 
ATOM      7  H3  UNL     1      76.689  14.438  31.333  1.00  0.00     0.175 HD
HETATM    8  C3  UNL     1      77.113  14.780  29.411  1.00  0.00     0.328 C 
HETATM    9  O2  UNL     1      78.338  14.946  29.647  1.00  0.00    -0.247 OA
HETATM   10  N4  UNL     1      76.668  15.102  28.156  1.00  0.00    -0.304 N 
ATOM     11  H4  UNL     1      77.315  15.650  27.588  1.00  0.00     0.171 HD
HETATM   12  C4  UNL     1      75.502  14.798  27.569  1.00  0.00     0.097 C 
ENDROOT
BRANCH  12  13
HETATM   13  C5  UNL     1      75.178  15.527  26.362  1.00  0.00     0.140 C 
HETATM   14  N5  UNL     1      75.940  15.544  25.324  1.00  0.00    -0.307 N 
ATOM     15  H5  UNL     1      76.815  15.021  25.349  1.00  0.00     0.186 HD
BRANCH  14  16
HETATM   16  N6  UNL     1      75.617  16.249  24.169  1.00  0.00    -0.276 N 
HETATM   17  C6  UNL     1      76.030  15.872  23.012  1.00  0.00     0.215 C 
HETATM   18  N7  UNL     1      76.830  14.712  22.930  1.00  0.00    -0.065 NA
HETATM   19  N8  UNL     1      75.698  16.599  21.827  1.00  0.00    -0.065 NA
ATOM     20  H6  UNL     1      75.038  17.085  24.242  1.00  0.00     0.189 HD
ENDBRANCH  14  16
ENDBRANCH  12  13
BRANCH   1  21
HETATM   21  N1  UNL     1      73.896  13.261  27.123  1.00  0.00    -0.383 N 
ATOM     22  H12 UNL     1      73.367  12.439  27.412  1.00  0.00     0.157 HD
ATOM     23  H11 UNL     1      73.953  13.672  26.191  1.00  0.00     0.157 HD
ENDBRANCH   1  21
TORSDOF 3
ENDMDL
MODEL 3
REMARK VINA RESULT: -5.412414607      2.536      4.254
REMARK  3 active torsions:
REMARK  status: ('A' for Active; 'I' for Inactive)
REMARK    1  A    between atoms: N1_1  and  C1_4 
REMARK    2  A    between atoms: C4_15  and  C5_16 
REMARK    3  A    between atoms: N5_17  and  N6_19 
ROOT
HETATM    1  C1  UNL     1      74.173  15.243  26.757  1.00  0.00     0.131 C 
HETATM    2  N2  UNL     1      73.613  16.084  27.675  1.00  0.00    -0.293 N 
ATOM      3  H2  UNL     1      72.627  16.324  27.560  1.00  0.00     0.172 HD
HETATM    4  C2  UNL     1      74.273  16.622  28.725  1.00  0.00     0.329 C 
HETATM    5  O1  UNL     1      73.526  17.268  29.524  1.00  0.00    -0.246 OA
HETATM    6  N3  UNL     1      75.600  16.567  29.034  1.00  0.00    -0.260 N 
ATOM      7  H3  UNL     1      75.888  17.193  29.787  1.00  0.00     0.175 HD
HETATM    8  C3  UNL     1      76.592  15.824  28.512  1.00  0.00     0.328 C 
HETATM    9  O2  UNL     1      77.625  15.623  29.202  1.00  0.00    -0.247 OA
HETATM   10  N4  UNL     1      76.553  15.262  27.264  1.00  0.00    -0.304 N 
ATOM     11  H4  UNL     1      77.445  14.913  26.912  1.00  0.00     0.171 HD
HETATM   12  C4  UNL     1      75.507  15.106  26.439  1.00  0.00     0.097 C 
ENDROOT
BRANCH  12  13
HETATM   13  C5  UNL     1      75.813  14.763  25.067  1.00  0.00     0.140 C 
HETATM   14  N5  UNL     1      76.446  15.551  24.269  1.00  0.00    -0.307 N 
ATOM     15  H5  UNL     1      76.748  16.462  24.616  1.00  0.00     0.186 HD
BRANCH  14  16
HETATM   16  N6  UNL     1      76.734  15.210  22.952  1.00  0.00    -0.276 N 
HETATM   17  C6  UNL     1      76.209  15.840  21.962  1.00  0.00     0.215 C 
HETATM   18  N7  UNL     1      75.319  16.900  22.238  1.00  0.00    -0.065 NA
HETATM   19  N8  UNL     1      76.506  15.486  20.610  1.00  0.00    -0.065 NA
ATOM     20  H6  UNL     1      77.379  14.442  22.766  1.00  0.00     0.189 HD
ENDBRANCH  14  16
ENDBRANCH  12  13
BRANCH   1  21
HETATM   21  N1  UNL     1      73.337  14.518  26.147  1.00  0.00    -0.383 N 
ATOM     22  H12 UNL     1      73.232  13.549  26.445  1.00  0.00     0.157 HD
ATOM     23  H11 UNL     1      72.841  14.999  25.396  1.00  0.00     0.157 HD
ENDBRANCH   1  21
TORSDOF 3
ENDMDL
MODEL 4
REMARK VINA RESULT: -5.332958120      9.460     11.820
REMARK  3 active torsions:
REMARK  status: ('A' for Active; 'I' for Inactive)
REMARK    1  A    between atoms: N1_1  and  C1_4 
REMARK    2  A    between atoms: C4_15  and  C5_16 
REMARK    3  A    between atoms: N5_17  and  N6_19 
ROOT
HETATM    1  C1  UNL     1      73.854  13.892  31.571  1.00  0.00     0.131 C 
HETATM    2  N2  UNL     1      73.424  15.180  31.715  1.00  0.00    -0.293 N 
ATOM      3  H2  UNL     1      74.119  15.923  31.641  1.00  0.00     0.172 HD
HETATM    4  C2  UNL     1      72.142  15.538  31.949  1.00  0.00     0.329 C 
HETATM    5  O1  UNL     1      71.946  16.793  31.915  1.00  0.00    -0.246 OA
HETATM    6  N3  UNL     1      71.057  14.754  32.210  1.00  0.00    -0.260 N 
ATOM      7  H3  UNL     1      70.229  15.263  32.520  1.00  0.00     0.175 HD
HETATM    8  C3  UNL     1      70.897  13.422  32.126  1.00  0.00     0.328 C 
HETATM    9  O2  UNL     1      69.733  12.958  32.008  1.00  0.00    -0.247 OA
HETATM   10  N4  UNL     1      71.930  12.523  32.159  1.00  0.00    -0.304 N 
ATOM     11  H4  UNL     1      71.660  11.549  32.305  1.00  0.00     0.171 HD
HETATM   12  C4  UNL     1      73.246  12.742  32.027  1.00  0.00     0.097 C 
ENDROOT
BRANCH  12  13
HETATM   13  C5  UNL     1      74.123  11.656  32.412  1.00  0.00     0.140 C 
HETATM   14  N5  UNL     1      73.750  10.687  33.174  1.00  0.00    -0.307 N 
ATOM     15  H5  UNL     1      72.793  10.680  33.526  1.00  0.00     0.186 HD
BRANCH  14  16
HETATM   16  N6  UNL     1      74.602   9.649  33.537  1.00  0.00    -0.276 N 
HETATM   17  C6  UNL     1      75.217   9.645  34.665  1.00  0.00     0.215 C 
HETATM   18  N7  UNL     1      75.011  10.729  35.546  1.00  0.00    -0.065 NA
HETATM   19  N8  UNL     1      76.093   8.578  35.035  1.00  0.00    -0.065 NA
ATOM     20  H6  UNL     1      74.742   8.872  32.892  1.00  0.00     0.189 HD
ENDBRANCH  14  16
ENDBRANCH  12  13
BRANCH   1  21
HETATM   21  N1  UNL     1      74.942  13.780  30.938  1.00  0.00    -0.383 N 
ATOM     22  H12 UNL     1      75.645  13.137  31.299  1.00  0.00     0.157 HD
ATOM     23  H11 UNL     1      74.998  14.366  30.105  1.00  0.00     0.157 HD
ENDBRANCH   1  21
TORSDOF 3
ENDMDL
MODEL 5
REMARK VINA RESULT: -5.315416526      7.167      9.689
REMARK  3 active torsions:
REMARK  status: ('A' for Active; 'I' for Inactive)
REMARK    1  A    between atoms: N1_1  and  C1_4 
REMARK    2  A    between atoms: C4_15  and  C5_16 
REMARK    3  A    between atoms: N5_17  and  N6_19 
ROOT
HETATM    1  C1  UNL     1      75.346  13.299  33.236  1.00  0.00     0.131 C 
HETATM    2  N2  UNL     1      75.515  12.291  34.142  1.00  0.00    -0.293 N 
ATOM      3  H2  UNL     1      76.427  12.203  34.590  1.00  0.00     0.172 HD
HETATM    4  C2  UNL     1      74.556  11.402  34.485  1.00  0.00     0.329 C 
HETATM    5  O1  UNL     1      74.888  10.635  35.442  1.00  0.00    -0.246 OA
HETATM    6  N3  UNL     1      73.312  11.222  33.957  1.00  0.00    -0.260 N 
ATOM      7  H3  UNL     1      72.835  10.376  34.270  1.00  0.00     0.175 HD
HETATM    8  C3  UNL     1      72.610  11.974  33.092  1.00  0.00     0.328 C 
HETATM    9  O2  UNL     1      71.357  11.851  33.061  1.00  0.00    -0.247 OA
HETATM   10  N4  UNL     1      73.172  12.877  32.229  1.00  0.00    -0.304 N 
ATOM     11  H4  UNL     1      72.558  13.216  31.487  1.00  0.00     0.171 HD
HETATM   12  C4  UNL     1      74.415  13.379  32.223  1.00  0.00     0.097 C 
ENDROOT
BRANCH  12  13
HETATM   13  C5  UNL     1      74.824  14.073  31.021  1.00  0.00     0.140 C 
HETATM   14  N5  UNL     1      74.150  14.040  29.925  1.00  0.00    -0.307 N 
ATOM     15  H5  UNL     1      73.285  13.500  29.897  1.00  0.00     0.186 HD
BRANCH  14  16
HETATM   16  N6  UNL     1      74.554  14.712  28.775  1.00  0.00    -0.276 N 
HETATM   17  C6  UNL     1      74.930  14.079  27.722  1.00  0.00     0.215 C 
HETATM   18  N7  UNL     1      74.926  12.668  27.750  1.00  0.00    -0.065 NA
HETATM   19  N8  UNL     1      75.346  14.772  26.543  1.00  0.00    -0.065 NA
ATOM     20  H6  UNL     1      74.552  15.732  28.769  1.00  0.00     0.189 HD
ENDBRANCH  14  16
ENDBRANCH  12  13
BRANCH   1  21
HETATM   21  N1  UNL     1      76.160  14.257  33.375  1.00  0.00    -0.383 N 
ATOM     22  H12 UNL     1      75.962  15.131  32.889  1.00  0.00     0.157 HD
ATOM     23  H11 UNL     1      76.953  14.043  33.980  1.00  0.00     0.157 HD
ENDBRANCH   1  21
TORSDOF 3
ENDMDL
