MODEL 1
REMARK VINA RESULT: -5.044056490      0.000      0.000
REMARK  3 active torsions:
REMARK  status: ('A' for Active; 'I' for Inactive)
REMARK    1  A    between atoms: C2_5  and  C3_7 
REMARK    2  A    between atoms: C4_8  and  C5_9 
REMARK    3  A    between atoms: C7_18  and  N7_19 
ROOT
HETATM    1  N1  UNL     1      76.974  14.664  23.229  1.00  0.00    -0.172 NA
HETATM    2  C1  UNL     1      76.575  14.968  24.270  1.00  0.00     0.183 C 
HETATM    3  N2  UNL     1      76.081  15.334  25.526  1.00  0.00    -0.281 N 
ATOM      4  H2  UNL     1      76.723  15.733  26.210  1.00  0.00     0.179 HD
HETATM    5  C2  UNL     1      74.829  15.181  25.850  1.00  0.00     0.141 C 
HETATM    6  N3  UNL     1      74.028  14.632  24.863  1.00  0.00    -0.081 NA
ENDROOT
BRANCH   5   7
HETATM    7  C3  UNL     1      74.418  15.506  27.191  1.00  0.00     0.081 A 
HETATM    8  C4  UNL     1      74.741  14.855  28.344  1.00  0.00     0.119 A 
HETATM    9  N5  UNL     1      74.367  15.420  29.546  1.00  0.00    -0.303 N 
HETATM   10  C6  UNL     1      73.701  16.566  29.665  1.00  0.00     0.326 A 
ATOM     11  H5  UNL     1      74.618  14.926  30.402  1.00  0.00     0.171 HD
HETATM   12  O2  UNL     1      73.386  17.034  30.795  1.00  0.00    -0.247 OA
HETATM   13  N6  UNL     1      73.369  17.220  28.539  1.00  0.00    -0.294 N 
HETATM   14  C7  UNL     1      73.703  16.726  27.352  1.00  0.00     0.118 A 
ATOM     15  H6  UNL     1      72.857  18.100  28.596  1.00  0.00     0.172 HD
BRANCH   8  16
HETATM   16  C5  UNL     1      75.329  13.547  28.385  1.00  0.00     0.282 C 
HETATM   17  N4  UNL     1      76.556  13.401  29.135  1.00  0.00    -0.056 NA
HETATM   18  O1  UNL     1      74.902  12.546  27.854  1.00  0.00    -0.269 OA
ENDBRANCH   8  16
BRANCH  14  19
HETATM   19  N7  UNL     1      73.370  17.371  26.297  1.00  0.00    -0.385 N 
ATOM     20  H72 UNL     1      74.090  17.606  25.615  1.00  0.00     0.157 HD
ATOM     21  H71 UNL     1      72.389  17.625  26.182  1.00  0.00     0.157 HD
ENDBRANCH  14  19
ENDBRANCH   5   7
TORSDOF 3
ENDMDL
MODEL 2
REMARK VINA RESULT: -4.995405767      3.174      5.041
REMARK  3 active torsions:
REMARK  status: ('A' for Active; 'I' for Inactive)
REMARK    1  A    between atoms: C2_5  and  C3_7 
REMARK    2  A    between atoms: C4_8  and  C5_9 
REMARK    3  A    between atoms: C7_18  and  N7_19 
ROOT
HETATM    1  N1  UNL     1      74.611  12.706  27.843  1.00  0.00    -0.172 NA
HETATM    2  C1  UNL     1      74.586  13.499  27.003  1.00  0.00     0.183 C 
HETATM    3  N2  UNL     1      74.562  14.465  25.993  1.00  0.00    -0.281 N 
ATOM      4  H2  UNL     1      73.954  14.322  25.188  1.00  0.00     0.179 HD
HETATM    5  C2  UNL     1      75.291  15.543  26.046  1.00  0.00     0.141 C 
HETATM    6  N3  UNL     1      76.088  15.660  27.174  1.00  0.00    -0.081 NA
ENDROOT
BRANCH   5   7
HETATM    7  C3  UNL     1      75.270  16.448  24.927  1.00  0.00     0.081 A 
HETATM    8  C4  UNL     1      75.831  16.268  23.697  1.00  0.00     0.119 A 
HETATM    9  N5  UNL     1      75.564  17.195  22.711  1.00  0.00    -0.303 N 
HETATM   10  C6  UNL     1      74.796  18.268  22.874  1.00  0.00     0.326 A 
ATOM     11  H5  UNL     1      75.986  17.048  21.794  1.00  0.00     0.171 HD
HETATM   12  O2  UNL     1      74.589  19.083  21.930  1.00  0.00    -0.247 OA
HETATM   13  N6  UNL     1      74.239  18.466  24.081  1.00  0.00    -0.294 N 
HETATM   14  C7  UNL     1      74.457  17.607  25.070  1.00  0.00     0.118 A 
ATOM     15  H6  UNL     1      73.645  19.281  24.238  1.00  0.00     0.172 HD
BRANCH   8  16
HETATM   16  C5  UNL     1      76.792  15.246  23.400  1.00  0.00     0.282 C 
HETATM   17  N4  UNL     1      77.992  15.654  22.703  1.00  0.00    -0.056 NA
HETATM   18  O1  UNL     1      76.704  14.069  23.672  1.00  0.00    -0.269 OA
ENDBRANCH   8  16
BRANCH  14  19
HETATM   19  N7  UNL     1      73.915  17.824  26.209  1.00  0.00    -0.385 N 
ATOM     20  H72 UNL     1      73.963  17.099  26.923  1.00  0.00     0.157 HD
ATOM     21  H71 UNL     1      73.454  18.721  26.356  1.00  0.00     0.157 HD
ENDBRANCH  14  19
ENDBRANCH   5   7
TORSDOF 3
ENDMDL
MODEL 3
REMARK VINA RESULT: -4.921194709      2.022      2.893
REMARK  3 active torsions:
REMARK  status: ('A' for Active; 'I' for Inactive)
REMARK    1  A    between atoms: C2_5  and  C3_7 
REMARK    2  A    between atoms: C4_8  and  C5_9 
REMARK    3  A    between atoms: C7_18  and  N7_19 
ROOT
HETATM    1  N1  UNL     1      76.812  15.111  22.650  1.00  0.00    -0.172 NA
HETATM    2  C1  UNL     1      76.664  15.116  23.796  1.00  0.00     0.183 C 
HETATM    3  N2  UNL     1      76.473  15.123  25.181  1.00  0.00    -0.281 N 
ATOM      4  H2  UNL     1      77.289  15.175  25.790  1.00  0.00     0.179 HD
HETATM    5  C2  UNL     1      75.289  15.065  25.719  1.00  0.00     0.141 C 
HETATM    6  N3  UNL     1      74.237  14.997  24.820  1.00  0.00    -0.081 NA
ENDROOT
BRANCH   5   7
HETATM    7  C3  UNL     1      75.183  14.994  27.153  1.00  0.00     0.081 A 
HETATM    8  C4  UNL     1      75.433  15.983  28.058  1.00  0.00     0.119 A 
HETATM    9  N5  UNL     1      75.123  15.755  29.383  1.00  0.00    -0.303 N 
HETATM   10  C6  UNL     1      74.597  14.626  29.850  1.00  0.00     0.326 A 
ATOM     11  H5  UNL     1      75.310  16.503  30.051  1.00  0.00     0.171 HD
HETATM   12  O2  UNL     1      74.334  14.476  31.077  1.00  0.00    -0.247 OA
HETATM   13  N6  UNL     1      74.349  13.637  28.974  1.00  0.00    -0.294 N 
HETATM   14  C7  UNL     1      74.625  13.799  27.684  1.00  0.00     0.118 A 
ATOM     15  H6  UNL     1      73.948  12.759  29.301  1.00  0.00     0.172 HD
BRANCH   8  16
HETATM   16  C5  UNL     1      76.124  17.200  27.742  1.00  0.00     0.282 C 
HETATM   17  N4  UNL     1      75.356  18.423  27.787  1.00  0.00    -0.056 NA
HETATM   18  O1  UNL     1      77.292  17.310  27.441  1.00  0.00    -0.269 OA
ENDBRANCH   8  16
BRANCH  14  19
HETATM   19  N7  UNL     1      74.381  12.838  26.875  1.00  0.00    -0.385 N 
ATOM     20  H72 UNL     1      73.692  12.979  26.137  1.00  0.00     0.157 HD
ATOM     21  H71 UNL     1      74.889  11.963  27.003  1.00  0.00     0.157 HD
ENDBRANCH  14  19
ENDBRANCH   5   7
TORSDOF 3
ENDMDL
MODEL 4
REMARK VINA RESULT: -4.895887274      2.889      5.083
REMARK  3 active torsions:
REMARK  status: ('A' for Active; 'I' for Inactive)
REMARK    1  A    between atoms: C2_5  and  C3_7 
REMARK    2  A    between atoms: C4_8  and  C5_9 
REMARK    3  A    between atoms: C7_18  and  N7_19 
ROOT
HETATM    1  N1  UNL     1      76.248  13.436  29.058  1.00  0.00    -0.172 NA
HETATM    2  C1  UNL     1      76.144  14.191  28.189  1.00  0.00     0.183 C 
HETATM    3  N2  UNL     1      76.015  15.095  27.131  1.00  0.00    -0.281 N 
ATOM      4  H2  UNL     1      76.351  16.050  27.255  1.00  0.00     0.179 HD
HETATM    5  C2  UNL     1      75.481  14.759  25.992  1.00  0.00     0.141 C 
HETATM    6  N3  UNL     1      75.052  13.445  25.908  1.00  0.00    -0.081 NA
ENDROOT
BRANCH   5   7
HETATM    7  C3  UNL     1      75.310  15.772  24.983  1.00  0.00     0.081 A 
HETATM    8  C4  UNL     1      74.554  16.904  25.056  1.00  0.00     0.119 A 
HETATM    9  N5  UNL     1      74.648  17.824  24.032  1.00  0.00    -0.303 N 
HETATM   10  C6  UNL     1      75.427  17.685  22.963  1.00  0.00     0.326 A 
ATOM     11  H5  UNL     1      74.081  18.670  24.100  1.00  0.00     0.171 HD
HETATM   12  O2  UNL     1      75.470  18.564  22.056  1.00  0.00    -0.247 OA
HETATM   13  N6  UNL     1      76.175  16.573  22.870  1.00  0.00    -0.294 N 
HETATM   14  C7  UNL     1      76.129  15.651  23.826  1.00  0.00     0.118 A 
ATOM     15  H6  UNL     1      76.782  16.436  22.062  1.00  0.00     0.172 HD
BRANCH   8  16
HETATM   16  C5  UNL     1      73.563  17.139  26.066  1.00  0.00     0.282 C 
HETATM   17  N4  UNL     1      74.007  17.769  27.289  1.00  0.00    -0.056 NA
HETATM   18  O1  UNL     1      72.385  16.864  26.000  1.00  0.00    -0.269 OA
ENDBRANCH   8  16
BRANCH  14  19
HETATM   19  N7  UNL     1      76.851  14.600  23.707  1.00  0.00    -0.385 N 
ATOM     20  H72 UNL     1      76.634  13.935  22.967  1.00  0.00     0.157 HD
ATOM     21  H71 UNL     1      77.619  14.471  24.365  1.00  0.00     0.157 HD
ENDBRANCH  14  19
ENDBRANCH   5   7
TORSDOF 3
ENDMDL
MODEL 5
REMARK VINA RESULT: -4.825405621      1.714      2.056
REMARK  3 active torsions:
REMARK  status: ('A' for Active; 'I' for Inactive)
REMARK    1  A    between atoms: C2_5  and  C3_7 
REMARK    2  A    between atoms: C4_8  and  C5_9 
REMARK    3  A    between atoms: C7_18  and  N7_19 
ROOT
HETATM    1  N1  UNL     1      78.700  15.431  22.735  1.00  0.00    -0.172 NA
HETATM    2  C1  UNL     1      77.933  15.714  23.551  1.00  0.00     0.183 C 
HETATM    3  N2  UNL     1      76.995  16.054  24.531  1.00  0.00    -0.281 N 
ATOM      4  H2  UNL     1      77.326  16.401  25.430  1.00  0.00     0.179 HD
HETATM    5  C2  UNL     1      75.713  15.942  24.333  1.00  0.00     0.141 C 
HETATM    6  N3  UNL     1      75.349  15.463  23.085  1.00  0.00    -0.081 NA
ENDROOT
BRANCH   5   7
HETATM    7  C3  UNL     1      74.817  16.235  25.421  1.00  0.00     0.081 A 
HETATM    8  C4  UNL     1      74.620  15.509  26.558  1.00  0.00     0.119 A 
HETATM    9  N5  UNL     1      73.825  16.045  27.550  1.00  0.00    -0.303 N 
HETATM   10  C6  UNL     1      73.226  17.230  27.478  1.00  0.00     0.326 A 
ATOM     11  H5  UNL     1      73.688  15.495  28.398  1.00  0.00     0.171 HD
HETATM   12  O2  UNL     1      72.509  17.669  28.421  1.00  0.00    -0.247 OA
HETATM   13  N6  UNL     1      73.404  17.958  26.362  1.00  0.00    -0.294 N 
HETATM   14  C7  UNL     1      74.160  17.495  25.372  1.00  0.00     0.118 A 
ATOM     15  H6  UNL     1      72.956  18.871  26.275  1.00  0.00     0.172 HD
BRANCH   8  16
HETATM   16  C5  UNL     1      75.076  14.161  26.735  1.00  0.00     0.282 C 
HETATM   17  N4  UNL     1      75.771  13.858  27.965  1.00  0.00    -0.056 NA
HETATM   18  O1  UNL     1      74.939  13.244  25.955  1.00  0.00    -0.269 OA
ENDBRANCH   8  16
BRANCH  14  19
HETATM   19  N7  UNL     1      74.308  18.211  24.321  1.00  0.00    -0.385 N 
ATOM     20  H72 UNL     1      73.768  17.979  23.488  1.00  0.00     0.157 HD
ATOM     21  H71 UNL     1      74.966  18.988  24.360  1.00  0.00     0.157 HD
ENDBRANCH  14  19
ENDBRANCH   5   7
TORSDOF 3
ENDMDL
