MODEL 1
REMARK VINA RESULT: -5.226066101      0.000      0.000
REMARK  3 active torsions:
REMARK  status: ('A' for Active; 'I' for Inactive)
REMARK    1  A    between atoms: N1_1  and  C1_4 
REMARK    2  A    between atoms: N3_9  and  C3_10 
REMARK    3  A    between atoms: C3_10  and  C4_11 
ROOT
HETATM    1  C1  UNL     1      72.164  16.295  26.203  1.00  0.00     0.683 A 
HETATM    2  N2  UNL     1      72.625  15.018  26.191  1.00  0.00    -0.141 N 
ATOM      3  H2  UNL     1      72.007  14.233  26.396  1.00  0.00     0.189 HD
HETATM    4  C2  UNL     1      73.916  14.825  25.902  1.00  0.00     0.348 A 
HETATM    5  O1  UNL     1      74.381  13.669  25.881  1.00  0.00    -0.245 OA
HETATM    6  N3  UNL     1      74.774  15.817  25.623  1.00  0.00    -0.227 N 
HETATM    7  C7  UNL     1      74.301  17.074  25.639  1.00  0.00     0.348 A 
HETATM    8  O2  UNL     1      74.978  18.105  25.404  1.00  0.00    -0.245 OA
HETATM    9  N7  UNL     1      72.995  17.317  25.929  1.00  0.00    -0.141 N 
ATOM     10  H7  UNL     1      72.645  18.275  25.939  1.00  0.00     0.189 HD
ENDROOT
BRANCH   6  11
HETATM   11  C3  UNL     1      76.115  15.555  25.347  1.00  0.00     0.106 C 
BRANCH  11  12
HETATM   12  C4  UNL     1      76.614  15.136  24.056  1.00  0.00     0.141 C 
HETATM   13  C5  UNL     1      75.911  15.646  22.818  1.00  0.00     0.152 C 
HETATM   14  N4  UNL     1      76.982  15.599  21.783  1.00  0.00    -0.362 N 
HETATM   15  C6  UNL     1      78.135  15.695  22.395  1.00  0.00     0.184 C 
ATOM     16  H4  UNL     1      76.841  15.507  20.777  1.00  0.00     0.162 HD
HETATM   17  N5  UNL     1      79.387  15.686  21.733  1.00  0.00    -0.064 NA
HETATM   18  N6  UNL     1      77.911  15.804  23.809  1.00  0.00    -0.354 N 
ATOM     19  H6  UNL     1      78.518  16.248  24.498  1.00  0.00     0.163 HD
ENDBRANCH  11  12
ENDBRANCH   6  11
BRANCH   1  20
HETATM   20  N1  UNL     1      70.926  16.573  26.473  1.00  0.00    -0.234 N 
ATOM     21  H12 UNL     1      70.216  15.883  26.229  1.00  0.00     0.174 HD
ATOM     22  H11 UNL     1      70.656  17.451  26.915  1.00  0.00     0.174 HD
ENDBRANCH   1  20
TORSDOF 3
ENDMDL
MODEL 2
REMARK VINA RESULT: -5.183484518      1.970      3.281
REMARK  3 active torsions:
REMARK  status: ('A' for Active; 'I' for Inactive)
REMARK    1  A    between atoms: N1_1  and  C1_4 
REMARK    2  A    between atoms: N3_9  and  C3_10 
REMARK    3  A    between atoms: C3_10  and  C4_11 
ROOT
HETATM    1  C1  UNL     1      74.289  15.588  25.837  1.00  0.00     0.683 A 
HETATM    2  N2  UNL     1      74.239  16.867  25.385  1.00  0.00    -0.141 N 
ATOM      3  H2  UNL     1      73.573  17.537  25.769  1.00  0.00     0.189 HD
HETATM    4  C2  UNL     1      75.094  17.220  24.418  1.00  0.00     0.348 A 
HETATM    5  O1  UNL     1      75.081  18.384  23.974  1.00  0.00    -0.245 OA
HETATM    6  N3  UNL     1      75.992  16.385  23.876  1.00  0.00    -0.227 N 
HETATM    7  C7  UNL     1      76.028  15.124  24.336  1.00  0.00     0.348 A 
HETATM    8  O2  UNL     1      76.807  14.227  23.929  1.00  0.00    -0.245 OA
HETATM    9  N7  UNL     1      75.176  14.721  25.317  1.00  0.00    -0.141 N 
ATOM     10  H7  UNL     1      75.211  13.761  25.659  1.00  0.00     0.189 HD
ENDROOT
BRANCH   6  11
HETATM   11  C3  UNL     1      76.845  16.805  22.858  1.00  0.00     0.106 C 
BRANCH  11  12
HETATM   12  C4  UNL     1      76.609  16.575  21.450  1.00  0.00     0.141 C 
HETATM   13  C5  UNL     1      77.632  17.086  20.460  1.00  0.00     0.152 C 
HETATM   14  N4  UNL     1      77.457  16.173  19.297  1.00  0.00    -0.362 N 
HETATM   15  C6  UNL     1      76.970  15.043  19.744  1.00  0.00     0.184 C 
ATOM     16  H4  UNL     1      77.677  16.389  18.325  1.00  0.00     0.162 HD
HETATM   17  N5  UNL     1      76.671  13.928  18.924  1.00  0.00    -0.064 NA
HETATM   18  N6  UNL     1      76.797  15.134  21.166  1.00  0.00    -0.354 N 
ATOM     19  H6  UNL     1      76.801  14.368  21.840  1.00  0.00     0.163 HD
ENDBRANCH  11  12
ENDBRANCH   6  11
BRANCH   1  20
HETATM   20  N1  UNL     1      73.497  15.161  26.772  1.00  0.00    -0.234 N 
ATOM     21  H12 UNL     1      72.492  15.234  26.618  1.00  0.00     0.174 HD
ATOM     22  H11 UNL     1      73.856  14.763  27.639  1.00  0.00     0.174 HD
ENDBRANCH   1  20
TORSDOF 3
ENDMDL
MODEL 3
REMARK VINA RESULT: -5.165167861      0.109      1.971
REMARK  3 active torsions:
REMARK  status: ('A' for Active; 'I' for Inactive)
REMARK    1  A    between atoms: N1_1  and  C1_4 
REMARK    2  A    between atoms: N3_9  and  C3_10 
REMARK    3  A    between atoms: C3_10  and  C4_11 
ROOT
HETATM    1  C1  UNL     1      72.194  16.405  26.201  1.00  0.00     0.683 A 
HETATM    2  N2  UNL     1      73.019  17.447  25.926  1.00  0.00    -0.141 N 
ATOM      3  H2  UNL     1      72.673  18.407  25.923  1.00  0.00     0.189 HD
HETATM    4  C2  UNL     1      74.301  17.174  25.660  1.00  0.00     0.348 A 
HETATM    5  O1  UNL     1      75.092  18.101  25.402  1.00  0.00    -0.245 OA
HETATM    6  N3  UNL     1      74.812  15.935  25.652  1.00  0.00    -0.227 N 
HETATM    7  C7  UNL     1      73.981  14.915  25.926  1.00  0.00     0.348 A 
HETATM    8  O2  UNL     1      74.308  13.703  25.954  1.00  0.00    -0.245 OA
HETATM    9  N7  UNL     1      72.670  15.147  26.201  1.00  0.00    -0.141 N 
ATOM     10  H7  UNL     1      72.047  14.366  26.408  1.00  0.00     0.189 HD
ENDROOT
BRANCH   6  11
HETATM   11  C3  UNL     1      76.153  15.709  25.349  1.00  0.00     0.106 C 
BRANCH  11  12
HETATM   12  C4  UNL     1      76.631  15.229  24.071  1.00  0.00     0.141 C 
HETATM   13  C5  UNL     1      75.880  15.645  22.826  1.00  0.00     0.152 C 
HETATM   14  N4  UNL     1      76.923  15.568  21.766  1.00  0.00    -0.362 N 
HETATM   15  C6  UNL     1      78.089  15.735  22.338  1.00  0.00     0.184 C 
ATOM     16  H4  UNL     1      76.759  15.414  20.771  1.00  0.00     0.162 HD
HETATM   17  N5  UNL     1      79.322  15.726  21.643  1.00  0.00    -0.064 NA
HETATM   18  N6  UNL     1      77.899  15.920  23.749  1.00  0.00    -0.354 N 
ATOM     19  H6  UNL     1      78.510  16.422  24.394  1.00  0.00     0.163 HD
ENDBRANCH  11  12
ENDBRANCH   6  11
BRANCH   1  20
HETATM   20  N1  UNL     1      70.936  16.580  26.470  1.00  0.00    -0.234 N 
ATOM     21  H12 UNL     1      70.291  16.697  25.688  1.00  0.00     0.174 HD
ATOM     22  H11 UNL     1      70.590  16.601  27.428  1.00  0.00     0.174 HD
ENDBRANCH   1  20
TORSDOF 3
ENDMDL
MODEL 4
REMARK VINA RESULT: -5.132903196      1.968      2.716
REMARK  3 active torsions:
REMARK  status: ('A' for Active; 'I' for Inactive)
REMARK    1  A    between atoms: N1_1  and  C1_4 
REMARK    2  A    between atoms: N3_9  and  C3_10 
REMARK    3  A    between atoms: C3_10  and  C4_11 
ROOT
HETATM    1  C1  UNL     1      74.298  15.606  25.910  1.00  0.00     0.683 A 
HETATM    2  N2  UNL     1      75.190  14.710  25.413  1.00  0.00    -0.141 N 
ATOM      3  H2  UNL     1      75.239  13.758  25.775  1.00  0.00     0.189 HD
HETATM    4  C2  UNL     1      76.002  15.119  24.432  1.00  0.00     0.348 A 
HETATM    5  O1  UNL     1      76.836  14.330  23.948  1.00  0.00    -0.245 OA
HETATM    6  N3  UNL     1      75.982  16.356  23.915  1.00  0.00    -0.227 N 
HETATM    7  C7  UNL     1      75.094  17.228  24.418  1.00  0.00     0.348 A 
HETATM    8  O2  UNL     1      74.956  18.419  24.043  1.00  0.00    -0.245 OA
HETATM    9  N7  UNL     1      74.249  16.856  25.417  1.00  0.00    -0.141 N 
ATOM     10  H7  UNL     1      73.578  17.526  25.793  1.00  0.00     0.189 HD
ENDROOT
BRANCH   6  11
HETATM   11  C3  UNL     1      76.866  16.731  22.905  1.00  0.00     0.106 C 
BRANCH  11  12
HETATM   12  C4  UNL     1      76.614  16.550  21.493  1.00  0.00     0.141 C 
HETATM   13  C5  UNL     1      77.628  17.092  20.510  1.00  0.00     0.152 C 
HETATM   14  N4  UNL     1      77.436  16.220  19.318  1.00  0.00    -0.362 N 
HETATM   15  C6  UNL     1      76.950  15.077  19.731  1.00  0.00     0.184 C 
ATOM     16  H4  UNL     1      77.647  16.470  18.351  1.00  0.00     0.162 HD
HETATM   17  N5  UNL     1      76.638  13.993  18.876  1.00  0.00    -0.064 NA
HETATM   18  N6  UNL     1      76.793  15.120  21.157  1.00  0.00    -0.354 N 
ATOM     19  H6  UNL     1      76.802  14.331  21.804  1.00  0.00     0.163 HD
ENDBRANCH  11  12
ENDBRANCH   6  11
BRANCH   1  20
HETATM   20  N1  UNL     1      73.473  15.293  26.861  1.00  0.00    -0.234 N 
ATOM     21  H12 UNL     1      73.633  14.422  27.366  1.00  0.00     0.174 HD
ATOM     22  H11 UNL     1      72.686  15.892  27.108  1.00  0.00     0.174 HD
ENDBRANCH   1  20
TORSDOF 3
ENDMDL
MODEL 5
REMARK VINA RESULT: -5.097963945      2.191      5.607
REMARK  3 active torsions:
REMARK  status: ('A' for Active; 'I' for Inactive)
REMARK    1  A    between atoms: N1_1  and  C1_4 
REMARK    2  A    between atoms: N3_9  and  C3_10 
REMARK    3  A    between atoms: C3_10  and  C4_11 
ROOT
HETATM    1  C1  UNL     1      77.422  16.732  21.715  1.00  0.00     0.683 A 
HETATM    2  N2  UNL     1      76.409  17.565  22.065  1.00  0.00    -0.141 N 
ATOM      3  H2  UNL     1      76.306  18.482  21.630  1.00  0.00     0.189 HD
HETATM    4  C2  UNL     1      75.551  17.143  23.000  1.00  0.00     0.348 A 
HETATM    5  O1  UNL     1      74.608  17.877  23.352  1.00  0.00    -0.245 OA
HETATM    6  N3  UNL     1      75.635  15.950  23.604  1.00  0.00    -0.227 N 
HETATM    7  C7  UNL     1      76.643  15.138  23.245  1.00  0.00     0.348 A 
HETATM    8  O2  UNL     1      76.857  13.995  23.720  1.00  0.00    -0.245 OA
HETATM    9  N7  UNL     1      77.540  15.527  22.300  1.00  0.00    -0.141 N 
ATOM     10  H7  UNL     1      78.302  14.903  22.033  1.00  0.00     0.189 HD
ENDROOT
BRANCH   6  11
HETATM   11  C3  UNL     1      74.721  15.571  24.586  1.00  0.00     0.106 C 
BRANCH  11  12
HETATM   12  C4  UNL     1      75.046  15.416  25.986  1.00  0.00     0.141 C 
HETATM   13  C5  UNL     1      74.029  15.867  27.011  1.00  0.00     0.152 C 
HETATM   14  N4  UNL     1      74.347  15.017  28.192  1.00  0.00    -0.362 N 
HETATM   15  C6  UNL     1      74.915  13.921  27.757  1.00  0.00     0.184 C 
ATOM     16  H4  UNL     1      74.155  15.248  29.167  1.00  0.00     0.162 HD
HETATM   17  N5  UNL     1      75.358  12.870  28.595  1.00  0.00    -0.064 NA
HETATM   18  N6  UNL     1      75.009  13.976  26.325  1.00  0.00    -0.354 N 
ATOM     19  H6  UNL     1      75.044  13.188  25.678  1.00  0.00     0.163 HD
ENDBRANCH  11  12
ENDBRANCH   6  11
BRANCH   1  20
HETATM   20  N1  UNL     1      78.300  17.061  20.817  1.00  0.00    -0.234 N 
ATOM     21  H12 UNL     1      78.015  17.714  20.087  1.00  0.00     0.174 HD
ATOM     22  H11 UNL     1      79.248  16.686  20.829  1.00  0.00     0.174 HD
ENDBRANCH   1  20
TORSDOF 3
ENDMDL
