MODEL 1
REMARK VINA RESULT: -5.594775080      0.000      0.000
REMARK  9 active torsions:
REMARK  status: ('A' for Active; 'I' for Inactive)
REMARK    1  A    between atoms: N1_1  and  C1_4 
REMARK    2  A    between atoms: N3_12  and  C5_13 
REMARK    3  A    between atoms: C5_13  and  C6_14 
REMARK    4  A    between atoms: C6_14  and  O3_15 
REMARK    5  A    between atoms: C6_14  and  C7_17 
REMARK    6  A    between atoms: C7_17  and  O4_18 
REMARK    7  A    between atoms: N4_20  and  O5_21 
REMARK    8  A    between atoms: N5_24  and  C9_25 
REMARK    9  A    between atoms: C11_29  and  O6_30 
ROOT
HETATM    1  C1  UNL     1      14.926 -40.325  28.756  1.00  0.00     0.683 A 
HETATM    2  N2  UNL     1      16.035 -41.015  28.384  1.00  0.00    -0.155 N 
ATOM      3  H2  UNL     1      15.966 -41.756  27.686  1.00  0.00     0.187 HD
HETATM    4  C2  UNL     1      17.216 -40.725  28.932  1.00  0.00     0.279 A 
HETATM    5  O1  UNL     1      18.264 -41.327  28.625  1.00  0.00    -0.266 OA
HETATM    6  C3  UNL     1      17.278 -39.710  29.881  1.00  0.00     0.150 A 
HETATM    7  C4  UNL     1      18.321 -39.188  30.611  1.00  0.00     0.283 A 
HETATM    8  O2  UNL     1      19.517 -39.563  30.551  1.00  0.00    -0.265 OA
HETATM    9  N3  UNL     1      17.841 -38.203  31.407  1.00  0.00    -0.226 N 
HETATM   10  N4  UNL     1      16.551 -38.135  31.161  1.00  0.00    -0.139 N 
HETATM   11  C8  UNL     1      16.128 -39.019  30.245  1.00  0.00     0.191 A 
HETATM   12  N5  UNL     1      14.919 -39.337  29.665  1.00  0.00    -0.153 N 
ENDROOT
BRANCH   9  13
HETATM   13  C5  UNL     1      18.686 -37.406  32.307  1.00  0.00     0.189 C 
BRANCH  13  14
HETATM   14  C6  UNL     1      19.299 -36.216  31.651  1.00  0.00     0.161 C 
BRANCH  14  15
HETATM   15  O3  UNL     1      19.795 -36.502  30.364  1.00  0.00    -0.392 OA
ATOM     16  H3  UNL     1      20.361 -37.266  30.351  1.00  0.00     0.210 HD
ENDBRANCH  14  15
BRANCH  14  17
HETATM   17  C7  UNL     1      18.304 -35.101  31.457  1.00  0.00     0.197 C 
BRANCH  17  18
HETATM   18  O4  UNL     1      17.871 -35.020  30.132  1.00  0.00    -0.398 OA
ATOM     19  H4  UNL     1      17.134 -35.596  29.966  1.00  0.00     0.209 HD
ENDBRANCH  17  18
ENDBRANCH  14  17
ENDBRANCH  13  14
ENDBRANCH   9  13
BRANCH  10  20
HETATM   20  O5  UNL     1      15.730 -37.223  31.779  1.00  0.00    -0.266 OA
ATOM     21  H5  UNL     1      15.114 -36.684  31.298  1.00  0.00     0.247 HD
ENDBRANCH  10  20
BRANCH  12  22
HETATM   22  C9  UNL     1      13.795 -38.624  30.052  1.00  0.00     0.171 C 
HETATM   23  C10 UNL     1      13.197 -37.594  29.106  1.00  0.00     0.160 C 
HETATM   24  N6  UNL     1      12.156 -37.111  30.073  1.00  0.00    -0.144 NA
HETATM   25  N7  UNL     1      11.632 -38.293  30.640  1.00  0.00    -0.114 NA
HETATM   26  C11 UNL     1      12.494 -39.396  30.191  1.00  0.00     0.252 C 
BRANCH  26  27
HETATM   27  O6  UNL     1      12.510 -40.473  31.002  1.00  0.00    -0.376 OA
ATOM     28  H6  UNL     1      13.125 -41.164  30.786  1.00  0.00     0.211 HD
ENDBRANCH  26  27
ENDBRANCH  12  22
BRANCH   1  29
HETATM   29  N1  UNL     1      13.799 -40.624  28.214  1.00  0.00    -0.234 N 
ATOM     30  H12 UNL     1      13.590 -41.616  28.101  1.00  0.00     0.174 HD
ATOM     31  H11 UNL     1      13.175 -39.870  27.927  1.00  0.00     0.174 HD
ENDBRANCH   1  29
TORSDOF 9
ENDMDL
MODEL 2
REMARK VINA RESULT: -5.519394072      3.214      5.950
REMARK  9 active torsions:
REMARK  status: ('A' for Active; 'I' for Inactive)
REMARK    1  A    between atoms: N1_1  and  C1_4 
REMARK    2  A    between atoms: N3_12  and  C5_13 
REMARK    3  A    between atoms: C5_13  and  C6_14 
REMARK    4  A    between atoms: C6_14  and  O3_15 
REMARK    5  A    between atoms: C6_14  and  C7_17 
REMARK    6  A    between atoms: C7_17  and  O4_18 
REMARK    7  A    between atoms: N4_20  and  O5_21 
REMARK    8  A    between atoms: N5_24  and  C9_25 
REMARK    9  A    between atoms: C11_29  and  O6_30 
ROOT
HETATM    1  C1  UNL     1      15.110 -37.544  29.607  1.00  0.00     0.683 A 
HETATM    2  N2  UNL     1      13.917 -38.014  29.156  1.00  0.00    -0.155 N 
ATOM      3  H2  UNL     1      13.765 -38.143  28.155  1.00  0.00     0.187 HD
HETATM    4  C2  UNL     1      12.946 -38.307  30.022  1.00  0.00     0.279 A 
HETATM    5  O1  UNL     1      11.835 -38.742  29.661  1.00  0.00    -0.266 OA
HETATM    6  C3  UNL     1      13.185 -38.120  31.379  1.00  0.00     0.150 A 
HETATM    7  C4  UNL     1      12.404 -38.323  32.493  1.00  0.00     0.283 A 
HETATM    8  O2  UNL     1      11.226 -38.755  32.493  1.00  0.00    -0.265 OA
HETATM    9  N3  UNL     1      13.119 -37.979  33.590  1.00  0.00    -0.226 N 
HETATM   10  N4  UNL     1      14.292 -37.582  33.149  1.00  0.00    -0.139 N 
HETATM   11  C8  UNL     1      14.414 -37.636  31.814  1.00  0.00     0.191 A 
HETATM   12  N5  UNL     1      15.402 -37.341  30.901  1.00  0.00    -0.153 N 
ENDROOT
BRANCH   9  13
HETATM   13  C5  UNL     1      12.602 -38.094  34.962  1.00  0.00     0.189 C 
BRANCH  13  14
HETATM   14  C6  UNL     1      12.088 -36.809  35.516  1.00  0.00     0.161 C 
BRANCH  14  15
HETATM   15  O3  UNL     1      12.767 -35.687  35.000  1.00  0.00    -0.392 OA
ATOM     16  H3  UNL     1      13.486 -35.408  35.555  1.00  0.00     0.210 HD
ENDBRANCH  14  15
BRANCH  14  17
HETATM   17  C7  UNL     1      10.637 -36.587  35.178  1.00  0.00     0.197 C 
BRANCH  17  18
HETATM   18  O4  UNL     1      10.484 -35.945  33.949  1.00  0.00    -0.398 OA
ATOM     19  H4  UNL     1       9.667 -35.463  33.902  1.00  0.00     0.209 HD
ENDBRANCH  17  18
ENDBRANCH  14  17
ENDBRANCH  13  14
ENDBRANCH   9  13
BRANCH  10  20
HETATM   20  O5  UNL     1      15.296 -37.173  33.992  1.00  0.00    -0.266 OA
ATOM     21  H5  UNL     1      15.984 -36.578  33.715  1.00  0.00     0.247 HD
ENDBRANCH  10  20
BRANCH  12  22
HETATM   22  C9  UNL     1      16.615 -36.863  31.374  1.00  0.00     0.171 C 
HETATM   23  C10 UNL     1      17.874 -37.061  30.544  1.00  0.00     0.160 C 
HETATM   24  N6  UNL     1      18.803 -36.480  31.569  1.00  0.00    -0.144 NA
HETATM   25  N7  UNL     1      18.141 -35.319  32.022  1.00  0.00    -0.114 NA
HETATM   26  C11 UNL     1      16.786 -35.356  31.454  1.00  0.00     0.252 C 
BRANCH  26  27
HETATM   27  O6  UNL     1      15.857 -34.674  32.152  1.00  0.00    -0.376 OA
ATOM     28  H6  UNL     1      15.452 -35.127  32.882  1.00  0.00     0.211 HD
ENDBRANCH  26  27
ENDBRANCH  12  22
BRANCH   1  29
HETATM   29  N1  UNL     1      16.030 -37.267  28.752  1.00  0.00    -0.234 N 
ATOM     30  H12 UNL     1      15.793 -37.379  27.766  1.00  0.00     0.174 HD
ATOM     31  H11 UNL     1      16.940 -36.955  29.092  1.00  0.00     0.174 HD
ENDBRANCH   1  29
TORSDOF 9
ENDMDL
MODEL 3
REMARK VINA RESULT: -5.504172669      3.491      5.987
REMARK  9 active torsions:
REMARK  status: ('A' for Active; 'I' for Inactive)
REMARK    1  A    between atoms: N1_1  and  C1_4 
REMARK    2  A    between atoms: N3_12  and  C5_13 
REMARK    3  A    between atoms: C5_13  and  C6_14 
REMARK    4  A    between atoms: C6_14  and  O3_15 
REMARK    5  A    between atoms: C6_14  and  C7_17 
REMARK    6  A    between atoms: C7_17  and  O4_18 
REMARK    7  A    between atoms: N4_20  and  O5_21 
REMARK    8  A    between atoms: N5_24  and  C9_25 
REMARK    9  A    between atoms: C11_29  and  O6_30 
ROOT
HETATM    1  C1  UNL     1      15.084 -37.588  29.516  1.00  0.00     0.683 A 
HETATM    2  N2  UNL     1      13.871 -38.075  29.145  1.00  0.00    -0.155 N 
ATOM      3  H2  UNL     1      13.674 -38.258  28.161  1.00  0.00     0.187 HD
HETATM    4  C2  UNL     1      12.938 -38.313  30.067  1.00  0.00     0.279 A 
HETATM    5  O1  UNL     1      11.810 -38.761  29.779  1.00  0.00    -0.266 OA
HETATM    6  C3  UNL     1      13.237 -38.053  31.400  1.00  0.00     0.150 A 
HETATM    7  C4  UNL     1      12.504 -38.190  32.556  1.00  0.00     0.283 A 
HETATM    8  O2  UNL     1      11.325 -38.613  32.631  1.00  0.00    -0.265 OA
HETATM    9  N3  UNL     1      13.268 -37.789  33.601  1.00  0.00    -0.226 N 
HETATM   10  N4  UNL     1      14.422 -37.425  33.088  1.00  0.00    -0.139 N 
HETATM   11  C8  UNL     1      14.485 -37.554  31.754  1.00  0.00     0.191 A 
HETATM   12  N5  UNL     1      15.434 -37.316  30.783  1.00  0.00    -0.153 N 
ENDROOT
BRANCH   9  13
HETATM   13  C5  UNL     1      12.811 -37.826  34.998  1.00  0.00     0.189 C 
BRANCH  13  14
HETATM   14  C6  UNL     1      12.659 -36.475  35.611  1.00  0.00     0.161 C 
BRANCH  14  15
HETATM   15  O3  UNL     1      11.642 -35.715  35.001  1.00  0.00    -0.392 OA
ATOM     16  H3  UNL     1      11.013 -35.375  35.628  1.00  0.00     0.210 HD
ENDBRANCH  14  15
BRANCH  14  17
HETATM   17  C7  UNL     1      12.280 -36.554  37.067  1.00  0.00     0.197 C 
BRANCH  17  18
HETATM   18  O4  UNL     1      13.060 -35.705  37.853  1.00  0.00    -0.398 OA
ATOM     19  H4  UNL     1      13.057 -35.968  38.766  1.00  0.00     0.209 HD
ENDBRANCH  17  18
ENDBRANCH  14  17
ENDBRANCH  13  14
ENDBRANCH   9  13
BRANCH  10  20
HETATM   20  O5  UNL     1      15.464 -36.976  33.862  1.00  0.00    -0.266 OA
ATOM     21  H5  UNL     1      15.340 -36.364  34.578  1.00  0.00     0.247 HD
ENDBRANCH  10  20
BRANCH  12  22
HETATM   22  C9  UNL     1      16.668 -36.820  31.176  1.00  0.00     0.171 C 
HETATM   23  C10 UNL     1      17.877 -37.021  30.275  1.00  0.00     0.160 C 
HETATM   24  N6  UNL     1      18.860 -36.416  31.234  1.00  0.00    -0.144 NA
HETATM   25  N7  UNL     1      18.215 -35.254  31.709  1.00  0.00    -0.114 NA
HETATM   26  C11 UNL     1      16.829 -35.311  31.223  1.00  0.00     0.252 C 
BRANCH  26  27
HETATM   27  O6  UNL     1      15.937 -34.627  31.965  1.00  0.00    -0.376 OA
ATOM     28  H6  UNL     1      16.165 -34.469  32.873  1.00  0.00     0.211 HD
ENDBRANCH  26  27
ENDBRANCH  12  22
BRANCH   1  29
HETATM   29  N1  UNL     1      15.967 -37.365  28.608  1.00  0.00    -0.234 N 
ATOM     30  H12 UNL     1      16.097 -38.091  27.903  1.00  0.00     0.174 HD
ATOM     31  H11 UNL     1      16.489 -36.489  28.634  1.00  0.00     0.174 HD
ENDBRANCH   1  29
TORSDOF 9
ENDMDL
MODEL 4
REMARK VINA RESULT: -5.386920499      4.554      8.214
REMARK  9 active torsions:
REMARK  status: ('A' for Active; 'I' for Inactive)
REMARK    1  A    between atoms: N1_1  and  C1_4 
REMARK    2  A    between atoms: N3_12  and  C5_13 
REMARK    3  A    between atoms: C5_13  and  C6_14 
REMARK    4  A    between atoms: C6_14  and  O3_15 
REMARK    5  A    between atoms: C6_14  and  C7_17 
REMARK    6  A    between atoms: C7_17  and  O4_18 
REMARK    7  A    between atoms: N4_20  and  O5_21 
REMARK    8  A    between atoms: N5_24  and  C9_25 
REMARK    9  A    between atoms: C11_29  and  O6_30 
ROOT
HETATM    1  C1  UNL     1      22.789 -38.083  34.943  1.00  0.00     0.683 A 
HETATM    2  N2  UNL     1      21.919 -38.495  35.902  1.00  0.00    -0.155 N 
ATOM      3  H2  UNL     1      22.270 -38.823  36.802  1.00  0.00     0.187 HD
HETATM    4  C2  UNL     1      20.607 -38.472  35.665  1.00  0.00     0.279 A 
HETATM    5  O1  UNL     1      19.768 -38.839  36.511  1.00  0.00    -0.266 OA
HETATM    6  C3  UNL     1      20.162 -38.021  34.428  1.00  0.00     0.150 A 
HETATM    7  C4  UNL     1      18.901 -37.882  33.893  1.00  0.00     0.283 A 
HETATM    8  O2  UNL     1      17.824 -38.160  34.473  1.00  0.00    -0.265 OA
HETATM    9  N3  UNL     1      19.019 -37.396  32.634  1.00  0.00    -0.226 N 
HETATM   10  N4  UNL     1      20.307 -37.247  32.422  1.00  0.00    -0.139 N 
HETATM   11  C8  UNL     1      21.072 -37.605  33.463  1.00  0.00     0.191 A 
HETATM   12  N5  UNL     1      22.424 -37.638  33.731  1.00  0.00    -0.153 N 
ENDROOT
BRANCH   9  13
HETATM   13  C5  UNL     1      17.866 -37.098  31.771  1.00  0.00     0.189 C 
BRANCH  13  14
HETATM   14  C6  UNL     1      17.629 -35.639  31.576  1.00  0.00     0.161 C 
BRANCH  14  15
HETATM   15  O3  UNL     1      18.224 -35.147  30.398  1.00  0.00    -0.392 OA
ATOM     16  H3  UNL     1      18.906 -34.509  30.572  1.00  0.00     0.210 HD
ENDBRANCH  14  15
BRANCH  14  17
HETATM   17  C7  UNL     1      16.162 -35.317  31.447  1.00  0.00     0.197 C 
BRANCH  17  18
HETATM   18  O4  UNL     1      15.613 -34.907  32.663  1.00  0.00    -0.398 OA
ATOM     19  H4  UNL     1      14.753 -35.285  32.806  1.00  0.00     0.209 HD
ENDBRANCH  17  18
ENDBRANCH  14  17
ENDBRANCH  13  14
ENDBRANCH   9  13
BRANCH  10  20
HETATM   20  O5  UNL     1      20.807 -36.748  31.243  1.00  0.00    -0.266 OA
ATOM     21  H5  UNL     1      21.662 -36.339  31.184  1.00  0.00     0.247 HD
ENDBRANCH  10  20
BRANCH  12  22
HETATM   22  C9  UNL     1      23.301 -37.213  32.744  1.00  0.00     0.171 C 
HETATM   23  C10 UNL     1      24.101 -35.937  32.952  1.00  0.00     0.160 C 
HETATM   24  N6  UNL     1      24.724 -35.946  31.587  1.00  0.00    -0.144 NA
HETATM   25  N7  UNL     1      25.116 -37.288  31.391  1.00  0.00    -0.114 NA
HETATM   26  C11 UNL     1      24.534 -38.064  32.496  1.00  0.00     0.252 C 
BRANCH  26  27
HETATM   27  O6  UNL     1      24.330 -39.369  32.230  1.00  0.00    -0.376 OA
ATOM     28  H6  UNL     1      23.546 -39.589  31.742  1.00  0.00     0.211 HD
ENDBRANCH  26  27
ENDBRANCH  12  22
BRANCH   1  29
HETATM   29  N1  UNL     1      24.050 -38.116  35.194  1.00  0.00    -0.234 N 
ATOM     30  H12 UNL     1      24.424 -37.366  35.776  1.00  0.00     0.174 HD
ATOM     31  H11 UNL     1      24.610 -38.876  34.807  1.00  0.00     0.174 HD
ENDBRANCH   1  29
TORSDOF 9
ENDMDL
MODEL 5
REMARK VINA RESULT: -5.355155569      1.944      5.719
REMARK  9 active torsions:
REMARK  status: ('A' for Active; 'I' for Inactive)
REMARK    1  A    between atoms: N1_1  and  C1_4 
REMARK    2  A    between atoms: N3_12  and  C5_13 
REMARK    3  A    between atoms: C5_13  and  C6_14 
REMARK    4  A    between atoms: C6_14  and  O3_15 
REMARK    5  A    between atoms: C6_14  and  C7_17 
REMARK    6  A    between atoms: C7_17  and  O4_18 
REMARK    7  A    between atoms: N4_20  and  O5_21 
REMARK    8  A    between atoms: N5_24  and  C9_25 
REMARK    9  A    between atoms: C11_29  and  O6_30 
ROOT
HETATM    1  C1  UNL     1      19.052 -39.430  30.791  1.00  0.00     0.683 A 
HETATM    2  N2  UNL     1      19.139 -40.695  30.303  1.00  0.00    -0.155 N 
ATOM      3  H2  UNL     1      19.968 -41.259  30.491  1.00  0.00     0.187 HD
HETATM    4  C2  UNL     1      18.141 -41.199  29.576  1.00  0.00     0.279 A 
HETATM    5  O1  UNL     1      18.171 -42.353  29.105  1.00  0.00    -0.266 OA
HETATM    6  C3  UNL     1      17.025 -40.405  29.336  1.00  0.00     0.150 A 
HETATM    7  C4  UNL     1      15.861 -40.631  28.638  1.00  0.00     0.283 A 
HETATM    8  O2  UNL     1      15.561 -41.691  28.037  1.00  0.00    -0.265 OA
HETATM    9  N3  UNL     1      15.092 -39.519  28.709  1.00  0.00    -0.226 N 
HETATM   10  N4  UNL     1      15.772 -38.653  29.427  1.00  0.00    -0.139 N 
HETATM   11  C8  UNL     1      16.960 -39.113  29.846  1.00  0.00     0.191 A 
HETATM   12  N5  UNL     1      18.004 -38.614  30.595  1.00  0.00    -0.153 N 
ENDROOT
BRANCH   9  13
HETATM   13  C5  UNL     1      13.759 -39.415  28.096  1.00  0.00     0.189 C 
BRANCH  13  14
HETATM   14  C6  UNL     1      12.656 -39.878  28.986  1.00  0.00     0.161 C 
BRANCH  14  15
HETATM   15  O3  UNL     1      11.834 -38.820  29.424  1.00  0.00    -0.392 OA
ATOM     16  H3  UNL     1      10.911 -38.988  29.270  1.00  0.00     0.210 HD
ENDBRANCH  14  15
BRANCH  14  17
HETATM   17  C7  UNL     1      11.731 -40.840  28.287  1.00  0.00     0.197 C 
BRANCH  17  18
HETATM   18  O4  UNL     1      11.374 -40.384  27.017  1.00  0.00    -0.398 OA
ATOM     19  H4  UNL     1      11.591 -39.467  26.898  1.00  0.00     0.209 HD
ENDBRANCH  17  18
ENDBRANCH  14  17
ENDBRANCH  13  14
ENDBRANCH   9  13
BRANCH  10  20
HETATM   20  O5  UNL     1      15.288 -37.403  29.728  1.00  0.00    -0.266 OA
ATOM     21  H5  UNL     1      14.855 -37.208  30.551  1.00  0.00     0.247 HD
ENDBRANCH  10  20
BRANCH  12  22
HETATM   22  C9  UNL     1      17.902 -37.322  31.089  1.00  0.00     0.171 C 
HETATM   23  C10 UNL     1      17.415 -37.100  32.512  1.00  0.00     0.160 C 
HETATM   24  N6  UNL     1      17.406 -35.603  32.419  1.00  0.00    -0.144 NA
HETATM   25  N7  UNL     1      18.620 -35.286  31.773  1.00  0.00    -0.114 NA
HETATM   26  C11 UNL     1      19.195 -36.556  31.306  1.00  0.00     0.252 C 
BRANCH  26  27
HETATM   27  O6  UNL     1      20.025 -36.451  30.250  1.00  0.00    -0.376 OA
ATOM     28  H6  UNL     1      20.957 -36.455  30.435  1.00  0.00     0.211 HD
ENDBRANCH  26  27
ENDBRANCH  12  22
BRANCH   1  29
HETATM   29  N1  UNL     1      20.028 -38.966  31.488  1.00  0.00    -0.234 N 
ATOM     30  H12 UNL     1      20.403 -39.572  32.218  1.00  0.00     0.174 HD
ATOM     31  H11 UNL     1      20.376 -38.029  31.284  1.00  0.00     0.174 HD
ENDBRANCH   1  29
TORSDOF 9
ENDMDL
