MODEL 1
REMARK VINA RESULT: -6.166164797      0.000      0.000
REMARK  7 active torsions:
REMARK  status: ('A' for Active; 'I' for Inactive)
REMARK    1  A    between atoms: C3_7  and  C4_8 
REMARK       I    between atoms: C4_8  and  N4_10 
REMARK    2  A    between atoms: N4_10  and  S1_12 
REMARK    3  A    between atoms: S1_12  and  C5_15 
REMARK    4  A    between atoms: C6_18  and  O4_19 
REMARK    5  A    between atoms: C7_21  and  C8_22 
REMARK    6  A    between atoms: C8_22  and  O5_23 
REMARK    7  A    between atoms: C8_22  and  O6_25 
ROOT
HETATM    1  S1  UNL     1      15.823 -38.291  33.855  1.00  0.00     0.276 S 
HETATM    2  O2  UNL     1      15.268 -39.687  33.873  1.00  0.00    -0.201 OA
HETATM    3  O3  UNL     1      16.985 -38.168  34.768  1.00  0.00    -0.201 OA
ENDROOT
BRANCH   1   4
HETATM    4  N4  UNL     1      14.552 -37.192  34.237  1.00  0.00    -0.250 N 
HETATM    5  C4  UNL     1      13.877 -37.319  35.472  1.00  0.00     0.243 C 
HETATM    6  O1  UNL     1      14.210 -38.225  36.270  1.00  0.00    -0.272 OA
ATOM      7  H4  UNL     1      14.290 -36.457  33.579  1.00  0.00     0.181 HD
BRANCH   5   8
HETATM    8  C3  UNL     1      12.785 -36.358  35.778  1.00  0.00     0.160 C 
HETATM    9  C1  UNL     1      12.434 -36.352  37.222  1.00  0.00     0.119 C 
HETATM   10  N1  UNL     1      13.196 -35.802  38.275  1.00  0.00    -0.086 NA
HETATM   11  N2  UNL     1      11.309 -36.937  37.366  1.00  0.00    -0.294 N 
HETATM   12  N3  UNL     1      10.765 -37.389  36.178  1.00  0.00    -0.139 NA
ATOM     13  H2  UNL     1      10.854 -37.058  38.270  1.00  0.00     0.183 HD
HETATM   14  C2  UNL     1      11.536 -36.814  35.095  1.00  0.00     0.156 C 
ENDBRANCH   5   8
ENDBRANCH   1   4
BRANCH   1  15
HETATM   15  C5  UNL     1      16.374 -37.857  32.211  1.00  0.00     0.375 C 
HETATM   16  N5  UNL     1      15.903 -36.564  31.804  1.00  0.00    -0.096 NA
HETATM   17  N6  UNL     1      16.750 -35.549  32.226  1.00  0.00    -0.110 NA
HETATM   18  C6  UNL     1      18.014 -35.725  31.498  1.00  0.00     0.261 C 
HETATM   19  C7  UNL     1      18.208 -37.185  31.134  1.00  0.00     0.225 C 
HETATM   20  O7  UNL     1      17.766 -37.919  32.235  1.00  0.00    -0.340 OA
BRANCH  18  21
HETATM   21  O4  UNL     1      17.913 -35.008  30.308  1.00  0.00    -0.376 OA
ATOM     22  H4  UNL     1      17.737 -35.632  29.613  1.00  0.00     0.211 HD
ENDBRANCH  18  21
BRANCH  19  23
HETATM   23  C8  UNL     1      19.658 -37.527  30.901  1.00  0.00     0.286 C 
BRANCH  23  24
HETATM   24  O5  UNL     1      20.371 -36.371  30.597  1.00  0.00    -0.369 OA
ATOM     25  H5  UNL     1      21.299 -36.517  30.742  1.00  0.00     0.212 HD
ENDBRANCH  23  24
BRANCH  23  26
HETATM   26  O6  UNL     1      19.817 -38.452  29.872  1.00  0.00    -0.369 OA
ATOM     27  H6  UNL     1      20.707 -38.784  29.825  1.00  0.00     0.212 HD
ENDBRANCH  23  26
ENDBRANCH  19  23
ENDBRANCH   1  15
TORSDOF 7
ENDMDL
MODEL 2
REMARK VINA RESULT: -5.893437654      2.359      2.935
REMARK  7 active torsions:
REMARK  status: ('A' for Active; 'I' for Inactive)
REMARK    1  A    between atoms: C3_7  and  C4_8 
REMARK       I    between atoms: C4_8  and  N4_10 
REMARK    2  A    between atoms: N4_10  and  S1_12 
REMARK    3  A    between atoms: S1_12  and  C5_15 
REMARK    4  A    between atoms: C6_18  and  O4_19 
REMARK    5  A    between atoms: C7_21  and  C8_22 
REMARK    6  A    between atoms: C8_22  and  O5_23 
REMARK    7  A    between atoms: C8_22  and  O6_25 
ROOT
HETATM    1  S1  UNL     1      13.884 -37.665  30.609  1.00  0.00     0.276 S 
HETATM    2  O2  UNL     1      12.718 -37.016  29.920  1.00  0.00    -0.201 OA
HETATM    3  O3  UNL     1      14.049 -39.071  30.166  1.00  0.00    -0.201 OA
ENDROOT
BRANCH   1   4
HETATM    4  N4  UNL     1      13.663 -37.521  32.312  1.00  0.00    -0.250 N 
HETATM    5  C4  UNL     1      12.566 -38.169  32.923  1.00  0.00     0.243 C 
HETATM    6  O1  UNL     1      11.771 -38.837  32.222  1.00  0.00    -0.272 OA
ATOM      7  H4  UNL     1      14.317 -36.974  32.872  1.00  0.00     0.181 HD
BRANCH   5   8
HETATM    8  C3  UNL     1      12.397 -38.029  34.393  1.00  0.00     0.160 C 
HETATM    9  C1  UNL     1      11.496 -36.902  34.748  1.00  0.00     0.119 C 
HETATM   10  N1  UNL     1      10.094 -36.861  34.597  1.00  0.00    -0.086 NA
HETATM   11  N2  UNL     1      12.205 -35.954  35.223  1.00  0.00    -0.294 N 
HETATM   12  N3  UNL     1      13.556 -36.242  35.267  1.00  0.00    -0.139 NA
ATOM     13  H2  UNL     1      11.813 -35.068  35.541  1.00  0.00     0.183 HD
HETATM   14  C2  UNL     1      13.713 -37.656  34.996  1.00  0.00     0.156 C 
ENDBRANCH   5   8
ENDBRANCH   1   4
BRANCH   1  15
HETATM   15  C5  UNL     1      15.399 -36.795  30.232  1.00  0.00     0.375 C 
HETATM   16  N5  UNL     1      15.490 -35.539  30.920  1.00  0.00    -0.096 NA
HETATM   17  N6  UNL     1      16.031 -35.685  32.190  1.00  0.00    -0.110 NA
HETATM   18  C6  UNL     1      17.426 -36.105  32.009  1.00  0.00     0.261 C 
HETATM   19  C7  UNL     1      17.579 -36.857  30.699  1.00  0.00     0.225 C 
HETATM   20  O7  UNL     1      16.441 -37.654  30.577  1.00  0.00    -0.340 OA
BRANCH  18  21
HETATM   21  O4  UNL     1      18.202 -34.952  31.920  1.00  0.00    -0.376 OA
ATOM     22  H4  UNL     1      17.968 -34.511  31.111  1.00  0.00     0.211 HD
ENDBRANCH  18  21
BRANCH  19  23
HETATM   23  C8  UNL     1      18.783 -37.765  30.700  1.00  0.00     0.286 C 
BRANCH  23  24
HETATM   24  O5  UNL     1      19.908 -37.056  30.287  1.00  0.00    -0.369 OA
ATOM     25  H5  UNL     1      20.647 -37.272  30.843  1.00  0.00     0.212 HD
ENDBRANCH  23  24
BRANCH  23  26
HETATM   26  O6  UNL     1      18.604 -38.869  29.870  1.00  0.00    -0.369 OA
ATOM     27  H6  UNL     1      19.374 -39.047  29.342  1.00  0.00     0.212 HD
ENDBRANCH  23  26
ENDBRANCH  19  23
ENDBRANCH   1  15
TORSDOF 7
ENDMDL
MODEL 3
REMARK VINA RESULT: -5.798137984      4.700      6.832
REMARK  7 active torsions:
REMARK  status: ('A' for Active; 'I' for Inactive)
REMARK    1  A    between atoms: C3_7  and  C4_8 
REMARK       I    between atoms: C4_8  and  N4_10 
REMARK    2  A    between atoms: N4_10  and  S1_12 
REMARK    3  A    between atoms: S1_12  and  C5_15 
REMARK    4  A    between atoms: C6_18  and  O4_19 
REMARK    5  A    between atoms: C7_21  and  C8_22 
REMARK    6  A    between atoms: C8_22  and  O5_23 
REMARK    7  A    between atoms: C8_22  and  O6_25 
ROOT
HETATM    1  S1  UNL     1      20.915 -38.262  34.948  1.00  0.00     0.276 S 
HETATM    2  O2  UNL     1      20.889 -39.763  35.016  1.00  0.00    -0.201 OA
HETATM    3  O3  UNL     1      20.315 -37.663  36.165  1.00  0.00    -0.201 OA
ENDROOT
BRANCH   1   4
HETATM    4  N4  UNL     1      20.126 -37.766  33.498  1.00  0.00    -0.250 N 
HETATM    5  C4  UNL     1      18.715 -37.711  33.465  1.00  0.00     0.243 C 
HETATM    6  O1  UNL     1      18.058 -38.020  34.486  1.00  0.00    -0.272 OA
ATOM      7  H4  UNL     1      20.673 -37.516  32.674  1.00  0.00     0.181 HD
BRANCH   5   8
HETATM    8  C3  UNL     1      18.058 -37.280  32.203  1.00  0.00     0.160 C 
HETATM    9  C1  UNL     1      18.982 -36.515  31.326  1.00  0.00     0.119 C 
HETATM   10  N1  UNL     1      20.057 -37.034  30.573  1.00  0.00    -0.086 NA
HETATM   11  N2  UNL     1      18.643 -35.285  31.358  1.00  0.00    -0.294 N 
HETATM   12  N3  UNL     1      17.555 -35.033  32.172  1.00  0.00    -0.139 NA
ATOM     13  H2  UNL     1      19.128 -34.558  30.834  1.00  0.00     0.183 HD
HETATM   14  C2  UNL     1      16.970 -36.309  32.532  1.00  0.00     0.156 C 
ENDBRANCH   5   8
ENDBRANCH   1   4
BRANCH   1  15
HETATM   15  C5  UNL     1      22.596 -37.669  34.823  1.00  0.00     0.375 C 
HETATM   16  N5  UNL     1      23.329 -38.328  33.780  1.00  0.00    -0.096 NA
HETATM   17  N6  UNL     1      23.147 -37.709  32.551  1.00  0.00    -0.110 NA
HETATM   18  C6  UNL     1      23.766 -36.382  32.651  1.00  0.00     0.261 C 
HETATM   19  C7  UNL     1      23.747 -35.904  34.091  1.00  0.00     0.225 C 
HETATM   20  O7  UNL     1      22.513 -36.294  34.611  1.00  0.00    -0.340 OA
BRANCH  18  21
HETATM   21  O4  UNL     1      25.101 -36.514  32.274  1.00  0.00    -0.376 OA
ATOM     22  H4  UNL     1      25.575 -36.864  33.019  1.00  0.00     0.211 HD
ENDBRANCH  18  21
BRANCH  19  23
HETATM   23  C8  UNL     1      23.840 -34.402  34.196  1.00  0.00     0.286 C 
BRANCH  23  24
HETATM   24  O5  UNL     1      23.908 -33.845  32.921  1.00  0.00    -0.369 OA
ATOM     25  H5  UNL     1      24.495 -33.098  32.928  1.00  0.00     0.212 HD
ENDBRANCH  23  24
BRANCH  23  26
HETATM   26  O6  UNL     1      24.949 -33.998  34.936  1.00  0.00    -0.369 OA
ATOM     27  H6  UNL     1      24.699 -33.568  35.746  1.00  0.00     0.212 HD
ENDBRANCH  23  26
ENDBRANCH  19  23
ENDBRANCH   1  15
TORSDOF 7
ENDMDL
MODEL 4
REMARK VINA RESULT: -5.762499657      1.784      1.959
REMARK  7 active torsions:
REMARK  status: ('A' for Active; 'I' for Inactive)
REMARK    1  A    between atoms: C3_7  and  C4_8 
REMARK       I    between atoms: C4_8  and  N4_10 
REMARK    2  A    between atoms: N4_10  and  S1_12 
REMARK    3  A    between atoms: S1_12  and  C5_15 
REMARK    4  A    between atoms: C6_18  and  O4_19 
REMARK    5  A    between atoms: C7_21  and  C8_22 
REMARK    6  A    between atoms: C8_22  and  O5_23 
REMARK    7  A    between atoms: C8_22  and  O6_25 
ROOT
HETATM    1  S1  UNL     1      14.368 -37.690  31.612  1.00  0.00     0.276 S 
HETATM    2  O2  UNL     1      13.055 -37.447  30.924  1.00  0.00    -0.201 OA
HETATM    3  O3  UNL     1      14.702 -39.135  31.628  1.00  0.00    -0.201 OA
ENDROOT
BRANCH   1   4
HETATM    4  N4  UNL     1      14.296 -37.002  33.190  1.00  0.00    -0.250 N 
HETATM    5  C4  UNL     1      13.418 -37.561  34.147  1.00  0.00     0.243 C 
HETATM    6  O1  UNL     1      12.708 -38.545  33.837  1.00  0.00    -0.272 OA
ATOM      7  H4  UNL     1      14.880 -36.201  33.431  1.00  0.00     0.181 HD
BRANCH   5   8
HETATM    8  C3  UNL     1      13.374 -36.949  35.501  1.00  0.00     0.160 C 
HETATM    9  C1  UNL     1      13.180 -37.966  36.567  1.00  0.00     0.119 C 
HETATM   10  N1  UNL     1      14.135 -38.896  37.032  1.00  0.00    -0.086 NA
HETATM   11  N2  UNL     1      11.988 -37.865  37.008  1.00  0.00    -0.294 N 
HETATM   12  N3  UNL     1      11.250 -36.875  36.387  1.00  0.00    -0.139 NA
ATOM     13  H2  UNL     1      11.614 -38.458  37.748  1.00  0.00     0.183 HD
HETATM   14  C2  UNL     1      12.165 -36.076  35.597  1.00  0.00     0.156 C 
ENDBRANCH   5   8
ENDBRANCH   1   4
BRANCH   1  15
HETATM   15  C5  UNL     1      15.689 -36.837  30.762  1.00  0.00     0.375 C 
HETATM   16  N5  UNL     1      15.752 -35.448  31.112  1.00  0.00    -0.096 NA
HETATM   17  N6  UNL     1      16.514 -35.238  32.254  1.00  0.00    -0.110 NA
HETATM   18  C6  UNL     1      17.897 -35.592  31.909  1.00  0.00     0.261 C 
HETATM   19  C7  UNL     1      17.909 -36.631  30.803  1.00  0.00     0.225 C 
HETATM   20  O7  UNL     1      16.865 -37.510  31.088  1.00  0.00    -0.340 OA
BRANCH  18  21
HETATM   21  O4  UNL     1      18.510 -34.445  31.411  1.00  0.00    -0.376 OA
ATOM     22  H4  UNL     1      18.540 -33.808  32.115  1.00  0.00     0.211 HD
ENDBRANCH  18  21
BRANCH  19  23
HETATM   23  C8  UNL     1      19.191 -37.425  30.781  1.00  0.00     0.286 C 
BRANCH  23  24
HETATM   24  O5  UNL     1      20.247 -36.603  30.396  1.00  0.00    -0.369 OA
ATOM     25  H5  UNL     1      20.081 -35.712  30.681  1.00  0.00     0.212 HD
ENDBRANCH  23  24
BRANCH  23  26
HETATM   26  O6  UNL     1      19.115 -38.514  29.915  1.00  0.00    -0.369 OA
ATOM     27  H6  UNL     1      19.927 -38.649  29.440  1.00  0.00     0.212 HD
ENDBRANCH  23  26
ENDBRANCH  19  23
ENDBRANCH   1  15
TORSDOF 7
ENDMDL
MODEL 5
REMARK VINA RESULT: -5.739639196      5.023      8.070
REMARK  7 active torsions:
REMARK  status: ('A' for Active; 'I' for Inactive)
REMARK    1  A    between atoms: C3_7  and  C4_8 
REMARK       I    between atoms: C4_8  and  N4_10 
REMARK    2  A    between atoms: N4_10  and  S1_12 
REMARK    3  A    between atoms: S1_12  and  C5_15 
REMARK    4  A    between atoms: C6_18  and  O4_19 
REMARK    5  A    between atoms: C7_21  and  C8_22 
REMARK    6  A    between atoms: C8_22  and  O5_23 
REMARK    7  A    between atoms: C8_22  and  O6_25 
ROOT
HETATM    1  S1  UNL     1      20.306 -37.572  32.949  1.00  0.00     0.276 S 
HETATM    2  O2  UNL     1      19.743 -37.603  34.341  1.00  0.00    -0.201 OA
HETATM    3  O3  UNL     1      20.388 -38.938  32.377  1.00  0.00    -0.201 OA
ENDROOT
BRANCH   1   4
HETATM    4  N4  UNL     1      21.832 -36.772  32.994  1.00  0.00    -0.250 N 
HETATM    5  C4  UNL     1      22.903 -37.368  33.698  1.00  0.00     0.243 C 
HETATM    6  O1  UNL     1      22.730 -38.466  34.277  1.00  0.00    -0.272 OA
ATOM      7  H4  UNL     1      21.961 -35.879  32.518  1.00  0.00     0.181 HD
BRANCH   5   8
HETATM    8  C3  UNL     1      24.209 -36.659  33.722  1.00  0.00     0.160 C 
HETATM    9  C1  UNL     1      24.045 -35.183  33.679  1.00  0.00     0.119 C 
HETATM   10  N1  UNL     1      23.590 -34.353  34.726  1.00  0.00    -0.086 NA
HETATM   11  N2  UNL     1      24.387 -34.773  32.521  1.00  0.00    -0.294 N 
HETATM   12  N3  UNL     1      24.797 -35.785  31.674  1.00  0.00    -0.139 NA
ATOM     13  H2  UNL     1      24.362 -33.791  32.246  1.00  0.00     0.183 HD
HETATM   14  C2  UNL     1      24.958 -36.985  32.470  1.00  0.00     0.156 C 
ENDBRANCH   5   8
ENDBRANCH   1   4
BRANCH   1  15
HETATM   15  C5  UNL     1      19.268 -36.593  31.874  1.00  0.00     0.375 C 
HETATM   16  N5  UNL     1      19.265 -37.084  30.526  1.00  0.00    -0.096 NA
HETATM   17  N6  UNL     1      18.314 -38.078  30.341  1.00  0.00    -0.110 NA
HETATM   18  C6  UNL     1      17.001 -37.440  30.500  1.00  0.00     0.261 C 
HETATM   19  C7  UNL     1      17.113 -36.238  31.420  1.00  0.00     0.225 C 
HETATM   20  O7  UNL     1      17.992 -36.610  32.436  1.00  0.00    -0.340 OA
BRANCH  18  21
HETATM   21  O4  UNL     1      16.609 -36.971  29.249  1.00  0.00    -0.376 OA
ATOM     22  H4  UNL     1      15.954 -36.297  29.388  1.00  0.00     0.211 HD
ENDBRANCH  18  21
BRANCH  19  23
HETATM   23  C8  UNL     1      15.793 -35.883  32.058  1.00  0.00     0.286 C 
BRANCH  23  24
HETATM   24  O5  UNL     1      14.770 -36.002  31.120  1.00  0.00    -0.369 OA
ATOM     25  H5  UNL     1      14.755 -35.234  30.561  1.00  0.00     0.212 HD
ENDBRANCH  23  24
BRANCH  23  26
HETATM   26  O6  UNL     1      15.795 -34.589  32.575  1.00  0.00    -0.369 OA
ATOM     27  H6  UNL     1      14.939 -34.181  32.516  1.00  0.00     0.212 HD
ENDBRANCH  23  26
ENDBRANCH  19  23
ENDBRANCH   1  15
TORSDOF 7
ENDMDL
