MODEL 1
REMARK VINA RESULT: -6.425079866      0.000      0.000
REMARK  6 active torsions:
REMARK  status: ('A' for Active; 'I' for Inactive)
REMARK    1  A    between atoms: C2_7  and  C3_8 
REMARK    2  A    between atoms: C3_8  and  N3_9 
REMARK    3  A    between atoms: N3_9  and  C4_11 
REMARK       I    between atoms: N4_14  and  C7_15 
REMARK    4  A    between atoms: C7_15  and  C8_17 
REMARK    5  A    between atoms: C9_23  and  C10_24 
REMARK    6  A    between atoms: C10_24  and  O2_25 
ROOT
HETATM    1  C4  UNL     1      19.770 -37.615  32.624  1.00  0.00     0.184 C 
HETATM    2  C5  UNL     1      19.357 -37.946  34.023  1.00  0.00     0.066 C 
HETATM    3  C6  UNL     1      18.008 -38.221  33.295  1.00  0.00     0.132 C 
HETATM    4  N4  UNL     1      18.478 -37.186  32.315  1.00  0.00    -0.328 N 
HETATM    5  C7  UNL     1      17.868 -36.119  31.642  1.00  0.00     0.261 C 
HETATM    6  O1  UNL     1      18.429 -34.965  31.585  1.00  0.00    -0.269 OA
ENDROOT
BRANCH   1   7
HETATM    7  N3  UNL     1      20.972 -37.011  32.378  1.00  0.00    -0.394 N 
ATOM      8  H3  UNL     1      21.047 -36.071  31.989  1.00  0.00     0.155 HD
BRANCH   7   9
HETATM    9  C3  UNL     1      22.162 -37.834  32.722  1.00  0.00     0.201 C 
BRANCH   9  10
HETATM   10  C2  UNL     1      23.188 -36.729  32.848  1.00  0.00     0.161 A 
HETATM   11  N2  UNL     1      22.993 -35.696  33.610  1.00  0.00    -0.172 N 
HETATM   12  C1  UNL     1      23.965 -34.704  33.684  1.00  0.00     0.682 A 
ATOM     13  H2  UNL     1      22.133 -35.613  34.152  1.00  0.00     0.186 HD
HETATM   14  N1  UNL     1      23.675 -33.693  34.427  1.00  0.00    -0.234 N 
HETATM   15  N9  UNL     1      25.047 -34.875  32.956  1.00  0.00    -0.135 N 
ATOM     16  H12 UNL     1      22.835 -33.560  34.991  1.00  0.00     0.174 HD
ATOM     17  H11 UNL     1      24.387 -32.964  34.480  1.00  0.00     0.174 HD
HETATM   18  C11 UNL     1      25.223 -35.969  32.168  1.00  0.00     0.385 A 
ATOM     19  H9  UNL     1      25.778 -34.164  32.984  1.00  0.00     0.189 HD
HETATM   20  O3  UNL     1      24.295 -36.873  32.131  1.00  0.00    -0.245 OA
HETATM   21  O4  UNL     1      26.294 -36.097  31.482  1.00  0.00    -0.237 OA
ENDBRANCH   9  10
ENDBRANCH   7   9
ENDBRANCH   1   7
BRANCH   5  22
HETATM   22  C8  UNL     1      16.574 -36.203  30.956  1.00  0.00     0.288 C 
HETATM   23  N5  UNL     1      15.412 -36.462  31.735  1.00  0.00    -0.091 NA
HETATM   24  N6  UNL     1      14.298 -36.432  30.858  1.00  0.00    -0.247 N 
HETATM   25  N7  UNL     1      14.411 -37.179  29.709  1.00  0.00    -0.300 N 
ATOM     26  H6  UNL     1      13.462 -35.888  31.068  1.00  0.00     0.203 HD
HETATM   27  C9  UNL     1      15.635 -37.907  29.524  1.00  0.00     0.219 C 
ATOM     28  H7  UNL     1      13.659 -37.214  29.020  1.00  0.00     0.183 HD
HETATM   29  N8  UNL     1      16.734 -36.995  29.803  1.00  0.00    -0.372 N 
ATOM     30  H8  UNL     1      17.559 -36.934  29.207  1.00  0.00     0.157 HD
BRANCH  27  31
HETATM   31  C10 UNL     1      15.829 -38.249  28.050  1.00  0.00     0.211 C 
BRANCH  31  32
HETATM   32  O2  UNL     1      16.574 -39.368  27.818  1.00  0.00    -0.397 OA
ATOM     33  H2  UNL     1      16.147 -40.024  27.279  1.00  0.00     0.209 HD
ENDBRANCH  31  32
ENDBRANCH  27  31
ENDBRANCH   5  22
TORSDOF 6
ENDMDL
MODEL 2
REMARK VINA RESULT: -6.401988253      4.218      7.048
REMARK  6 active torsions:
REMARK  status: ('A' for Active; 'I' for Inactive)
REMARK    1  A    between atoms: C2_7  and  C3_8 
REMARK    2  A    between atoms: C3_8  and  N3_9 
REMARK    3  A    between atoms: N3_9  and  C4_11 
REMARK       I    between atoms: N4_14  and  C7_15 
REMARK    4  A    between atoms: C7_15  and  C8_17 
REMARK    5  A    between atoms: C9_23  and  C10_24 
REMARK    6  A    between atoms: C10_24  and  O2_25 
ROOT
HETATM    1  C4  UNL     1      13.905 -38.191  29.006  1.00  0.00     0.184 C 
HETATM    2  C5  UNL     1      14.007 -39.631  28.619  1.00  0.00     0.066 C 
HETATM    3  C6  UNL     1      12.499 -39.586  29.008  1.00  0.00     0.132 C 
HETATM    4  N4  UNL     1      12.909 -38.484  29.940  1.00  0.00    -0.328 N 
HETATM    5  C7  UNL     1      12.583 -38.138  31.258  1.00  0.00     0.261 C 
HETATM    6  O1  UNL     1      13.496 -37.820  32.103  1.00  0.00    -0.269 OA
ENDROOT
BRANCH   1   7
HETATM    7  N3  UNL     1      15.030 -37.424  29.142  1.00  0.00    -0.394 N 
ATOM      8  H3  UNL     1      15.016 -36.407  29.067  1.00  0.00     0.155 HD
BRANCH   7   9
HETATM    9  C3  UNL     1      16.275 -38.193  29.406  1.00  0.00     0.201 C 
BRANCH   9  10
HETATM   10  C2  UNL     1      16.973 -37.209  30.319  1.00  0.00     0.161 A 
HETATM   11  N2  UNL     1      18.262 -37.216  30.478  1.00  0.00    -0.172 N 
HETATM   12  C1  UNL     1      18.853 -36.297  31.337  1.00  0.00     0.682 A 
ATOM     13  H2  UNL     1      18.836 -37.893  29.977  1.00  0.00     0.186 HD
HETATM   14  N1  UNL     1      20.129 -36.400  31.473  1.00  0.00    -0.234 N 
HETATM   15  N9  UNL     1      18.050 -35.456  31.953  1.00  0.00    -0.135 N 
ATOM     16  H12 UNL     1      20.752 -37.052  30.994  1.00  0.00     0.174 HD
ATOM     17  H11 UNL     1      20.563 -35.725  32.103  1.00  0.00     0.174 HD
HETATM   18  C11 UNL     1      16.704 -35.471  31.765  1.00  0.00     0.385 A 
ATOM     19  H9  UNL     1      18.452 -34.770  32.593  1.00  0.00     0.189 HD
HETATM   20  O3  UNL     1      16.193 -36.343  30.953  1.00  0.00    -0.245 OA
HETATM   21  O4  UNL     1      15.962 -34.632  32.381  1.00  0.00    -0.237 OA
ENDBRANCH   9  10
ENDBRANCH   7   9
ENDBRANCH   1   7
BRANCH   5  22
HETATM   22  C8  UNL     1      11.218 -38.103  31.793  1.00  0.00     0.288 C 
HETATM   23  N5  UNL     1      10.138 -37.958  30.877  1.00  0.00    -0.091 NA
HETATM   24  N6  UNL     1       8.936 -38.015  31.627  1.00  0.00    -0.247 N 
HETATM   25  N7  UNL     1       8.874 -37.206  32.737  1.00  0.00    -0.300 N 
ATOM     26  H6  UNL     1       8.161 -38.621  31.358  1.00  0.00     0.203 HD
HETATM   27  C9  UNL     1      10.026 -36.392  33.013  1.00  0.00     0.219 C 
ATOM     28  H7  UNL     1       8.049 -37.184  33.336  1.00  0.00     0.183 HD
HETATM   29  N8  UNL     1      11.200 -37.245  32.909  1.00  0.00    -0.372 N 
ATOM     30  H8  UNL     1      11.955 -37.223  33.594  1.00  0.00     0.157 HD
BRANCH  27  31
HETATM   31  C10 UNL     1      10.032 -35.965  34.477  1.00  0.00     0.211 C 
BRANCH  31  32
HETATM   32  O2  UNL     1      11.256 -35.609  34.962  1.00  0.00    -0.397 OA
ATOM     33  H2  UNL     1      11.621 -36.213  35.600  1.00  0.00     0.209 HD
ENDBRANCH  31  32
ENDBRANCH  27  31
ENDBRANCH   5  22
TORSDOF 6
ENDMDL
MODEL 3
REMARK VINA RESULT: -6.353671616      1.792      2.036
REMARK  6 active torsions:
REMARK  status: ('A' for Active; 'I' for Inactive)
REMARK    1  A    between atoms: C2_7  and  C3_8 
REMARK    2  A    between atoms: C3_8  and  N3_9 
REMARK    3  A    between atoms: N3_9  and  C4_11 
REMARK       I    between atoms: N4_14  and  C7_15 
REMARK    4  A    between atoms: C7_15  and  C8_17 
REMARK    5  A    between atoms: C9_23  and  C10_24 
REMARK    6  A    between atoms: C10_24  and  O2_25 
ROOT
HETATM    1  C4  UNL     1      20.882 -38.760  33.841  1.00  0.00     0.184 C 
HETATM    2  C5  UNL     1      20.070 -38.301  35.010  1.00  0.00     0.066 C 
HETATM    3  C6  UNL     1      18.924 -38.492  33.973  1.00  0.00     0.132 C 
HETATM    4  N4  UNL     1      19.977 -38.180  32.950  1.00  0.00    -0.328 N 
HETATM    5  C7  UNL     1      20.015 -37.407  31.782  1.00  0.00     0.261 C 
HETATM    6  O1  UNL     1      20.992 -36.605  31.552  1.00  0.00    -0.269 OA
ENDROOT
BRANCH   1   7
HETATM    7  N3  UNL     1      22.247 -38.686  33.870  1.00  0.00    -0.394 N 
ATOM      8  H3  UNL     1      22.837 -39.102  33.149  1.00  0.00     0.155 HD
BRANCH   7   9
HETATM    9  C3  UNL     1      22.804 -37.950  35.036  1.00  0.00     0.201 C 
BRANCH   9  10
HETATM   10  C2  UNL     1      23.351 -36.738  34.314  1.00  0.00     0.161 A 
HETATM   11  N2  UNL     1      23.348 -35.558  34.856  1.00  0.00    -0.172 N 
HETATM   12  C1  UNL     1      23.854 -34.475  34.146  1.00  0.00     0.682 A 
ATOM     13  H2  UNL     1      22.978 -35.427  35.797  1.00  0.00     0.186 HD
HETATM   14  N1  UNL     1      23.774 -33.334  34.737  1.00  0.00    -0.234 N 
HETATM   15  N9  UNL     1      24.313 -34.717  32.937  1.00  0.00    -0.135 N 
ATOM     16  H12 UNL     1      23.418 -33.146  35.675  1.00  0.00     0.174 HD
ATOM     17  H11 UNL     1      24.145 -32.539  34.217  1.00  0.00     0.174 HD
HETATM   18  C11 UNL     1      24.303 -35.965  32.396  1.00  0.00     0.385 A 
ATOM     19  H9  UNL     1      24.688 -33.944  32.388  1.00  0.00     0.189 HD
HETATM   20  O3  UNL     1      23.827 -36.948  33.093  1.00  0.00    -0.245 OA
HETATM   21  O4  UNL     1      24.765 -36.155  31.220  1.00  0.00    -0.237 OA
ENDBRANCH   9  10
ENDBRANCH   7   9
ENDBRANCH   1   7
BRANCH   5  22
HETATM   22  C8  UNL     1      18.987 -37.432  30.737  1.00  0.00     0.288 C 
HETATM   23  N5  UNL     1      17.854 -36.583  30.884  1.00  0.00    -0.091 NA
HETATM   24  N6  UNL     1      17.050 -36.745  29.727  1.00  0.00    -0.247 N 
HETATM   25  N7  UNL     1      16.767 -38.039  29.362  1.00  0.00    -0.300 N 
ATOM     26  H6  UNL     1      16.701 -35.946  29.198  1.00  0.00     0.203 HD
HETATM   27  C9  UNL     1      17.309 -39.082  30.188  1.00  0.00     0.219 C 
ATOM     28  H7  UNL     1      16.197 -38.250  28.542  1.00  0.00     0.183 HD
HETATM   29  N8  UNL     1      18.714 -38.775  30.415  1.00  0.00    -0.372 N 
ATOM     30  H8  UNL     1      19.446 -39.481  30.346  1.00  0.00     0.157 HD
BRANCH  27  31
HETATM   31  C10 UNL     1      17.358 -40.397  29.416  1.00  0.00     0.211 C 
BRANCH  31  32
HETATM   32  O2  UNL     1      16.990 -40.302  28.106  1.00  0.00    -0.397 OA
ATOM     33  H2  UNL     1      17.709 -40.156  27.501  1.00  0.00     0.209 HD
ENDBRANCH  31  32
ENDBRANCH  27  31
ENDBRANCH   5  22
TORSDOF 6
ENDMDL
MODEL 4
REMARK VINA RESULT: -6.320975561      1.292      1.472
REMARK  6 active torsions:
REMARK  status: ('A' for Active; 'I' for Inactive)
REMARK    1  A    between atoms: C2_7  and  C3_8 
REMARK    2  A    between atoms: C3_8  and  N3_9 
REMARK    3  A    between atoms: N3_9  and  C4_11 
REMARK       I    between atoms: N4_14  and  C7_15 
REMARK    4  A    between atoms: C7_15  and  C8_17 
REMARK    5  A    between atoms: C9_23  and  C10_24 
REMARK    6  A    between atoms: C10_24  and  O2_25 
ROOT
HETATM    1  C4  UNL     1      19.801 -37.692  32.586  1.00  0.00     0.184 C 
HETATM    2  C5  UNL     1      19.409 -38.011  33.993  1.00  0.00     0.066 C 
HETATM    3  C6  UNL     1      18.043 -38.269  33.291  1.00  0.00     0.132 C 
HETATM    4  N4  UNL     1      18.510 -37.246  32.298  1.00  0.00    -0.328 N 
HETATM    5  C7  UNL     1      17.903 -36.174  31.631  1.00  0.00     0.261 C 
HETATM    6  O1  UNL     1      18.480 -35.028  31.558  1.00  0.00    -0.269 OA
ENDROOT
BRANCH   1   7
HETATM    7  N3  UNL     1      21.007 -37.107  32.314  1.00  0.00    -0.394 N 
ATOM      8  H3  UNL     1      21.090 -36.219  31.818  1.00  0.00     0.155 HD
BRANCH   7   9
HETATM    9  C3  UNL     1      22.189 -37.868  32.799  1.00  0.00     0.201 C 
BRANCH   9  10
HETATM   10  C2  UNL     1      22.904 -36.755  33.534  1.00  0.00     0.161 A 
HETATM   11  N2  UNL     1      22.907 -35.533  33.094  1.00  0.00    -0.172 N 
HETATM   12  C1  UNL     1      23.588 -34.550  33.803  1.00  0.00     0.682 A 
ATOM     13  H2  UNL     1      22.413 -35.297  32.234  1.00  0.00     0.186 HD
HETATM   14  N1  UNL     1      23.580 -33.375  33.275  1.00  0.00    -0.234 N 
HETATM   15  N9  UNL     1      24.206 -34.927  34.901  1.00  0.00    -0.135 N 
ATOM     16  H12 UNL     1      23.101 -33.083  32.423  1.00  0.00     0.174 HD
ATOM     17  H11 UNL     1      24.079 -32.653  33.795  1.00  0.00     0.174 HD
HETATM   18  C11 UNL     1      24.184 -36.215  35.338  1.00  0.00     0.385 A 
ATOM     19  H9  UNL     1      24.718 -34.231  35.443  1.00  0.00     0.189 HD
HETATM   20  O3  UNL     1      23.534 -37.101  34.650  1.00  0.00    -0.245 OA
HETATM   21  O4  UNL     1      24.793 -36.536  36.415  1.00  0.00    -0.237 OA
ENDBRANCH   9  10
ENDBRANCH   7   9
ENDBRANCH   1   7
BRANCH   5  22
HETATM   22  C8  UNL     1      16.596 -36.242  30.969  1.00  0.00     0.288 C 
HETATM   23  N5  UNL     1      15.448 -36.509  31.766  1.00  0.00    -0.091 NA
HETATM   24  N6  UNL     1      14.318 -36.462  30.912  1.00  0.00    -0.247 N 
HETATM   25  N7  UNL     1      14.405 -37.190  29.749  1.00  0.00    -0.300 N 
ATOM     26  H6  UNL     1      13.487 -35.918  31.147  1.00  0.00     0.203 HD
HETATM   27  C9  UNL     1      15.622 -37.920  29.529  1.00  0.00     0.219 C 
ATOM     28  H7  UNL     1      13.640 -37.211  29.074  1.00  0.00     0.183 HD
HETATM   29  N8  UNL     1      16.730 -37.016  29.800  1.00  0.00    -0.372 N 
ATOM     30  H8  UNL     1      17.544 -36.948  29.190  1.00  0.00     0.157 HD
BRANCH  27  31
HETATM   31  C10 UNL     1      15.786 -38.238  28.046  1.00  0.00     0.211 C 
BRANCH  31  32
HETATM   32  O2  UNL     1      16.541 -39.342  27.780  1.00  0.00    -0.397 OA
ATOM     33  H2  UNL     1      17.379 -39.161  27.370  1.00  0.00     0.209 HD
ENDBRANCH  31  32
ENDBRANCH  27  31
ENDBRANCH   5  22
TORSDOF 6
ENDMDL
MODEL 5
REMARK VINA RESULT: -6.205093973      3.928      6.423
REMARK  6 active torsions:
REMARK  status: ('A' for Active; 'I' for Inactive)
REMARK    1  A    between atoms: C2_7  and  C3_8 
REMARK    2  A    between atoms: C3_8  and  N3_9 
REMARK    3  A    between atoms: N3_9  and  C4_11 
REMARK       I    between atoms: N4_14  and  C7_15 
REMARK    4  A    between atoms: C7_15  and  C8_17 
REMARK    5  A    between atoms: C9_23  and  C10_24 
REMARK    6  A    between atoms: C10_24  and  O2_25 
ROOT
HETATM    1  C4  UNL     1      14.999 -39.776  28.778  1.00  0.00     0.184 C 
HETATM    2  C5  UNL     1      13.663 -39.278  28.326  1.00  0.00     0.066 C 
HETATM    3  C6  UNL     1      14.259 -37.940  28.857  1.00  0.00     0.132 C 
HETATM    4  N4  UNL     1      15.046 -38.815  29.790  1.00  0.00    -0.328 N 
HETATM    5  C7  UNL     1      15.393 -38.746  31.145  1.00  0.00     0.261 C 
HETATM    6  O1  UNL     1      15.271 -39.768  31.912  1.00  0.00    -0.269 OA
ENDROOT
BRANCH   1   7
HETATM    7  N3  UNL     1      15.258 -41.118  28.837  1.00  0.00    -0.394 N 
ATOM      8  H3  UNL     1      14.612 -41.786  29.257  1.00  0.00     0.155 HD
BRANCH   7   9
HETATM    9  C3  UNL     1      16.557 -41.525  28.239  1.00  0.00     0.201 C 
BRANCH   9  10
HETATM   10  C2  UNL     1      17.468 -41.200  29.402  1.00  0.00     0.161 A 
HETATM   11  N2  UNL     1      17.261 -41.681  30.590  1.00  0.00    -0.172 N 
HETATM   12  C1  UNL     1      18.123 -41.343  31.628  1.00  0.00     0.682 A 
ATOM     13  H2  UNL     1      16.472 -42.303  30.762  1.00  0.00     0.186 HD
HETATM   14  N1  UNL     1      17.823 -41.826  32.783  1.00  0.00    -0.234 N 
HETATM   15  N9  UNL     1      19.118 -40.533  31.335  1.00  0.00    -0.135 N 
ATOM     16  H12 UNL     1      17.051 -42.454  33.009  1.00  0.00     0.174 HD
ATOM     17  H11 UNL     1      18.455 -41.578  33.544  1.00  0.00     0.174 HD
HETATM   18  C11 UNL     1      19.310 -40.046  30.080  1.00  0.00     0.385 A 
ATOM     19  H9  UNL     1      19.767 -40.263  32.074  1.00  0.00     0.189 HD
HETATM   20  O3  UNL     1      18.485 -40.389  29.140  1.00  0.00    -0.245 OA
HETATM   21  O4  UNL     1      20.293 -39.267  29.840  1.00  0.00    -0.237 OA
ENDBRANCH   9  10
ENDBRANCH   7   9
ENDBRANCH   1   7
BRANCH   5  22
HETATM   22  C8  UNL     1      15.915 -37.545  31.807  1.00  0.00     0.288 C 
HETATM   23  N5  UNL     1      15.167 -36.339  31.705  1.00  0.00    -0.091 NA
HETATM   24  N6  UNL     1      15.842 -35.356  32.472  1.00  0.00    -0.247 N 
HETATM   25  N7  UNL     1      17.191 -35.228  32.243  1.00  0.00    -0.300 N 
ATOM     26  H6  UNL     1      15.354 -34.776  33.154  1.00  0.00     0.203 HD
HETATM   27  C9  UNL     1      17.768 -36.096  31.255  1.00  0.00     0.219 C 
ATOM     28  H7  UNL     1      17.757 -34.548  32.752  1.00  0.00     0.183 HD
HETATM   29  N8  UNL     1      17.291 -37.445  31.524  1.00  0.00    -0.372 N 
ATOM     30  H8  UNL     1      17.907 -38.257  31.508  1.00  0.00     0.157 HD
BRANCH  27  31
HETATM   31  C10 UNL     1      19.275 -36.210  31.466  1.00  0.00     0.211 C 
BRANCH  31  32
HETATM   32  O2  UNL     1      19.993 -36.448  30.331  1.00  0.00    -0.397 OA
ATOM     33  H2  UNL     1      19.741 -37.234  29.859  1.00  0.00     0.209 HD
ENDBRANCH  31  32
ENDBRANCH  27  31
ENDBRANCH   5  22
TORSDOF 6
ENDMDL
