MODEL 1
REMARK VINA RESULT: -5.750658606      0.000      0.000
REMARK  8 active torsions:
REMARK  status: ('A' for Active; 'I' for Inactive)
REMARK    1  A    between atoms: C1_4  and  N2_5 
REMARK    2  A    between atoms: C1_4  and  O1_10 
REMARK    3  A    between atoms: N2_5  and  N3_7 
REMARK    4  A    between atoms: O1_10  and  C2_11 
REMARK    5  A    between atoms: C3_12  and  O2_13 
REMARK    6  A    between atoms: C5_20  and  C6_21 
REMARK    7  A    between atoms: C7_24  and  N6_25 
REMARK    8  A    between atoms: C9_27  and  C10_28 
ROOT
HETATM    1  C2  UNL     1      18.203 -37.897  32.501  1.00  0.00     0.196 C 
HETATM    2  C3  UNL     1      19.325 -38.412  33.414  1.00  0.00     0.224 C 
HETATM    3  C4  UNL     1      20.570 -38.064  32.702  1.00  0.00     0.144 C 
HETATM    4  N4  UNL     1      21.693 -37.994  33.302  1.00  0.00    -0.381 N 
ATOM      5  H41 UNL     1      22.553 -37.754  32.810  1.00  0.00     0.158 HD
ATOM      6  H42 UNL     1      21.738 -38.181  34.304  1.00  0.00     0.158 HD
HETATM    7  O3  UNL     1      20.510 -37.812  31.355  1.00  0.00    -0.320 OA
HETATM    8  C5  UNL     1      19.565 -38.487  30.561  1.00  0.00     0.246 C 
HETATM    9  C7  UNL     1      18.227 -38.690  31.242  1.00  0.00     0.179 C 
ENDROOT
BRANCH   1  10
HETATM   10  O1  UNL     1      16.990 -37.780  33.138  1.00  0.00    -0.310 OA
BRANCH  10  11
HETATM   11  C1  UNL     1      16.113 -36.715  33.092  1.00  0.00     0.232 C 
HETATM   12  N1  UNL     1      16.642 -35.602  32.708  1.00  0.00    -0.364 N 
ATOM     13  H12 UNL     1      15.994 -34.815  32.674  1.00  0.00     0.159 HD
ATOM     14  H11 UNL     1      17.628 -35.519  32.460  1.00  0.00     0.159 HD
BRANCH  11  15
HETATM   15  N2  UNL     1      14.735 -36.831  33.438  1.00  0.00    -0.272 N 
ATOM     16  H2  UNL     1      14.448 -36.518  34.365  1.00  0.00     0.190 HD
BRANCH  15  17
HETATM   17  N3  UNL     1      13.768 -37.341  32.599  1.00  0.00    -0.342 N 
ATOM     18  H32 UNL     1      13.866 -37.137  31.604  1.00  0.00     0.176 HD
ATOM     19  H31 UNL     1      12.974 -37.899  32.913  1.00  0.00     0.176 HD
ENDBRANCH  15  17
ENDBRANCH  11  15
ENDBRANCH  10  11
ENDBRANCH   1  10
BRANCH   2  20
HETATM   20  O2  UNL     1      19.252 -37.805  34.666  1.00  0.00    -0.385 OA
ATOM     21  H2  UNL     1      18.346 -37.650  34.908  1.00  0.00     0.210 HD
ENDBRANCH   2  20
BRANCH   9  22
HETATM   22  N6  UNL     1      17.182 -38.180  30.379  1.00  0.00    -0.276 N 
HETATM   23  C8  UNL     1      15.977 -38.713  30.133  1.00  0.00     0.148 A 
HETATM   24  C9  UNL     1      15.300 -37.896  29.248  1.00  0.00     0.131 A 
HETATM   25  N8  UNL     1      16.150 -36.882  28.994  1.00  0.00    -0.280 N 
HETATM   26  N9  UNL     1      17.253 -37.070  29.671  1.00  0.00    -0.240 N 
ATOM     27  H8  UNL     1      15.963 -36.094  28.374  1.00  0.00     0.188 HD
ATOM     28  H9  UNL     1      18.058 -36.444  29.652  1.00  0.00     0.208 HD
BRANCH  24  29
HETATM   29  C10 UNL     1      13.961 -38.079  28.701  1.00  0.00     0.284 C 
HETATM   30  N7  UNL     1      12.876 -38.169  29.610  1.00  0.00    -0.056 NA
HETATM   31  O5  UNL     1      13.784 -38.154  27.462  1.00  0.00    -0.269 OA
ENDBRANCH  24  29
ENDBRANCH   9  22
BRANCH   8  32
HETATM   32  C6  UNL     1      20.191 -39.796  30.174  1.00  0.00     0.263 C 
HETATM   33  N5  UNL     1      19.712 -40.995  30.761  1.00  0.00    -0.060 NA
HETATM   34  O4  UNL     1      21.129 -39.883  29.348  1.00  0.00    -0.274 OA
ENDBRANCH   8  32
TORSDOF 8
ENDMDL
MODEL 2
REMARK VINA RESULT: -5.564156482      2.111      2.265
REMARK  8 active torsions:
REMARK  status: ('A' for Active; 'I' for Inactive)
REMARK    1  A    between atoms: C1_4  and  N2_5 
REMARK    2  A    between atoms: C1_4  and  O1_10 
REMARK    3  A    between atoms: N2_5  and  N3_7 
REMARK    4  A    between atoms: O1_10  and  C2_11 
REMARK    5  A    between atoms: C3_12  and  O2_13 
REMARK    6  A    between atoms: C5_20  and  C6_21 
REMARK    7  A    between atoms: C7_24  and  N6_25 
REMARK    8  A    between atoms: C9_27  and  C10_28 
ROOT
HETATM    1  C2  UNL     1      17.741 -36.901  30.712  1.00  0.00     0.196 C 
HETATM    2  C3  UNL     1      18.759 -36.426  31.757  1.00  0.00     0.224 C 
HETATM    3  C4  UNL     1      20.016 -37.103  31.384  1.00  0.00     0.144 C 
HETATM    4  N4  UNL     1      21.153 -36.681  31.780  1.00  0.00    -0.381 N 
ATOM      5  H41 UNL     1      22.021 -37.149  31.522  1.00  0.00     0.158 HD
ATOM      6  H42 UNL     1      21.200 -35.851  32.370  1.00  0.00     0.158 HD
HETATM    7  O3  UNL     1      19.951 -38.220  30.590  1.00  0.00    -0.320 OA
HETATM    8  C5  UNL     1      18.843 -39.080  30.686  1.00  0.00     0.246 C 
HETATM    9  C7  UNL     1      17.527 -38.362  30.901  1.00  0.00     0.179 C 
ENDROOT
BRANCH   1  10
HETATM   10  O1  UNL     1      16.616 -36.113  30.645  1.00  0.00    -0.310 OA
BRANCH  10  11
HETATM   11  C1  UNL     1      15.624 -35.977  31.594  1.00  0.00     0.232 C 
HETATM   12  N1  UNL     1      15.862 -35.082  32.493  1.00  0.00    -0.364 N 
ATOM     13  H12 UNL     1      15.128 -34.982  33.194  1.00  0.00     0.159 HD
ATOM     14  H11 UNL     1      16.715 -34.523  32.499  1.00  0.00     0.159 HD
BRANCH  11  15
HETATM   15  N2  UNL     1      14.431 -36.758  31.585  1.00  0.00    -0.272 N 
ATOM     16  H2  UNL     1      14.185 -37.264  32.436  1.00  0.00     0.190 HD
BRANCH  15  17
HETATM   17  N3  UNL     1      13.590 -36.872  30.499  1.00  0.00    -0.342 N 
ATOM     18  H32 UNL     1      13.157 -37.783  30.345  1.00  0.00     0.176 HD
ATOM     19  H31 UNL     1      13.381 -36.110  29.855  1.00  0.00     0.176 HD
ENDBRANCH  15  17
ENDBRANCH  11  15
ENDBRANCH  10  11
ENDBRANCH   1  10
BRANCH   2  20
HETATM   20  O2  UNL     1      18.882 -35.039  31.722  1.00  0.00    -0.385 OA
ATOM     21  H2  UNL     1      19.787 -34.789  31.578  1.00  0.00     0.210 HD
ENDBRANCH   2  20
BRANCH   9  22
HETATM   22  N6  UNL     1      16.585 -38.805  29.894  1.00  0.00    -0.276 N 
HETATM   23  C8  UNL     1      15.721 -39.827  29.960  1.00  0.00     0.148 A 
HETATM   24  C9  UNL     1      15.013 -39.891  28.775  1.00  0.00     0.131 A 
HETATM   25  N8  UNL     1      15.496 -38.879  28.029  1.00  0.00    -0.280 N 
HETATM   26  N9  UNL     1      16.422 -38.253  28.707  1.00  0.00    -0.240 N 
ATOM     27  H8  UNL     1      15.189 -38.640  27.086  1.00  0.00     0.188 HD
ATOM     28  H9  UNL     1      16.946 -37.447  28.366  1.00  0.00     0.208 HD
BRANCH  24  29
HETATM   29  C10 UNL     1      13.972 -40.841  28.401  1.00  0.00     0.284 C 
HETATM   30  N7  UNL     1      12.632 -40.378  28.356  1.00  0.00    -0.056 NA
HETATM   31  O5  UNL     1      14.263 -42.031  28.130  1.00  0.00    -0.269 OA
ENDBRANCH  24  29
ENDBRANCH   9  22
BRANCH   8  32
HETATM   32  C6  UNL     1      19.141 -40.033  31.808  1.00  0.00     0.263 C 
HETATM   33  N5  UNL     1      18.222 -40.149  32.883  1.00  0.00    -0.060 NA
HETATM   34  O4  UNL     1      20.173 -40.741  31.843  1.00  0.00    -0.274 OA
ENDBRANCH   8  32
TORSDOF 8
ENDMDL
MODEL 3
REMARK VINA RESULT: -5.386228442      2.672      5.294
REMARK  8 active torsions:
REMARK  status: ('A' for Active; 'I' for Inactive)
REMARK    1  A    between atoms: C1_4  and  N2_5 
REMARK    2  A    between atoms: C1_4  and  O1_10 
REMARK    3  A    between atoms: N2_5  and  N3_7 
REMARK    4  A    between atoms: O1_10  and  C2_11 
REMARK    5  A    between atoms: C3_12  and  O2_13 
REMARK    6  A    between atoms: C5_20  and  C6_21 
REMARK    7  A    between atoms: C7_24  and  N6_25 
REMARK    8  A    between atoms: C9_27  and  C10_28 
ROOT
HETATM    1  C2  UNL     1      15.340 -37.584  31.082  1.00  0.00     0.196 C 
HETATM    2  C3  UNL     1      16.560 -37.488  30.156  1.00  0.00     0.224 C 
HETATM    3  C4  UNL     1      17.409 -38.631  30.546  1.00  0.00     0.144 C 
HETATM    4  N4  UNL     1      18.311 -39.096  29.771  1.00  0.00    -0.381 N 
ATOM      5  H41 UNL     1      18.897 -39.885  30.040  1.00  0.00     0.158 HD
ATOM      6  H42 UNL     1      18.452 -38.670  28.855  1.00  0.00     0.158 HD
HETATM    7  O3  UNL     1      17.220 -39.203  31.777  1.00  0.00    -0.320 OA
HETATM    8  C5  UNL     1      16.800 -38.407  32.858  1.00  0.00     0.246 C 
HETATM    9  C7  UNL     1      15.794 -37.340  32.478  1.00  0.00     0.179 C 
ENDROOT
BRANCH   1  10
HETATM   10  O1  UNL     1      14.261 -36.852  30.643  1.00  0.00    -0.310 OA
BRANCH  10  11
HETATM   11  C1  UNL     1      13.057 -37.327  30.165  1.00  0.00     0.232 C 
HETATM   12  N1  UNL     1      12.018 -36.857  30.767  1.00  0.00    -0.364 N 
ATOM     13  H12 UNL     1      11.128 -37.208  30.413  1.00  0.00     0.159 HD
ATOM     14  H11 UNL     1      12.083 -36.188  31.534  1.00  0.00     0.159 HD
BRANCH  11  15
HETATM   15  N2  UNL     1      12.966 -38.262  29.092  1.00  0.00    -0.272 N 
ATOM     16  H2  UNL     1      12.410 -39.105  29.239  1.00  0.00     0.190 HD
BRANCH  15  17
HETATM   17  N3  UNL     1      13.581 -38.098  27.869  1.00  0.00    -0.342 N 
ATOM     18  H32 UNL     1      13.000 -37.758  27.103  1.00  0.00     0.176 HD
ATOM     19  H31 UNL     1      14.566 -38.295  27.694  1.00  0.00     0.176 HD
ENDBRANCH  15  17
ENDBRANCH  11  15
ENDBRANCH  10  11
ENDBRANCH   1  10
BRANCH   2  20
HETATM   20  O2  UNL     1      16.167 -37.559  28.822  1.00  0.00    -0.385 OA
ATOM     21  H2  UNL     1      16.716 -37.002  28.283  1.00  0.00     0.210 HD
ENDBRANCH   2  20
BRANCH   9  22
HETATM   22  N6  UNL     1      14.639 -37.458  33.345  1.00  0.00    -0.276 N 
HETATM   23  C8  UNL     1      14.251 -36.629  34.324  1.00  0.00     0.148 A 
HETATM   24  C9  UNL     1      13.094 -37.123  34.894  1.00  0.00     0.131 A 
HETATM   25  N8  UNL     1      12.831 -38.257  34.216  1.00  0.00    -0.280 N 
HETATM   26  N9  UNL     1      13.755 -38.435  33.308  1.00  0.00    -0.240 N 
ATOM     27  H8  UNL     1      12.039 -38.877  34.384  1.00  0.00     0.188 HD
ATOM     28  H9  UNL     1      13.787 -39.223  32.660  1.00  0.00     0.208 HD
BRANCH  24  29
HETATM   29  C10 UNL     1      12.318 -36.554  35.990  1.00  0.00     0.284 C 
HETATM   30  N7  UNL     1      13.016 -35.855  37.008  1.00  0.00    -0.056 NA
HETATM   31  O5  UNL     1      11.071 -36.684  36.023  1.00  0.00    -0.269 OA
ENDBRANCH  24  29
ENDBRANCH   9  22
BRANCH   8  32
HETATM   32  C6  UNL     1      18.041 -37.807  33.453  1.00  0.00     0.263 C 
HETATM   33  N5  UNL     1      18.491 -38.256  34.721  1.00  0.00    -0.060 NA
HETATM   34  O4  UNL     1      18.710 -36.918  32.877  1.00  0.00    -0.274 OA
ENDBRANCH   8  32
TORSDOF 8
ENDMDL
MODEL 4
REMARK VINA RESULT: -5.385614560      2.011      5.295
REMARK  8 active torsions:
REMARK  status: ('A' for Active; 'I' for Inactive)
REMARK    1  A    between atoms: C1_4  and  N2_5 
REMARK    2  A    between atoms: C1_4  and  O1_10 
REMARK    3  A    between atoms: N2_5  and  N3_7 
REMARK    4  A    between atoms: O1_10  and  C2_11 
REMARK    5  A    between atoms: C3_12  and  O2_13 
REMARK    6  A    between atoms: C5_20  and  C6_21 
REMARK    7  A    between atoms: C7_24  and  N6_25 
REMARK    8  A    between atoms: C9_27  and  C10_28 
ROOT
HETATM    1  C2  UNL     1      15.850 -38.089  31.501  1.00  0.00     0.196 C 
HETATM    2  C3  UNL     1      14.611 -37.953  32.396  1.00  0.00     0.224 C 
HETATM    3  C4  UNL     1      15.037 -37.052  33.484  1.00  0.00     0.144 C 
HETATM    4  N4  UNL     1      14.196 -36.416  34.202  1.00  0.00    -0.381 N 
ATOM      5  H41 UNL     1      14.490 -35.794  34.954  1.00  0.00     0.158 HD
ATOM      6  H42 UNL     1      13.198 -36.529  34.022  1.00  0.00     0.158 HD
HETATM    7  O3  UNL     1      16.379 -36.899  33.725  1.00  0.00    -0.320 OA
HETATM    8  C5  UNL     1      17.254 -37.976  33.496  1.00  0.00     0.246 C 
HETATM    9  C7  UNL     1      16.906 -38.799  32.273  1.00  0.00     0.179 C 
ENDROOT
BRANCH   1  10
HETATM   10  O1  UNL     1      15.569 -38.573  30.245  1.00  0.00    -0.310 OA
BRANCH  10  11
HETATM   11  C1  UNL     1      15.212 -37.852  29.124  1.00  0.00     0.232 C 
HETATM   12  N1  UNL     1      16.200 -37.294  28.509  1.00  0.00    -0.364 N 
ATOM     13  H12 UNL     1      15.936 -36.761  27.680  1.00  0.00     0.159 HD
ATOM     14  H11 UNL     1      17.165 -37.381  28.828  1.00  0.00     0.159 HD
BRANCH  11  15
HETATM   15  N2  UNL     1      13.863 -37.731  28.678  1.00  0.00    -0.272 N 
ATOM     16  H2  UNL     1      13.608 -36.899  28.147  1.00  0.00     0.190 HD
BRANCH  15  17
HETATM   17  N3  UNL     1      12.883 -38.670  28.919  1.00  0.00    -0.342 N 
ATOM     18  H32 UNL     1      13.175 -39.536  29.372  1.00  0.00     0.176 HD
ATOM     19  H31 UNL     1      11.901 -38.547  28.673  1.00  0.00     0.176 HD
ENDBRANCH  15  17
ENDBRANCH  11  15
ENDBRANCH  10  11
ENDBRANCH   1  10
BRANCH   2  20
HETATM   20  O2  UNL     1      13.542 -37.429  31.672  1.00  0.00    -0.385 OA
ATOM     21  H2  UNL     1      12.767 -37.966  31.788  1.00  0.00     0.210 HD
ENDBRANCH   2  20
BRANCH   9  22
HETATM   22  N6  UNL     1      18.079 -38.900  31.429  1.00  0.00    -0.276 N 
HETATM   23  C8  UNL     1      18.846 -39.974  31.202  1.00  0.00     0.148 A 
HETATM   24  C9  UNL     1      19.860 -39.624  30.331  1.00  0.00     0.131 A 
HETATM   25  N8  UNL     1      19.652 -38.319  30.067  1.00  0.00    -0.280 N 
HETATM   26  N9  UNL     1      18.598 -37.913  30.725  1.00  0.00    -0.240 N 
ATOM     27  H8  UNL     1      20.226 -37.741  29.453  1.00  0.00     0.188 HD
ATOM     28  H9  UNL     1      18.228 -36.963  30.698  1.00  0.00     0.208 HD
BRANCH  24  29
HETATM   29  C10 UNL     1      20.926 -40.469  29.807  1.00  0.00     0.284 C 
HETATM   30  N7  UNL     1      21.190 -41.696  30.467  1.00  0.00    -0.056 NA
HETATM   31  O5  UNL     1      21.585 -40.112  28.801  1.00  0.00    -0.269 OA
ENDBRANCH  24  29
ENDBRANCH   9  22
BRANCH   8  32
HETATM   32  C6  UNL     1      17.239 -38.810  34.745  1.00  0.00     0.263 C 
HETATM   33  N5  UNL     1      18.141 -38.503  35.797  1.00  0.00    -0.060 NA
HETATM   34  O4  UNL     1      16.459 -39.776  34.908  1.00  0.00    -0.274 OA
ENDBRANCH   8  32
TORSDOF 8
ENDMDL
MODEL 5
REMARK VINA RESULT: -5.384033377      2.548      5.095
REMARK  8 active torsions:
REMARK  status: ('A' for Active; 'I' for Inactive)
REMARK    1  A    between atoms: C1_4  and  N2_5 
REMARK    2  A    between atoms: C1_4  and  O1_10 
REMARK    3  A    between atoms: N2_5  and  N3_7 
REMARK    4  A    between atoms: O1_10  and  C2_11 
REMARK    5  A    between atoms: C3_12  and  O2_13 
REMARK    6  A    between atoms: C5_20  and  C6_21 
REMARK    7  A    between atoms: C7_24  and  N6_25 
REMARK    8  A    between atoms: C9_27  and  C10_28 
ROOT
HETATM    1  C2  UNL     1      15.457 -40.189  28.963  1.00  0.00     0.196 C 
HETATM    2  C3  UNL     1      15.644 -41.598  28.383  1.00  0.00     0.224 C 
HETATM    3  C4  UNL     1      16.153 -42.398  29.513  1.00  0.00     0.144 C 
HETATM    4  N4  UNL     1      16.076 -43.671  29.526  1.00  0.00    -0.381 N 
ATOM      5  H41 UNL     1      16.428 -44.224  30.307  1.00  0.00     0.158 HD
ATOM      6  H42 UNL     1      15.651 -44.155  28.736  1.00  0.00     0.158 HD
HETATM    7  O3  UNL     1      16.724 -41.747  30.577  1.00  0.00    -0.320 OA
HETATM    8  C5  UNL     1      17.425 -40.546  30.364  1.00  0.00     0.246 C 
HETATM    9  C7  UNL     1      16.797 -39.649  29.316  1.00  0.00     0.179 C 
ENDROOT
BRANCH   1  10
HETATM   10  O1  UNL     1      14.646 -39.384  28.196  1.00  0.00    -0.310 OA
BRANCH  10  11
HETATM   11  C1  UNL     1      13.362 -38.967  28.479  1.00  0.00     0.232 C 
HETATM   12  N1  UNL     1      13.256 -37.712  28.759  1.00  0.00    -0.364 N 
ATOM     13  H12 UNL     1      12.306 -37.404  28.967  1.00  0.00     0.159 HD
ATOM     14  H11 UNL     1      14.057 -37.081  28.769  1.00  0.00     0.159 HD
BRANCH  11  15
HETATM   15  N2  UNL     1      12.241 -39.848  28.464  1.00  0.00    -0.272 N 
ATOM     16  H2  UNL     1      11.723 -39.978  29.333  1.00  0.00     0.190 HD
BRANCH  15  17
HETATM   17  N3  UNL     1      11.813 -40.535  27.347  1.00  0.00    -0.342 N 
ATOM     18  H32 UNL     1      12.526 -40.802  26.669  1.00  0.00     0.176 HD
ATOM     19  H31 UNL     1      10.840 -40.785  27.168  1.00  0.00     0.176 HD
ENDBRANCH  15  17
ENDBRANCH  11  15
ENDBRANCH  10  11
ENDBRANCH   1  10
BRANCH   2  20
HETATM   20  O2  UNL     1      14.435 -42.089  27.897  1.00  0.00    -0.385 OA
ATOM     21  H2  UNL     1      14.538 -42.982  27.588  1.00  0.00     0.210 HD
ENDBRANCH   2  20
BRANCH   9  22
HETATM   22  N6  UNL     1      16.607 -38.330  29.886  1.00  0.00    -0.276 N 
HETATM   23  C8  UNL     1      16.268 -38.012  31.142  1.00  0.00     0.148 A 
HETATM   24  C9  UNL     1      16.198 -36.636  31.250  1.00  0.00     0.131 A 
HETATM   25  N8  UNL     1      16.505 -36.177  30.022  1.00  0.00    -0.280 N 
HETATM   26  N9  UNL     1      16.742 -37.192  29.234  1.00  0.00    -0.240 N 
ATOM     27  H8  UNL     1      16.546 -35.195  29.751  1.00  0.00     0.188 HD
ATOM     28  H9  UNL     1      16.997 -37.115  28.248  1.00  0.00     0.208 HD
BRANCH  24  29
HETATM   29  C10 UNL     1      15.864 -35.844  32.428  1.00  0.00     0.284 C 
HETATM   30  N7  UNL     1      15.349 -36.520  33.563  1.00  0.00    -0.056 NA
HETATM   31  O5  UNL     1      16.032 -34.601  32.427  1.00  0.00    -0.269 OA
ENDBRANCH  24  29
ENDBRANCH   9  22
BRANCH   8  32
HETATM   32  C6  UNL     1      18.827 -40.932  29.990  1.00  0.00     0.263 C 
HETATM   33  N5  UNL     1      19.821 -41.000  31.000  1.00  0.00    -0.060 NA
HETATM   34  O4  UNL     1      19.169 -41.201  28.815  1.00  0.00    -0.274 OA
ENDBRANCH   8  32
TORSDOF 8
ENDMDL
