MODEL 1
REMARK VINA RESULT: -6.227360236      0.000      0.000
REMARK  2 active torsions:
REMARK  status: ('A' for Active; 'I' for Inactive)
REMARK    1  A    between atoms: C2_2  and  C3_7 
REMARK    2  A    between atoms: N1_3  and  O1_5 
REMARK       I    between atoms: C3_7  and  N2_9 
ROOT
HETATM    1  C3  UNL     1       6.990 -24.779 -11.021  1.00  0.00     0.270 C 
HETATM    2  O2  UNL     1       6.071 -24.266 -11.708  1.00  0.00    -0.266 OA
HETATM    3  N2  UNL     1       8.258 -24.151 -11.072  1.00  0.00    -0.319 N 
ATOM      4  H2  UNL     1       8.823 -24.253 -11.915  1.00  0.00     0.169 HD
HETATM    5  C4  UNL     1       8.721 -23.461 -10.101  1.00  0.00     0.063 C 
HETATM    6  S1  UNL     1       7.731 -23.290  -8.634  1.00  0.00    -0.079 SA
HETATM    7  C5  UNL     1       8.872 -22.781  -7.352  1.00  0.00    -0.001 C 
HETATM    8  C6  UNL     1       8.288 -22.483  -6.008  1.00  0.00     0.058 C 
HETATM    9  C7  UNL     1      10.155 -22.688  -7.622  1.00  0.00     0.043 C 
HETATM   10 CL1  UNL     1      11.176 -22.174  -6.257  1.00  0.00    -0.086 Cl
HETATM   11  C8  UNL     1      10.835 -22.952  -8.881  1.00  0.00     0.152 C 
HETATM   12  C9  UNL     1      11.509 -24.273  -8.894  1.00  0.00     0.070 C 
HETATM   13  N3  UNL     1      12.033 -25.303  -8.919  1.00  0.00    -0.197 NA
HETATM   14  C10 UNL     1      10.030 -22.799 -10.124  1.00  0.00     0.023 C 
HETATM   15  C11 UNL     1       9.864 -21.307 -10.388  1.00  0.00     0.024 C 
HETATM   16  C12 UNL     1      10.834 -23.438 -11.265  1.00  0.00     0.024 C 
ENDROOT
BRANCH   1  17
HETATM   17  C2  UNL     1       6.702 -25.956 -10.240  1.00  0.00     0.096 C 
HETATM   18  C1  UNL     1       5.324 -26.205  -9.763  1.00  0.00     0.076 C 
HETATM   19  N1  UNL     1       7.619 -26.799  -9.947  1.00  0.00    -0.268 N 
ATOM     20  H1  UNL     1       7.356 -27.613  -9.393  1.00  0.00     0.194 HD
BRANCH  19  21
HETATM   21  O1  UNL     1       8.928 -26.684 -10.327  1.00  0.00    -0.290 OA
ATOM     22  H1  UNL     1       9.671 -26.876  -9.766  1.00  0.00     0.244 HD
ENDBRANCH  19  21
ENDBRANCH   1  17
TORSDOF 2
ENDMDL
MODEL 2
REMARK VINA RESULT: -5.974769294      1.153      1.344
REMARK  2 active torsions:
REMARK  status: ('A' for Active; 'I' for Inactive)
REMARK    1  A    between atoms: C2_2  and  C3_7 
REMARK    2  A    between atoms: N1_3  and  O1_5 
REMARK       I    between atoms: C3_7  and  N2_9 
ROOT
HETATM    1  C3  UNL     1       6.828 -24.717 -11.057  1.00  0.00     0.270 C 
HETATM    2  O2  UNL     1       5.897 -24.162 -11.692  1.00  0.00    -0.266 OA
HETATM    3  N2  UNL     1       8.112 -24.130 -11.153  1.00  0.00    -0.319 N 
ATOM      4  H2  UNL     1       8.635 -24.234 -12.022  1.00  0.00     0.169 HD
HETATM    5  C4  UNL     1       8.640 -23.474 -10.191  1.00  0.00     0.063 C 
HETATM    6  S1  UNL     1       7.722 -23.299  -8.679  1.00  0.00    -0.079 SA
HETATM    7  C5  UNL     1       8.935 -22.853  -7.441  1.00  0.00    -0.001 C 
HETATM    8  C6  UNL     1       8.421 -22.561  -6.066  1.00  0.00     0.058 C 
HETATM    9  C7  UNL     1      10.207 -22.796  -7.765  1.00  0.00     0.043 C 
HETATM   10 CL1  UNL     1      11.304 -22.341  -6.439  1.00  0.00    -0.086 Cl
HETATM   11  C8  UNL     1      10.821 -23.058  -9.059  1.00  0.00     0.152 C 
HETATM   12  C9  UNL     1      11.451 -24.399  -9.125  1.00  0.00     0.070 C 
HETATM   13  N3  UNL     1      11.938 -25.445  -9.192  1.00  0.00    -0.197 NA
HETATM   14  C10 UNL     1       9.968 -22.855 -10.261  1.00  0.00     0.023 C 
HETATM   15  C11 UNL     1       9.840 -21.354 -10.491  1.00  0.00     0.024 C 
HETATM   16  C12 UNL     1      10.700 -23.497 -11.448  1.00  0.00     0.024 C 
ENDROOT
BRANCH   1  17
HETATM   17  C2  UNL     1       6.535 -25.899 -10.284  1.00  0.00     0.096 C 
HETATM   18  C1  UNL     1       7.444 -27.064 -10.344  1.00  0.00     0.076 C 
HETATM   19  N1  UNL     1       5.496 -25.963  -9.539  1.00  0.00    -0.268 N 
ATOM     20  H1  UNL     1       5.341 -26.824  -9.014  1.00  0.00     0.194 HD
BRANCH  19  21
HETATM   21  O1  UNL     1       4.580 -24.958  -9.396  1.00  0.00    -0.290 OA
ATOM     22  H1  UNL     1       4.075 -24.582 -10.109  1.00  0.00     0.244 HD
ENDBRANCH  19  21
ENDBRANCH   1  17
TORSDOF 2
ENDMDL
MODEL 3
REMARK VINA RESULT: -5.924608806      3.399      5.068
REMARK  2 active torsions:
REMARK  status: ('A' for Active; 'I' for Inactive)
REMARK    1  A    between atoms: C2_2  and  C3_7 
REMARK    2  A    between atoms: N1_3  and  O1_5 
REMARK       I    between atoms: C3_7  and  N2_9 
ROOT
HETATM    1  C3  UNL     1       9.939 -22.798  -6.691  1.00  0.00     0.270 C 
HETATM    2  O2  UNL     1       8.942 -23.085  -5.983  1.00  0.00    -0.266 OA
HETATM    3  N2  UNL     1      10.300 -23.722  -7.700  1.00  0.00    -0.319 N 
ATOM      4  H2  UNL     1      10.742 -24.600  -7.426  1.00  0.00     0.169 HD
HETATM    5  C4  UNL     1      10.094 -23.499  -8.941  1.00  0.00     0.063 C 
HETATM    6  S1  UNL     1       9.326 -21.965  -9.411  1.00  0.00    -0.079 SA
HETATM    7  C5  UNL     1       9.706 -21.761 -11.148  1.00  0.00    -0.001 C 
HETATM    8  C6  UNL     1       9.109 -20.574 -11.835  1.00  0.00     0.058 C 
HETATM    9  C7  UNL     1      10.478 -22.636 -11.753  1.00  0.00     0.043 C 
HETATM   10 CL1  UNL     1      10.774 -22.312 -13.478  1.00  0.00    -0.086 Cl
HETATM   11  C8  UNL     1      11.113 -23.820 -11.194  1.00  0.00     0.152 C 
HETATM   12  C9  UNL     1      12.551 -23.606 -10.901  1.00  0.00     0.070 C 
HETATM   13  N3  UNL     1      13.671 -23.449 -10.662  1.00  0.00    -0.197 NA
HETATM   14  C10 UNL     1      10.457 -24.437 -10.009  1.00  0.00     0.023 C 
HETATM   15  C11 UNL     1       9.222 -25.184 -10.500  1.00  0.00     0.024 C 
HETATM   16  C12 UNL     1      11.457 -25.435  -9.407  1.00  0.00     0.024 C 
ENDROOT
BRANCH   1  17
HETATM   17  C2  UNL     1      10.642 -21.565  -6.435  1.00  0.00     0.096 C 
HETATM   18  C1  UNL     1       9.893 -20.364  -6.003  1.00  0.00     0.076 C 
HETATM   19  N1  UNL     1      11.912 -21.485  -6.574  1.00  0.00    -0.268 N 
ATOM     20  H1  UNL     1      12.355 -20.588  -6.377  1.00  0.00     0.194 HD
BRANCH  19  21
HETATM   21  O1  UNL     1      12.717 -22.519  -6.966  1.00  0.00    -0.290 OA
ATOM     22  H1  UNL     1      13.579 -22.416  -7.351  1.00  0.00     0.244 HD
ENDBRANCH  19  21
ENDBRANCH   1  17
TORSDOF 2
ENDMDL
MODEL 4
REMARK VINA RESULT: -5.841250627      2.672      4.592
REMARK  2 active torsions:
REMARK  status: ('A' for Active; 'I' for Inactive)
REMARK    1  A    between atoms: C2_2  and  C3_7 
REMARK    2  A    between atoms: N1_3  and  O1_5 
REMARK       I    between atoms: C3_7  and  N2_9 
ROOT
HETATM    1  C3  UNL     1      10.208 -21.491 -11.983  1.00  0.00     0.270 C 
HETATM    2  O2  UNL     1      11.354 -21.525 -12.497  1.00  0.00    -0.266 OA
HETATM    3  N2  UNL     1       9.706 -22.701 -11.448  1.00  0.00    -0.319 N 
ATOM      4  H2  UNL     1       9.402 -23.433 -12.090  1.00  0.00     0.169 HD
HETATM    5  C4  UNL     1       9.620 -22.911 -10.190  1.00  0.00     0.063 C 
HETATM    6  S1  UNL     1      10.149 -21.629  -9.077  1.00  0.00    -0.079 SA
HETATM    7  C5  UNL     1       9.386 -22.023  -7.507  1.00  0.00    -0.001 C 
HETATM    8  C6  UNL     1       9.728 -21.141  -6.350  1.00  0.00     0.058 C 
HETATM    9  C7  UNL     1       8.569 -23.049  -7.420  1.00  0.00     0.043 C 
HETATM   10 CL1  UNL     1       7.880 -23.327  -5.802  1.00  0.00    -0.086 Cl
HETATM   11  C8  UNL     1       8.161 -23.972  -8.469  1.00  0.00     0.152 C 
HETATM   12  C9  UNL     1       6.809 -23.667  -8.997  1.00  0.00     0.070 C 
HETATM   13  N3  UNL     1       5.760 -23.435  -9.423  1.00  0.00    -0.197 NA
HETATM   14  C10 UNL     1       9.104 -24.154  -9.606  1.00  0.00     0.023 C 
HETATM   15  C11 UNL     1      10.255 -25.027  -9.119  1.00  0.00     0.024 C 
HETATM   16  C12 UNL     1       8.337 -24.886 -10.717  1.00  0.00     0.024 C 
ENDROOT
BRANCH   1  17
HETATM   17  C2  UNL     1       9.487 -20.242 -11.973  1.00  0.00     0.096 C 
HETATM   18  C1  UNL     1      10.221 -18.967 -11.811  1.00  0.00     0.076 C 
HETATM   19  N1  UNL     1       8.214 -20.210 -12.103  1.00  0.00    -0.268 N 
ATOM     20  H1  UNL     1       7.759 -19.298 -12.089  1.00  0.00     0.194 HD
BRANCH  19  21
HETATM   21  O1  UNL     1       7.422 -21.314 -12.259  1.00  0.00    -0.290 OA
ATOM     22  H1  UNL     1       6.817 -21.447 -12.980  1.00  0.00     0.244 HD
ENDBRANCH  19  21
ENDBRANCH   1  17
TORSDOF 2
ENDMDL
MODEL 5
REMARK VINA RESULT: -5.687876957      3.238      4.870
REMARK  2 active torsions:
REMARK  status: ('A' for Active; 'I' for Inactive)
REMARK    1  A    between atoms: C2_2  and  C3_7 
REMARK    2  A    between atoms: N1_3  and  O1_5 
REMARK       I    between atoms: C3_7  and  N2_9 
ROOT
HETATM    1  C3  UNL     1      10.323 -21.491 -12.337  1.00  0.00     0.270 C 
HETATM    2  O2  UNL     1      11.457 -21.648 -12.853  1.00  0.00    -0.266 OA
HETATM    3  N2  UNL     1       9.648 -22.656 -11.900  1.00  0.00    -0.319 N 
ATOM      4  H2  UNL     1       9.249 -23.283 -12.598  1.00  0.00     0.169 HD
HETATM    5  C4  UNL     1       9.520 -22.951 -10.663  1.00  0.00     0.063 C 
HETATM    6  S1  UNL     1      10.215 -21.851  -9.452  1.00  0.00    -0.079 SA
HETATM    7  C5  UNL     1       9.388 -22.256  -7.917  1.00  0.00    -0.001 C 
HETATM    8  C6  UNL     1       9.841 -21.526  -6.693  1.00  0.00     0.058 C 
HETATM    9  C7  UNL     1       8.432 -23.157  -7.911  1.00  0.00     0.043 C 
HETATM   10 CL1  UNL     1       7.694 -23.462  -6.320  1.00  0.00    -0.086 Cl
HETATM   11  C8  UNL     1       7.907 -23.926  -9.030  1.00  0.00     0.152 C 
HETATM   12  C9  UNL     1       6.618 -23.389  -9.531  1.00  0.00     0.070 C 
HETATM   13  N3  UNL     1       5.617 -22.976  -9.935  1.00  0.00    -0.197 NA
HETATM   14  C10 UNL     1       8.826 -24.150 -10.180  1.00  0.00     0.023 C 
HETATM   15  C11 UNL     1       9.835 -25.214  -9.766  1.00  0.00     0.024 C 
HETATM   16  C12 UNL     1       7.973 -24.674 -11.345  1.00  0.00     0.024 C 
ENDROOT
BRANCH   1  17
HETATM   17  C2  UNL     1       9.788 -20.156 -12.225  1.00  0.00     0.096 C 
HETATM   18  C1  UNL     1       8.325 -19.953 -12.133  1.00  0.00     0.076 C 
HETATM   19  N1  UNL     1      10.557 -19.134 -12.203  1.00  0.00    -0.268 N 
ATOM     20  H1  UNL     1      10.122 -18.215 -12.121  1.00  0.00     0.194 HD
BRANCH  19  21
HETATM   21  O1  UNL     1      11.922 -19.187 -12.280  1.00  0.00    -0.290 OA
ATOM     22  H1  UNL     1      12.461 -19.845 -11.858  1.00  0.00     0.244 HD
ENDBRANCH  19  21
ENDBRANCH   1  17
TORSDOF 2
ENDMDL
