MODEL 1
REMARK VINA RESULT: -5.737642041      0.000      0.000
REMARK  3 active torsions:
REMARK  status: ('A' for Active; 'I' for Inactive)
REMARK    1  A    between atoms: C2_2  and  C5_5 
REMARK    2  A    between atoms: C5_5  and  S1_6 
REMARK    3  A    between atoms: S1_6  and  C6_7 
REMARK       I    between atoms: C6_7  and  N1_9 
ROOT
HETATM    1  C6  UNL     1      10.038 -21.853 -10.839  1.00  0.00     0.285 C 
HETATM    2  O1  UNL     1       9.808 -20.618 -11.005  1.00  0.00    -0.260 OA
HETATM    3  N1  UNL     1       9.207 -22.617  -9.981  1.00  0.00    -0.302 N 
ATOM      4  H1  UNL     1       8.513 -23.255 -10.371  1.00  0.00     0.171 HD
HETATM    5  C7  UNL     1       9.332 -22.501  -8.725  1.00  0.00     0.134 A 
HETATM    6  N2  UNL     1      10.245 -21.662  -8.218  1.00  0.00    -0.318 N 
ATOM      7  H2  UNL     1      10.831 -21.123  -8.856  1.00  0.00     0.169 HD
HETATM    8  C8  UNL     1      10.411 -21.509  -6.891  1.00  0.00     0.189 A 
HETATM    9  C9  UNL     1      11.385 -20.612  -6.333  1.00  0.00     0.137 C 
HETATM   10  N3  UNL     1      12.167 -19.886  -5.876  1.00  0.00    -0.188 NA
HETATM   11  N4  UNL     1       9.624 -22.231  -6.083  1.00  0.00    -0.342 N 
ATOM     12  H4  UNL     1       9.737 -22.125  -5.076  1.00  0.00     0.167 HD
HETATM   13  C10 UNL     1       8.694 -23.087  -6.536  1.00  0.00     0.118 A 
HETATM   14  C11 UNL     1       8.524 -23.245  -7.890  1.00  0.00     0.093 A 
HETATM   15 CL1  UNL     1       7.324 -24.349  -8.558  1.00  0.00    -0.079 Cl
ENDROOT
BRANCH   1  16
HETATM   16  S1  UNL     1      11.389 -22.676 -11.660  1.00  0.00    -0.068 SA
BRANCH  16  17
HETATM   17  C5  UNL     1      12.462 -23.459 -10.430  1.00  0.00     0.092 C 
BRANCH  17  18
HETATM   18  C2  UNL     1      12.439 -24.963 -10.544  1.00  0.00    -0.042 C 
HETATM   19  C1  UNL     1      12.292 -25.526  -9.138  1.00  0.00     0.015 C 
HETATM   20  C3  UNL     1      13.695 -25.447 -11.208  1.00  0.00     0.015 C 
HETATM   21  C4  UNL     1      11.221 -25.355 -11.347  1.00  0.00     0.015 C 
ENDBRANCH  17  18
ENDBRANCH  16  17
ENDBRANCH   1  16
TORSDOF 3
ENDMDL
MODEL 2
REMARK VINA RESULT: -5.733618903      1.551      1.988
REMARK  3 active torsions:
REMARK  status: ('A' for Active; 'I' for Inactive)
REMARK    1  A    between atoms: C2_2  and  C5_5 
REMARK    2  A    between atoms: C5_5  and  S1_6 
REMARK    3  A    between atoms: S1_6  and  C6_7 
REMARK       I    between atoms: C6_7  and  N1_9 
ROOT
HETATM    1  C6  UNL     1      10.583 -22.811  -9.193  1.00  0.00     0.285 C 
HETATM    2  O1  UNL     1      10.541 -21.805  -9.961  1.00  0.00    -0.260 OA
HETATM    3  N1  UNL     1       9.490 -23.086  -8.331  1.00  0.00    -0.302 N 
ATOM      4  H1  UNL     1       8.839 -23.840  -8.550  1.00  0.00     0.171 HD
HETATM    5  C7  UNL     1       9.328 -22.388  -7.286  1.00  0.00     0.134 A 
HETATM    6  N2  UNL     1      10.187 -21.399  -7.002  1.00  0.00    -0.318 N 
ATOM      7  H2  UNL     1      10.965 -21.220  -7.638  1.00  0.00     0.169 HD
HETATM    8  C8  UNL     1      10.051 -20.634  -5.903  1.00  0.00     0.189 A 
HETATM    9  C9  UNL     1      10.963 -19.569  -5.586  1.00  0.00     0.137 C 
HETATM   10  N3  UNL     1      11.693 -18.705  -5.327  1.00  0.00    -0.188 NA
HETATM   11  N4  UNL     1       9.019 -20.896  -5.092  1.00  0.00    -0.342 N 
ATOM     12  H4  UNL     1       8.903 -20.324  -4.255  1.00  0.00     0.167 HD
HETATM   13  C10 UNL     1       8.129 -21.874  -5.326  1.00  0.00     0.118 A 
HETATM   14  C11 UNL     1       8.266 -22.656  -6.447  1.00  0.00     0.093 A 
HETATM   15 CL1  UNL     1       7.138 -23.957  -6.820  1.00  0.00    -0.079 Cl
ENDROOT
BRANCH   1  16
HETATM   16  S1  UNL     1      11.985 -23.911  -9.156  1.00  0.00    -0.068 SA
BRANCH  16  17
HETATM   17  C5  UNL     1      13.055 -23.581 -10.578  1.00  0.00     0.092 C 
BRANCH  17  18
HETATM   18  C2  UNL     1      12.979 -24.685 -11.603  1.00  0.00    -0.042 C 
HETATM   19  C1  UNL     1      12.647 -24.044 -12.942  1.00  0.00     0.015 C 
HETATM   20  C3  UNL     1      11.943 -25.692 -11.197  1.00  0.00     0.015 C 
HETATM   21  C4  UNL     1      14.342 -25.328 -11.704  1.00  0.00     0.015 C 
ENDBRANCH  17  18
ENDBRANCH  16  17
ENDBRANCH   1  16
TORSDOF 3
ENDMDL
MODEL 3
REMARK VINA RESULT: -5.733521669      1.547      1.697
REMARK  3 active torsions:
REMARK  status: ('A' for Active; 'I' for Inactive)
REMARK    1  A    between atoms: C2_2  and  C5_5 
REMARK    2  A    between atoms: C5_5  and  S1_6 
REMARK    3  A    between atoms: S1_6  and  C6_7 
REMARK       I    between atoms: C6_7  and  N1_9 
ROOT
HETATM    1  C6  UNL     1      10.576 -22.805  -9.201  1.00  0.00     0.285 C 
HETATM    2  O1  UNL     1      10.514 -21.805  -9.977  1.00  0.00    -0.260 OA
HETATM    3  N1  UNL     1       9.497 -23.085  -8.325  1.00  0.00    -0.302 N 
ATOM      4  H1  UNL     1       8.853 -23.849  -8.531  1.00  0.00     0.171 HD
HETATM    5  C7  UNL     1       9.338 -22.381  -7.284  1.00  0.00     0.134 A 
HETATM    6  N2  UNL     1      10.188 -21.379  -7.018  1.00  0.00    -0.318 N 
ATOM      7  H2  UNL     1      10.956 -21.196  -7.664  1.00  0.00     0.169 HD
HETATM    8  C8  UNL     1      10.055 -20.607  -5.924  1.00  0.00     0.189 A 
HETATM    9  C9  UNL     1      10.958 -19.529  -5.626  1.00  0.00     0.137 C 
HETATM   10  N3  UNL     1      11.680 -18.654  -5.382  1.00  0.00    -0.188 NA
HETATM   11  N4  UNL     1       9.035 -20.874  -5.099  1.00  0.00    -0.342 N 
ATOM     12  H4  UNL     1       8.921 -20.297  -4.266  1.00  0.00     0.167 HD
HETATM   13  C10 UNL     1       8.155 -21.864  -5.315  1.00  0.00     0.118 A 
HETATM   14  C11 UNL     1       8.288 -22.654  -6.432  1.00  0.00     0.093 A 
HETATM   15 CL1  UNL     1       7.172 -23.972  -6.782  1.00  0.00    -0.079 Cl
ENDROOT
BRANCH   1  16
HETATM   16  S1  UNL     1      11.992 -23.887  -9.171  1.00  0.00    -0.068 SA
BRANCH  16  17
HETATM   17  C5  UNL     1      13.043 -23.554 -10.607  1.00  0.00     0.092 C 
BRANCH  17  18
HETATM   18  C2  UNL     1      13.015 -24.692 -11.596  1.00  0.00    -0.042 C 
HETATM   19  C1  UNL     1      11.997 -25.707 -11.097  1.00  0.00     0.015 C 
HETATM   20  C3  UNL     1      14.384 -25.295 -11.724  1.00  0.00     0.015 C 
HETATM   21  C4  UNL     1      12.540 -24.150 -12.923  1.00  0.00     0.015 C 
ENDBRANCH  17  18
ENDBRANCH  16  17
ENDBRANCH   1  16
TORSDOF 3
ENDMDL
MODEL 4
REMARK VINA RESULT: -5.650673005      2.997      5.263
REMARK  3 active torsions:
REMARK  status: ('A' for Active; 'I' for Inactive)
REMARK    1  A    between atoms: C2_2  and  C5_5 
REMARK    2  A    between atoms: C5_5  and  S1_6 
REMARK    3  A    between atoms: S1_6  and  C6_7 
REMARK       I    between atoms: C6_7  and  N1_9 
ROOT
HETATM    1  C6  UNL     1       9.268 -22.589  -7.251  1.00  0.00     0.285 C 
HETATM    2  O1  UNL     1       9.578 -21.463  -6.759  1.00  0.00    -0.260 OA
HETATM    3  N1  UNL     1      10.233 -23.329  -7.982  1.00  0.00    -0.302 N 
ATOM      4  H1  UNL     1      10.687 -24.138  -7.561  1.00  0.00     0.171 HD
HETATM    5  C7  UNL     1      10.525 -22.976  -9.163  1.00  0.00     0.134 A 
HETATM    6  N2  UNL     1       9.925 -21.911  -9.712  1.00  0.00    -0.318 N 
ATOM      7  H2  UNL     1       9.235 -21.395  -9.166  1.00  0.00     0.169 HD
HETATM    8  C8  UNL     1      10.207 -21.502 -10.964  1.00  0.00     0.189 A 
HETATM    9  C9  UNL     1       9.572 -20.362 -11.565  1.00  0.00     0.137 C 
HETATM   10  N3  UNL     1       9.067 -19.440 -12.055  1.00  0.00    -0.188 NA
HETATM   11  N4  UNL     1      11.118 -22.202 -11.651  1.00  0.00    -0.342 N 
ATOM     12  H4  UNL     1      11.343 -21.904 -12.600  1.00  0.00     0.167 HD
HETATM   13  C10 UNL     1      11.750 -23.277 -11.152  1.00  0.00     0.118 A 
HETATM   14  C11 UNL     1      11.463 -23.695  -9.875  1.00  0.00     0.093 A 
HETATM   15 CL1  UNL     1      12.252 -25.096  -9.153  1.00  0.00    -0.079 Cl
ENDROOT
BRANCH   1  16
HETATM   16  S1  UNL     1       7.640 -23.286  -7.054  1.00  0.00    -0.068 SA
BRANCH  16  17
HETATM   17  C5  UNL     1       7.395 -24.613  -8.261  1.00  0.00     0.092 C 
BRANCH  17  18
HETATM   18  C2  UNL     1       6.270 -24.300  -9.215  1.00  0.00    -0.042 C 
HETATM   19  C1  UNL     1       6.847 -23.455 -10.342  1.00  0.00     0.015 C 
HETATM   20  C3  UNL     1       5.168 -23.583  -8.492  1.00  0.00     0.015 C 
HETATM   21  C4  UNL     1       5.772 -25.601  -9.799  1.00  0.00     0.015 C 
ENDBRANCH  17  18
ENDBRANCH  16  17
ENDBRANCH   1  16
TORSDOF 3
ENDMDL
MODEL 5
REMARK VINA RESULT: -5.603973050      2.861      5.781
REMARK  3 active torsions:
REMARK  status: ('A' for Active; 'I' for Inactive)
REMARK    1  A    between atoms: C2_2  and  C5_5 
REMARK    2  A    between atoms: C5_5  and  S1_6 
REMARK    3  A    between atoms: S1_6  and  C6_7 
REMARK       I    between atoms: C6_7  and  N1_9 
ROOT
HETATM    1  C6  UNL     1       9.578 -22.731  -6.934  1.00  0.00     0.285 C 
HETATM    2  O1  UNL     1      10.215 -23.541  -6.197  1.00  0.00    -0.260 OA
HETATM    3  N1  UNL     1       8.334 -23.118  -7.497  1.00  0.00    -0.302 N 
ATOM      4  H1  UNL     1       7.462 -22.758  -7.111  1.00  0.00     0.171 HD
HETATM    5  C7  UNL     1       8.316 -23.914  -8.482  1.00  0.00     0.134 A 
HETATM    6  N2  UNL     1       9.466 -24.384  -8.984  1.00  0.00    -0.318 N 
ATOM      7  H2  UNL     1      10.348 -24.091  -8.562  1.00  0.00     0.169 HD
HETATM    8  C8  UNL     1       9.491 -25.231 -10.030  1.00  0.00     0.189 A 
HETATM    9  C9  UNL     1      10.717 -25.743 -10.579  1.00  0.00     0.137 C 
HETATM   10  N3  UNL     1      11.702 -26.164 -11.025  1.00  0.00    -0.188 NA
HETATM   11  N4  UNL     1       8.316 -25.595 -10.559  1.00  0.00    -0.342 N 
ATOM     12  H4  UNL     1       8.319 -26.237 -11.351  1.00  0.00     0.167 HD
HETATM   13  C10 UNL     1       7.135 -25.155 -10.096  1.00  0.00     0.118 A 
HETATM   14  C11 UNL     1       7.107 -24.290  -9.029  1.00  0.00     0.093 A 
HETATM   15 CL1  UNL     1       5.595 -23.672  -8.368  1.00  0.00    -0.079 Cl
ENDROOT
BRANCH   1  16
HETATM   16  S1  UNL     1      10.197 -21.099  -7.294  1.00  0.00    -0.068 SA
BRANCH  16  17
HETATM   17  C5  UNL     1      11.543 -20.693  -6.154  1.00  0.00     0.092 C 
BRANCH  17  18
HETATM   18  C2  UNL     1      11.179 -19.544  -5.247  1.00  0.00    -0.042 C 
HETATM   19  C1  UNL     1      12.176 -19.537  -4.097  1.00  0.00     0.015 C 
HETATM   20  C3  UNL     1       9.769 -19.702  -4.758  1.00  0.00     0.015 C 
HETATM   21  C4  UNL     1      11.338 -18.260  -6.026  1.00  0.00     0.015 C 
ENDBRANCH  17  18
ENDBRANCH  16  17
ENDBRANCH   1  16
TORSDOF 3
ENDMDL
