MODEL 1
REMARK VINA RESULT: -7.010408187      0.000      0.000
REMARK  3 active torsions:
REMARK  status: ('A' for Active; 'I' for Inactive)
REMARK    1  A    between atoms: N1_1  and  N2_4 
REMARK    2  A    between atoms: N2_4  and  N3_5 
REMARK    3  A    between atoms: N3_5  and  C1_7 
ROOT
HETATM    1  C1  UNL     1      10.092 -22.783  -6.883  1.00  0.00     0.087 A 
HETATM    2  C2  UNL     1       9.006 -22.506  -6.077  1.00  0.00     0.035 A 
HETATM    3  C3  UNL     1       7.720 -22.812  -6.424  1.00  0.00     0.028 A 
HETATM    4  C4  UNL     1       7.447 -23.423  -7.621  1.00  0.00     0.053 A 
HETATM    5 CL1  UNL     1       5.794 -23.825  -8.084  1.00  0.00    -0.083 Cl
HETATM    6  C5  UNL     1       8.512 -23.719  -8.459  1.00  0.00     0.057 A 
HETATM    7  C6  UNL     1       9.800 -23.406  -8.096  1.00  0.00     0.127 A 
HETATM    8  S1  UNL     1      11.105 -23.782  -9.155  1.00  0.00     0.269 S 
HETATM    9  O1  UNL     1      12.432 -23.729  -8.446  1.00  0.00    -0.200 OA
HETATM   10  O2  UNL     1      11.090 -22.794 -10.301  1.00  0.00    -0.200 OA
HETATM   11  N4  UNL     1      10.827 -25.340  -9.851  1.00  0.00    -0.240 N 
ATOM     12  H4  UNL     1      11.553 -26.057  -9.867  1.00  0.00     0.182 HD
HETATM   13  C7  UNL     1       9.539 -25.569 -10.400  1.00  0.00     0.298 C 
HETATM   14  O3  UNL     1       9.362 -26.538 -11.174  1.00  0.00    -0.259 OA
HETATM   15  S2  UNL     1       8.139 -24.525 -10.030  1.00  0.00    -0.025 SA
ENDROOT
BRANCH   1  16
HETATM   16  N3  UNL     1      11.429 -22.458  -6.508  1.00  0.00    -0.215 N 
ATOM     17  H3  UNL     1      12.165 -23.164  -6.472  1.00  0.00     0.204 HD
BRANCH  16  18
HETATM   18  N2  UNL     1      11.649 -21.260  -6.226  1.00  0.00    -0.243 NA
BRANCH  18  19
HETATM   19  N1  UNL     1      12.061 -20.179  -5.793  1.00  0.00    -0.260 N 
ATOM     20  H12 UNL     1      11.132 -19.942  -5.447  1.00  0.00     0.193 HD
ATOM     21  H11 UNL     1      12.596 -19.354  -5.517  1.00  0.00     0.193 HD
ENDBRANCH  18  19
ENDBRANCH  16  18
ENDBRANCH   1  16
TORSDOF 3
ENDMDL
MODEL 2
REMARK VINA RESULT: -6.566708331      2.838      3.628
REMARK  3 active torsions:
REMARK  status: ('A' for Active; 'I' for Inactive)
REMARK    1  A    between atoms: N1_1  and  N2_4 
REMARK    2  A    between atoms: N2_4  and  N3_5 
REMARK    3  A    between atoms: N3_5  and  C1_7 
ROOT
HETATM    1  C1  UNL     1       8.705 -21.146  -4.966  1.00  0.00     0.087 A 
HETATM    2  C2  UNL     1       7.516 -21.798  -4.712  1.00  0.00     0.035 A 
HETATM    3  C3  UNL     1       7.042 -22.817  -5.490  1.00  0.00     0.028 A 
HETATM    4  C4  UNL     1       7.747 -23.246  -6.586  1.00  0.00     0.053 A 
HETATM    5 CL1  UNL     1       7.150 -24.559  -7.599  1.00  0.00    -0.083 Cl
HETATM    6  C5  UNL     1       8.948 -22.614  -6.873  1.00  0.00     0.057 A 
HETATM    7  C6  UNL     1       9.412 -21.592  -6.083  1.00  0.00     0.127 A 
HETATM    8  S1  UNL     1      10.906 -20.823  -6.463  1.00  0.00     0.269 S 
HETATM    9  O1  UNL     1      11.432 -20.022  -5.302  1.00  0.00    -0.200 OA
HETATM   10  O2  UNL     1      10.689 -19.922  -7.659  1.00  0.00    -0.200 OA
HETATM   11  N4  UNL     1      12.042 -22.028  -6.960  1.00  0.00    -0.240 N 
ATOM     12  H4  UNL     1      12.985 -22.067  -6.574  1.00  0.00     0.182 HD
HETATM   13  C7  UNL     1      11.594 -22.959  -7.933  1.00  0.00     0.298 C 
HETATM   14  O3  UNL     1      12.432 -23.654  -8.553  1.00  0.00    -0.259 OA
HETATM   15  S2  UNL     1       9.867 -23.188  -8.318  1.00  0.00    -0.025 SA
ENDROOT
BRANCH   1  16
HETATM   16  N3  UNL     1       9.189 -20.084  -4.146  1.00  0.00    -0.215 N 
ATOM     17  H3  UNL     1      10.017 -19.543  -4.397  1.00  0.00     0.204 HD
BRANCH  16  18
HETATM   18  N2  UNL     1       8.541 -19.852  -3.102  1.00  0.00    -0.243 NA
BRANCH  18  19
HETATM   19  N1  UNL     1       8.125 -19.497  -1.993  1.00  0.00    -0.260 N 
ATOM     20  H12 UNL     1       9.059 -19.195  -1.719  1.00  0.00     0.193 HD
ATOM     21  H11 UNL     1       7.587 -19.276  -1.156  1.00  0.00     0.193 HD
ENDBRANCH  18  19
ENDBRANCH  16  18
ENDBRANCH   1  16
TORSDOF 3
ENDMDL
MODEL 3
REMARK VINA RESULT: -6.549011439      1.912      2.038
REMARK  3 active torsions:
REMARK  status: ('A' for Active; 'I' for Inactive)
REMARK    1  A    between atoms: N1_1  and  N2_4 
REMARK    2  A    between atoms: N2_4  and  N3_5 
REMARK    3  A    between atoms: N3_5  and  C1_7 
ROOT
HETATM    1  C1  UNL     1       8.766 -22.789  -6.931  1.00  0.00     0.087 A 
HETATM    2  C2  UNL     1       7.438 -23.102  -6.727  1.00  0.00     0.035 A 
HETATM    3  C3  UNL     1       6.751 -23.989  -7.508  1.00  0.00     0.028 A 
HETATM    4  C4  UNL     1       7.370 -24.623  -8.556  1.00  0.00     0.053 A 
HETATM    5 CL1  UNL     1       6.498 -25.769  -9.572  1.00  0.00    -0.083 Cl
HETATM    6  C5  UNL     1       8.705 -24.334  -8.792  1.00  0.00     0.057 A 
HETATM    7  C6  UNL     1       9.383 -23.441  -7.999  1.00  0.00     0.127 A 
HETATM    8  S1  UNL     1      11.042 -23.099  -8.314  1.00  0.00     0.269 S 
HETATM    9  O1  UNL     1      11.704 -22.423  -7.144  1.00  0.00    -0.200 OA
HETATM   10  O2  UNL     1      11.123 -22.214  -9.538  1.00  0.00    -0.200 OA
HETATM   11  N4  UNL     1      11.846 -24.573  -8.726  1.00  0.00    -0.240 N 
ATOM     12  H4  UNL     1      12.728 -24.842  -8.289  1.00  0.00     0.182 HD
HETATM   13  C7  UNL     1      11.216 -25.389  -9.701  1.00  0.00     0.298 C 
HETATM   14  O3  UNL     1      11.872 -26.298 -10.261  1.00  0.00    -0.259 OA
HETATM   15  S2  UNL     1       9.509 -25.175 -10.173  1.00  0.00    -0.025 SA
ENDROOT
BRANCH   1  16
HETATM   16  N3  UNL     1       9.472 -21.862  -6.108  1.00  0.00    -0.215 N 
ATOM     17  H3  UNL     1      10.465 -21.669  -6.242  1.00  0.00     0.204 HD
BRANCH  16  18
HETATM   18  N2  UNL     1       8.805 -21.299  -5.213  1.00  0.00    -0.243 NA
BRANCH  18  19
HETATM   19  N1  UNL     1       8.293 -20.894  -4.163  1.00  0.00    -0.260 N 
ATOM     20  H12 UNL     1       7.585 -21.626  -4.204  1.00  0.00     0.193 HD
ATOM     21  H11 UNL     1       8.032 -20.409  -3.305  1.00  0.00     0.193 HD
ENDBRANCH  18  19
ENDBRANCH  16  18
ENDBRANCH   1  16
TORSDOF 3
ENDMDL
MODEL 4
REMARK VINA RESULT: -5.927816994      3.949      5.530
REMARK  3 active torsions:
REMARK  status: ('A' for Active; 'I' for Inactive)
REMARK    1  A    between atoms: N1_1  and  N2_4 
REMARK    2  A    between atoms: N2_4  and  N3_5 
REMARK    3  A    between atoms: N3_5  and  C1_7 
ROOT
HETATM    1  C1  UNL     1       8.028 -22.555  -6.010  1.00  0.00     0.087 A 
HETATM    2  C2  UNL     1       7.020 -22.549  -5.068  1.00  0.00     0.035 A 
HETATM    3  C3  UNL     1       6.997 -21.694  -4.002  1.00  0.00     0.028 A 
HETATM    4  C4  UNL     1       8.005 -20.781  -3.818  1.00  0.00     0.053 A 
HETATM    5 CL1  UNL     1       7.992 -19.671  -2.449  1.00  0.00    -0.083 Cl
HETATM    6  C5  UNL     1       9.037 -20.757  -4.744  1.00  0.00     0.057 A 
HETATM    7  C6  UNL     1       9.046 -21.622  -5.811  1.00  0.00     0.127 A 
HETATM    8  S1  UNL     1      10.340 -21.572  -6.946  1.00  0.00     0.269 S 
HETATM    9  O1  UNL     1       9.993 -22.295  -8.220  1.00  0.00    -0.200 OA
HETATM   10  O2  UNL     1      11.559 -22.201  -6.309  1.00  0.00    -0.200 OA
HETATM   11  N4  UNL     1      10.749 -19.921  -7.253  1.00  0.00    -0.240 N 
ATOM     12  H4  UNL     1      10.855 -19.562  -8.202  1.00  0.00     0.182 HD
HETATM   13  C7  UNL     1      10.929 -19.089  -6.117  1.00  0.00     0.298 C 
HETATM   14  O3  UNL     1      11.511 -17.988  -6.245  1.00  0.00    -0.259 OA
HETATM   15  S2  UNL     1      10.356 -19.551  -4.491  1.00  0.00    -0.025 SA
ENDROOT
BRANCH   1  16
HETATM   16  N3  UNL     1       8.039 -23.453  -7.118  1.00  0.00    -0.215 N 
ATOM     17  H3  UNL     1       8.896 -23.907  -7.436  1.00  0.00     0.204 HD
BRANCH  16  18
HETATM   18  N2  UNL     1       6.940 -23.652  -7.679  1.00  0.00    -0.243 NA
BRANCH  18  19
HETATM   19  N1  UNL     1       5.909 -23.620  -8.360  1.00  0.00    -0.260 N 
ATOM     20  H12 UNL     1       6.164 -22.707  -8.736  1.00  0.00     0.193 HD
ATOM     21  H11 UNL     1       5.020 -23.791  -8.831  1.00  0.00     0.193 HD
ENDBRANCH  18  19
ENDBRANCH  16  18
ENDBRANCH   1  16
TORSDOF 3
ENDMDL
MODEL 5
REMARK VINA RESULT: -5.786170812      1.493      1.659
REMARK  3 active torsions:
REMARK  status: ('A' for Active; 'I' for Inactive)
REMARK    1  A    between atoms: N1_1  and  N2_4 
REMARK    2  A    between atoms: N2_4  and  N3_5 
REMARK    3  A    between atoms: N3_5  and  C1_7 
ROOT
HETATM    1  C1  UNL     1       9.505 -23.486  -8.009  1.00  0.00     0.087 A 
HETATM    2  C2  UNL     1       8.643 -23.188  -6.974  1.00  0.00     0.035 A 
HETATM    3  C3  UNL     1       7.284 -23.280  -7.083  1.00  0.00     0.028 A 
HETATM    4  C4  UNL     1       6.703 -23.683  -8.259  1.00  0.00     0.053 A 
HETATM    5 CL1  UNL     1       4.952 -23.808  -8.416  1.00  0.00    -0.083 Cl
HETATM    6  C5  UNL     1       7.537 -23.992  -9.323  1.00  0.00     0.057 A 
HETATM    7  C6  UNL     1       8.902 -23.896  -9.198  1.00  0.00     0.127 A 
HETATM    8  S1  UNL     1       9.916 -24.284 -10.535  1.00  0.00     0.269 S 
HETATM    9  O1  UNL     1      11.344 -24.495 -10.109  1.00  0.00    -0.200 OA
HETATM   10  O2  UNL     1       9.835 -23.155 -11.539  1.00  0.00    -0.200 OA
HETATM   11  N4  UNL     1       9.283 -25.685 -11.326  1.00  0.00    -0.240 N 
ATOM     12  H4  UNL     1       9.877 -26.478 -11.567  1.00  0.00     0.182 HD
HETATM   13  C7  UNL     1       7.895 -25.674 -11.623  1.00  0.00     0.298 C 
HETATM   14  O3  UNL     1       7.434 -26.498 -12.446  1.00  0.00    -0.259 OA
HETATM   15  S2  UNL     1       6.761 -24.524 -10.864  1.00  0.00    -0.025 SA
ENDROOT
BRANCH   1  16
HETATM   16  N3  UNL     1      10.922 -23.385  -7.881  1.00  0.00    -0.215 N 
ATOM     17  H3  UNL     1      11.556 -23.945  -8.453  1.00  0.00     0.204 HD
BRANCH  16  18
HETATM   18  N2  UNL     1      11.345 -22.574  -7.030  1.00  0.00    -0.243 NA
BRANCH  18  19
HETATM   19  N1  UNL     1      11.996 -21.803  -6.316  1.00  0.00    -0.260 N 
ATOM     20  H12 UNL     1      11.665 -21.000  -6.849  1.00  0.00     0.193 HD
ATOM     21  H11 UNL     1      12.595 -21.354  -5.623  1.00  0.00     0.193 HD
ENDBRANCH  18  19
ENDBRANCH  16  18
ENDBRANCH   1  16
TORSDOF 3
ENDMDL
