MODEL 1
REMARK VINA RESULT: -7.288299269      0.000      0.000
REMARK  5 active torsions:
REMARK  status: ('A' for Active; 'I' for Inactive)
REMARK    1  A    between atoms: C4_5  and  O1_6 
REMARK    2  A    between atoms: O1_6  and  C5_7 
REMARK    3  A    between atoms: C5_7  and  C6_8 
REMARK    4  A    between atoms: C6_8  and  C7_9 
REMARK    5  A    between atoms: C7_9  and  C8_10 
ROOT
HETATM    1  C5  UNL     1       9.282 -23.602  -8.926  1.00  0.00     0.134 C 
HETATM    2  C10 UNL     1       7.794 -23.746  -8.963  1.00  0.00     0.079 C 
HETATM    3  C11 UNL     1       7.280 -25.132  -8.881  1.00  0.00     0.236 C 
HETATM    4  N3  UNL     1       8.075 -26.164  -9.448  1.00  0.00    -0.075 N 
ATOM      5  H31 UNL     1       7.506 -26.889  -9.885  1.00  0.00     0.277 HD
ATOM      6  H32 UNL     1       8.523 -26.738  -8.735  1.00  0.00     0.277 HD
HETATM    7  C12 UNL     1       9.032 -25.597 -10.368  1.00  0.00     0.236 C 
HETATM    8  C13 UNL     1      10.004 -24.802  -9.490  1.00  0.00     0.079 C 
ENDROOT
BRANCH   1   9
HETATM    9  O1  UNL     1       9.838 -23.268  -7.698  1.00  0.00    -0.327 OA
BRANCH   9  10
HETATM   10  C4  UNL     1       9.291 -22.536  -6.669  1.00  0.00     0.071 A 
HETATM   11  C3  UNL     1       8.168 -22.905  -5.956  1.00  0.00     0.040 A 
HETATM   12  C2  UNL     1       7.640 -22.135  -4.917  1.00  0.00     0.045 A 
HETATM   13  C1  UNL     1       8.251 -20.950  -4.569  1.00  0.00     0.116 A 
HETATM   14  F1  UNL     1       7.761 -20.184  -3.566  1.00  0.00    -0.206 F 
HETATM   15  C15 UNL     1       9.374 -20.551  -5.258  1.00  0.00     0.045 A 
HETATM   16  C14 UNL     1       9.879 -21.343  -6.296  1.00  0.00     0.040 A 
ENDBRANCH   9  10
ENDBRANCH   1   9
BRANCH   1  17
HETATM   17  C6  UNL     1       9.606 -22.465  -9.830  1.00  0.00    -0.060 C 
BRANCH  17  18
HETATM   18  C7  UNL     1       9.860 -21.555 -10.578  1.00  0.00    -0.037 C 
BRANCH  18  19
HETATM   19  C8  UNL     1      10.176 -20.474 -11.497  1.00  0.00     0.144 A 
HETATM   20  N1  UNL     1       9.661 -19.252 -11.545  1.00  0.00    -0.286 N 
HETATM   21  N2  UNL     1      10.056 -18.433 -12.420  1.00  0.00    -0.304 N 
ATOM     22  H1  UNL     1       8.944 -18.975 -10.874  1.00  0.00     0.188 HD
HETATM   23  C9  UNL     1      10.991 -18.796 -13.294  1.00  0.00     0.159 A 
ATOM     24  H2  UNL     1       9.660 -17.494 -12.456  1.00  0.00     0.186 HD
HETATM   25  S1  UNL     1      11.287 -20.411 -12.793  1.00  0.00    -0.055 SA
ENDBRANCH  18  19
ENDBRANCH  17  18
ENDBRANCH   1  17
TORSDOF 5
ENDMDL
MODEL 2
REMARK VINA RESULT: -7.177828704      3.835      5.013
REMARK  5 active torsions:
REMARK  status: ('A' for Active; 'I' for Inactive)
REMARK    1  A    between atoms: C4_5  and  O1_6 
REMARK    2  A    between atoms: O1_6  and  C5_7 
REMARK    3  A    between atoms: C5_7  and  C6_8 
REMARK    4  A    between atoms: C6_8  and  C7_9 
REMARK    5  A    between atoms: C7_9  and  C8_10 
ROOT
HETATM    1  C5  UNL     1      10.679 -24.385  -9.420  1.00  0.00     0.134 C 
HETATM    2  C10 UNL     1      10.749 -23.706 -10.750  1.00  0.00     0.079 C 
HETATM    3  C11 UNL     1      11.409 -24.475 -11.830  1.00  0.00     0.236 C 
HETATM    4  N3  UNL     1      12.460 -25.357 -11.464  1.00  0.00    -0.075 N 
ATOM      5  H31 UNL     1      13.203 -25.379 -12.162  1.00  0.00     0.277 HD
ATOM      6  H32 UNL     1      12.176 -26.335 -11.519  1.00  0.00     0.277 HD
HETATM    7  C12 UNL     1      12.957 -25.010 -10.154  1.00  0.00     0.236 C 
HETATM    8  C13 UNL     1      11.815 -25.352  -9.191  1.00  0.00     0.079 C 
ENDROOT
BRANCH   1   9
HETATM    9  O1  UNL     1       9.477 -25.008  -9.110  1.00  0.00    -0.327 OA
BRANCH   9  10
HETATM   10  C4  UNL     1       8.208 -24.477  -9.077  1.00  0.00     0.071 A 
HETATM   11  C3  UNL     1       7.437 -24.219 -10.194  1.00  0.00     0.040 A 
HETATM   12  C2  UNL     1       6.152 -23.679 -10.121  1.00  0.00     0.045 A 
HETATM   13  C1  UNL     1       5.606 -23.379  -8.891  1.00  0.00     0.116 A 
HETATM   14  F1  UNL     1       4.363 -22.854  -8.792  1.00  0.00    -0.206 F 
HETATM   15  C15 UNL     1       6.346 -23.623  -7.757  1.00  0.00     0.045 A 
HETATM   16  C14 UNL     1       7.632 -24.166  -7.860  1.00  0.00     0.040 A 
ENDBRANCH   9  10
ENDBRANCH   1   9
BRANCH   1  17
HETATM   17  C6  UNL     1      10.842 -23.311  -8.403  1.00  0.00    -0.060 C 
BRANCH  17  18
HETATM   18  C7  UNL     1      10.957 -22.431  -7.588  1.00  0.00    -0.037 C 
BRANCH  18  19
HETATM   19  C8  UNL     1      11.079 -21.354  -6.620  1.00  0.00     0.144 A 
HETATM   20  N1  UNL     1      12.184 -20.797  -6.137  1.00  0.00    -0.286 N 
HETATM   21  N2  UNL     1      12.104 -19.863  -5.293  1.00  0.00    -0.304 N 
ATOM     22  H1  UNL     1      13.097 -21.125  -6.450  1.00  0.00     0.188 HD
HETATM   23  C9  UNL     1      10.911 -19.436  -4.887  1.00  0.00     0.159 A 
ATOM     24  H2  UNL     1      12.952 -19.435  -4.923  1.00  0.00     0.186 HD
HETATM   25  S1  UNL     1       9.877 -20.463  -5.794  1.00  0.00    -0.055 SA
ENDBRANCH  18  19
ENDBRANCH  17  18
ENDBRANCH   1  17
TORSDOF 5
ENDMDL
MODEL 3
REMARK VINA RESULT: -7.163648272      0.994      1.263
REMARK  5 active torsions:
REMARK  status: ('A' for Active; 'I' for Inactive)
REMARK    1  A    between atoms: C4_5  and  O1_6 
REMARK    2  A    between atoms: O1_6  and  C5_7 
REMARK    3  A    between atoms: C5_7  and  C6_8 
REMARK    4  A    between atoms: C6_8  and  C7_9 
REMARK    5  A    between atoms: C7_9  and  C8_10 
ROOT
HETATM    1  C5  UNL     1       9.485 -23.777  -8.982  1.00  0.00     0.134 C 
HETATM    2  C10 UNL     1       8.000 -23.799  -8.809  1.00  0.00     0.079 C 
HETATM    3  C11 UNL     1       7.384 -25.142  -8.713  1.00  0.00     0.236 C 
HETATM    4  N3  UNL     1       7.997 -26.201  -9.434  1.00  0.00    -0.075 N 
ATOM      5  H31 UNL     1       7.311 -26.853  -9.815  1.00  0.00     0.277 HD
ATOM      6  H32 UNL     1       8.490 -26.848  -8.818  1.00  0.00     0.277 HD
HETATM    7  C12 UNL     1       8.861 -25.663 -10.457  1.00  0.00     0.236 C 
HETATM    8  C13 UNL     1      10.013 -24.998  -9.696  1.00  0.00     0.079 C 
ENDROOT
BRANCH   1   9
HETATM    9  O1  UNL     1      10.235 -23.557  -7.834  1.00  0.00    -0.327 OA
BRANCH   9  10
HETATM   10  C4  UNL     1      10.273 -22.446  -7.023  1.00  0.00     0.071 A 
HETATM   11  C3  UNL     1       9.205 -21.977  -6.285  1.00  0.00     0.040 A 
HETATM   12  C2  UNL     1       9.281 -20.844  -5.472  1.00  0.00     0.045 A 
HETATM   13  C1  UNL     1      10.466 -20.145  -5.387  1.00  0.00     0.116 A 
HETATM   14  F1  UNL     1      10.568 -19.043  -4.607  1.00  0.00    -0.206 F 
HETATM   15  C15 UNL     1      11.553 -20.584  -6.109  1.00  0.00     0.045 A 
HETATM   16  C14 UNL     1      11.446 -21.723  -6.915  1.00  0.00     0.040 A 
ENDBRANCH   9  10
ENDBRANCH   1   9
BRANCH   1  17
HETATM   17  C6  UNL     1       9.777 -22.622  -9.873  1.00  0.00    -0.060 C 
BRANCH  17  18
HETATM   18  C7  UNL     1       9.993 -21.688 -10.603  1.00  0.00    -0.037 C 
BRANCH  18  19
HETATM   19  C8  UNL     1      10.228 -20.559 -11.488  1.00  0.00     0.144 A 
HETATM   20  N1  UNL     1       9.705 -19.340 -11.430  1.00  0.00    -0.286 N 
HETATM   21  N2  UNL     1      10.023 -18.474 -12.290  1.00  0.00    -0.304 N 
ATOM     22  H1  UNL     1       9.046 -19.104 -10.689  1.00  0.00     0.188 HD
HETATM   23  C9  UNL     1      10.884 -18.784 -13.256  1.00  0.00     0.159 A 
ATOM     24  H2  UNL     1       9.622 -17.538 -12.245  1.00  0.00     0.186 HD
HETATM   25  S1  UNL     1      11.228 -20.420 -12.866  1.00  0.00    -0.055 SA
ENDBRANCH  18  19
ENDBRANCH  17  18
ENDBRANCH   1  17
TORSDOF 5
ENDMDL
MODEL 4
REMARK VINA RESULT: -6.831205885      1.795      2.039
REMARK  5 active torsions:
REMARK  status: ('A' for Active; 'I' for Inactive)
REMARK    1  A    between atoms: C4_5  and  O1_6 
REMARK    2  A    between atoms: O1_6  and  C5_7 
REMARK    3  A    between atoms: C5_7  and  C6_8 
REMARK    4  A    between atoms: C6_8  and  C7_9 
REMARK    5  A    between atoms: C7_9  and  C8_10 
ROOT
HETATM    1  C5  UNL     1       7.244 -23.903  -9.712  1.00  0.00     0.134 C 
HETATM    2  C10 UNL     1       5.891 -23.445  -9.267  1.00  0.00     0.079 C 
HETATM    3  C11 UNL     1       4.899 -24.517  -9.021  1.00  0.00     0.236 C 
HETATM    4  N3  UNL     1       4.990 -25.693  -9.813  1.00  0.00    -0.075 N 
ATOM      5  H31 UNL     1       4.071 -26.072 -10.042  1.00  0.00     0.277 HD
ATOM      6  H32 UNL     1       5.348 -26.486  -9.281  1.00  0.00     0.277 HD
HETATM    7  C12 UNL     1       5.779 -25.430 -10.993  1.00  0.00     0.236 C 
HETATM    8  C13 UNL     1       7.203 -25.204 -10.477  1.00  0.00     0.079 C 
ENDROOT
BRANCH   1   9
HETATM    9  O1  UNL     1       8.222 -23.978  -8.729  1.00  0.00    -0.327 OA
BRANCH   9  10
HETATM   10  C4  UNL     1       8.402 -23.182  -7.621  1.00  0.00     0.071 A 
HETATM   11  C3  UNL     1       7.618 -23.232  -6.486  1.00  0.00     0.040 A 
HETATM   12  C2  UNL     1       7.830 -22.407  -5.379  1.00  0.00     0.045 A 
HETATM   13  C1  UNL     1       8.862 -21.494  -5.398  1.00  0.00     0.116 A 
HETATM   14  F1  UNL     1       9.091 -20.682  -4.339  1.00  0.00    -0.206 F 
HETATM   15  C15 UNL     1       9.664 -21.417  -6.514  1.00  0.00     0.045 A 
HETATM   16  C14 UNL     1       9.427 -22.257  -7.608  1.00  0.00     0.040 A 
ENDBRANCH   9  10
ENDBRANCH   1   9
BRANCH   1  17
HETATM   17  C6  UNL     1       7.727 -22.875 -10.674  1.00  0.00    -0.060 C 
BRANCH  17  18
HETATM   18  C7  UNL     1       8.100 -22.034 -11.452  1.00  0.00    -0.037 C 
BRANCH  18  19
HETATM   19  C8  UNL     1       8.559 -21.006 -12.371  1.00  0.00     0.144 A 
HETATM   20  N1  UNL     1       8.757 -19.714 -12.134  1.00  0.00    -0.286 N 
HETATM   21  N2  UNL     1       9.162 -18.957 -13.059  1.00  0.00    -0.304 N 
ATOM     22  H1  UNL     1       8.581 -19.334 -11.205  1.00  0.00     0.188 HD
HETATM   23  C9  UNL     1       9.391 -19.455 -14.271  1.00  0.00     0.159 A 
ATOM     24  H2  UNL     1       9.314 -17.965 -12.877  1.00  0.00     0.186 HD
HETATM   25  S1  UNL     1       8.988 -21.105 -14.021  1.00  0.00    -0.055 SA
ENDBRANCH  18  19
ENDBRANCH  17  18
ENDBRANCH   1  17
TORSDOF 5
ENDMDL
MODEL 5
REMARK VINA RESULT: -6.823342330      2.747      3.086
REMARK  5 active torsions:
REMARK  status: ('A' for Active; 'I' for Inactive)
REMARK    1  A    between atoms: C4_5  and  O1_6 
REMARK    2  A    between atoms: O1_6  and  C5_7 
REMARK    3  A    between atoms: C5_7  and  C6_8 
REMARK    4  A    between atoms: C6_8  and  C7_9 
REMARK    5  A    between atoms: C7_9  and  C8_10 
ROOT
HETATM    1  C5  UNL     1       7.755 -24.180  -8.432  1.00  0.00     0.134 C 
HETATM    2  C10 UNL     1       6.858 -23.150  -9.040  1.00  0.00     0.079 C 
HETATM    3  C11 UNL     1       5.449 -23.563  -9.241  1.00  0.00     0.236 C 
HETATM    4  N3  UNL     1       5.198 -24.932  -9.522  1.00  0.00    -0.075 N 
ATOM      5  H31 UNL     1       4.431 -25.053 -10.184  1.00  0.00     0.277 HD
ATOM      6  H32 UNL     1       4.783 -25.417  -8.727  1.00  0.00     0.277 HD
HETATM    7  C12 UNL     1       6.411 -25.571  -9.974  1.00  0.00     0.236 C 
HETATM    8  C13 UNL     1       7.329 -25.594  -8.747  1.00  0.00     0.079 C 
ENDROOT
BRANCH   1   9
HETATM    9  O1  UNL     1       7.987 -24.064  -7.068  1.00  0.00    -0.327 OA
BRANCH   9  10
HETATM   10  C4  UNL     1       8.275 -22.940  -6.329  1.00  0.00     0.071 A 
HETATM   11  C3  UNL     1       9.366 -22.121  -6.542  1.00  0.00     0.040 A 
HETATM   12  C2  UNL     1       9.627 -20.986  -5.771  1.00  0.00     0.045 A 
HETATM   13  C1  UNL     1       8.771 -20.648  -4.744  1.00  0.00     0.116 A 
HETATM   14  F1  UNL     1       9.000 -19.555  -3.980  1.00  0.00    -0.206 F 
HETATM   15  C15 UNL     1       7.673 -21.442  -4.503  1.00  0.00     0.045 A 
HETATM   16  C14 UNL     1       7.437 -22.574  -5.293  1.00  0.00     0.040 A 
ENDBRANCH   9  10
ENDBRANCH   1   9
BRANCH   1  17
HETATM   17  C6  UNL     1       9.084 -23.998  -9.076  1.00  0.00    -0.060 C 
BRANCH  17  18
HETATM   18  C7  UNL     1      10.153 -23.830  -9.605  1.00  0.00    -0.037 C 
BRANCH  18  19
HETATM   19  C8  UNL     1      11.449 -23.608 -10.226  1.00  0.00     0.144 A 
HETATM   20  N1  UNL     1      12.656 -23.852  -9.730  1.00  0.00    -0.286 N 
HETATM   21  N2  UNL     1      13.684 -23.594 -10.414  1.00  0.00    -0.304 N 
ATOM     22  H1  UNL     1      12.752 -24.247  -8.795  1.00  0.00     0.188 HD
HETATM   23  C9  UNL     1      13.557 -23.079 -11.634  1.00  0.00     0.159 A 
ATOM     24  H2  UNL     1      14.612 -23.782 -10.033  1.00  0.00     0.186 HD
HETATM   25  S1  UNL     1      11.849 -22.975 -11.762  1.00  0.00    -0.055 SA
ENDBRANCH  18  19
ENDBRANCH  17  18
ENDBRANCH   1  17
TORSDOF 5
ENDMDL
