MODEL 1
REMARK VINA RESULT: -7.732312777      0.000      0.000
REMARK  1 active torsions:
REMARK  status: ('A' for Active; 'I' for Inactive)
REMARK       I    between atoms: C2_2  and  N1_4 
REMARK    1  A    between atoms: N1_4  and  C3_6 
ROOT
HETATM    1  C3  UNL     1       8.411 -23.447  -8.313  1.00  0.00     0.064 A 
HETATM    2  C4  UNL     1       9.093 -23.422  -9.494  1.00  0.00     0.008 A 
HETATM    3  C5  UNL     1       8.774 -24.199 -10.753  1.00  0.00     0.059 C 
HETATM    4  S1  UNL     1      10.368 -22.333  -9.242  1.00  0.00    -0.084 SA
HETATM    5  C6  UNL     1      10.011 -21.922  -7.627  1.00  0.00     0.066 A 
HETATM    6  S2  UNL     1      10.816 -20.822  -6.538  1.00  0.00    -0.039 SA
HETATM    7  C7  UNL     1      10.048 -20.210  -5.113  1.00  0.00     0.223 C 
HETATM    8  O2  UNL     1      10.691 -19.341  -4.497  1.00  0.00    -0.280 OA
HETATM    9  C8  UNL     1       8.822 -20.657  -4.703  1.00  0.00     0.038 C 
HETATM   10  C9  UNL     1       8.186 -19.719  -3.695  1.00  0.00     0.056 C 
HETATM   11  C10 UNL     1       8.108 -21.767  -5.034  1.00  0.00     0.177 C 
HETATM   12  F1  UNL     1       7.064 -22.038  -4.149  1.00  0.00    -0.201 F 
HETATM   13  C11 UNL     1       8.228 -22.638  -6.050  1.00  0.00     0.225 C 
HETATM   14  O3  UNL     1       7.578 -23.729  -5.814  1.00  0.00    -0.284 OA
HETATM   15  C12 UNL     1       8.880 -22.655  -7.301  1.00  0.00     0.069 A 
ENDROOT
BRANCH   1  16
HETATM   16  N1  UNL     1       7.227 -24.307  -8.179  1.00  0.00    -0.326 N 
HETATM   17  C2  UNL     1       6.006 -23.912  -8.745  1.00  0.00     0.218 C 
HETATM   18  C1  UNL     1       4.817 -24.770  -8.613  1.00  0.00     0.117 C 
HETATM   19  O1  UNL     1       5.934 -22.830  -9.360  1.00  0.00    -0.274 OA
ATOM     20  H1  UNL     1       7.293 -25.190  -7.673  1.00  0.00     0.169 HD
ENDBRANCH   1  16
TORSDOF 1
ENDMDL
MODEL 2
REMARK VINA RESULT: -7.662047373      1.299      1.395
REMARK  1 active torsions:
REMARK  status: ('A' for Active; 'I' for Inactive)
REMARK       I    between atoms: C2_2  and  N1_4 
REMARK    1  A    between atoms: N1_4  and  C3_6 
ROOT
HETATM    1  C3  UNL     1       8.213 -24.054  -8.529  1.00  0.00     0.064 A 
HETATM    2  C4  UNL     1       8.708 -24.581  -9.686  1.00  0.00     0.008 A 
HETATM    3  C5  UNL     1       7.970 -25.437 -10.692  1.00  0.00     0.059 C 
HETATM    4  S1  UNL     1      10.322 -24.064  -9.748  1.00  0.00    -0.084 SA
HETATM    5  C6  UNL     1      10.342 -23.179  -8.292  1.00  0.00     0.066 A 
HETATM    6  S2  UNL     1      11.628 -22.270  -7.542  1.00  0.00    -0.039 SA
HETATM    7  C7  UNL     1      11.326 -21.088  -6.315  1.00  0.00     0.223 C 
HETATM    8  O2  UNL     1      12.320 -20.429  -5.958  1.00  0.00    -0.280 OA
HETATM    9  C8  UNL     1      10.080 -20.900  -5.783  1.00  0.00     0.038 C 
HETATM   10  C9  UNL     1       9.974 -19.578  -5.045  1.00  0.00     0.056 C 
HETATM   11  C10 UNL     1       8.964 -21.676  -5.800  1.00  0.00     0.177 C 
HETATM   12  F1  UNL     1       8.008 -21.293  -4.859  1.00  0.00    -0.201 F 
HETATM   13  C11 UNL     1       8.621 -22.734  -6.555  1.00  0.00     0.225 C 
HETATM   14  O3  UNL     1       7.638 -23.388  -6.030  1.00  0.00    -0.284 OA
HETATM   15  C12 UNL     1       9.065 -23.303  -7.767  1.00  0.00     0.069 A 
ENDROOT
BRANCH   1  16
HETATM   16  N1  UNL     1       6.816 -24.313  -8.155  1.00  0.00    -0.326 N 
HETATM   17  C2  UNL     1       5.777 -23.633  -8.808  1.00  0.00     0.218 C 
HETATM   18  C1  UNL     1       4.376 -23.889  -8.438  1.00  0.00     0.117 C 
HETATM   19  O1  UNL     1       6.049 -22.810  -9.704  1.00  0.00    -0.274 OA
ATOM     20  H1  UNL     1       6.601 -24.988  -7.421  1.00  0.00     0.169 HD
ENDBRANCH   1  16
TORSDOF 1
ENDMDL
MODEL 3
REMARK VINA RESULT: -7.446146718      3.531      6.369
REMARK  1 active torsions:
REMARK  status: ('A' for Active; 'I' for Inactive)
REMARK       I    between atoms: C2_2  and  N1_4 
REMARK    1  A    between atoms: N1_4  and  C3_6 
ROOT
HETATM    1  C3  UNL     1       9.758 -22.853  -7.103  1.00  0.00     0.064 A 
HETATM    2  C4  UNL     1       8.475 -22.883  -6.640  1.00  0.00     0.008 A 
HETATM    3  C5  UNL     1       7.948 -22.273  -5.360  1.00  0.00     0.059 C 
HETATM    4  S1  UNL     1       7.607 -23.748  -7.813  1.00  0.00    -0.084 SA
HETATM    5  C6  UNL     1       8.898 -24.058  -8.881  1.00  0.00     0.066 A 
HETATM    6  S2  UNL     1       8.922 -24.903 -10.407  1.00  0.00    -0.039 SA
HETATM    7  C7  UNL     1      10.218 -24.723 -11.539  1.00  0.00     0.223 C 
HETATM    8  O2  UNL     1      10.045 -25.286 -12.636  1.00  0.00    -0.280 OA
HETATM    9  C8  UNL     1      11.347 -24.011 -11.240  1.00  0.00     0.038 C 
HETATM   10  C9  UNL     1      12.138 -23.655 -12.485  1.00  0.00     0.056 C 
HETATM   11  C10 UNL     1      11.860 -23.588 -10.054  1.00  0.00     0.177 C 
HETATM   12  F1  UNL     1      13.195 -23.192 -10.138  1.00  0.00    -0.201 F 
HETATM   13  C11 UNL     1      11.316 -23.485  -8.829  1.00  0.00     0.225 C 
HETATM   14  O3  UNL     1      12.225 -23.369  -7.919  1.00  0.00    -0.284 OA
HETATM   15  C12 UNL     1      10.010 -23.472  -8.296  1.00  0.00     0.069 A 
ENDROOT
BRANCH   1  16
HETATM   16  N1  UNL     1      10.795 -22.173  -6.315  1.00  0.00    -0.326 N 
HETATM   17  C2  UNL     1      11.001 -20.793  -6.469  1.00  0.00     0.218 C 
HETATM   18  C1  UNL     1      12.039 -20.108  -5.682  1.00  0.00     0.117 C 
HETATM   19  O1  UNL     1      10.300 -20.153  -7.277  1.00  0.00    -0.274 OA
ATOM     20  H1  UNL     1      11.366 -22.703  -5.656  1.00  0.00     0.169 HD
ENDBRANCH   1  16
TORSDOF 1
ENDMDL
MODEL 4
REMARK VINA RESULT: -6.993146559      2.277      2.928
REMARK  1 active torsions:
REMARK  status: ('A' for Active; 'I' for Inactive)
REMARK       I    between atoms: C2_2  and  N1_4 
REMARK    1  A    between atoms: N1_4  and  C3_6 
ROOT
HETATM    1  C3  UNL     1       6.859 -24.456  -9.021  1.00  0.00     0.064 A 
HETATM    2  C4  UNL     1       6.878 -25.255 -10.127  1.00  0.00     0.008 A 
HETATM    3  C5  UNL     1       5.687 -25.795 -10.888  1.00  0.00     0.059 C 
HETATM    4  S1  UNL     1       8.522 -25.503 -10.460  1.00  0.00    -0.084 SA
HETATM    5  C6  UNL     1       9.164 -24.580  -9.179  1.00  0.00     0.066 A 
HETATM    6  S2  UNL     1      10.821 -24.257  -8.742  1.00  0.00    -0.039 SA
HETATM    7  C7  UNL     1      11.259 -22.949  -7.697  1.00  0.00     0.223 C 
HETATM    8  O2  UNL     1      12.483 -22.759  -7.570  1.00  0.00    -0.280 OA
HETATM    9  C8  UNL     1      10.320 -22.185  -7.061  1.00  0.00     0.038 C 
HETATM   10  C9  UNL     1      10.905 -20.885  -6.541  1.00  0.00     0.056 C 
HETATM   11  C10 UNL     1       8.997 -22.394  -6.822  1.00  0.00     0.177 C 
HETATM   12  F1  UNL     1       8.469 -21.543  -5.850  1.00  0.00    -0.201 F 
HETATM   13  C11 UNL     1       8.119 -23.263  -7.349  1.00  0.00     0.225 C 
HETATM   14  O3  UNL     1       7.061 -23.368  -6.615  1.00  0.00    -0.284 OA
HETATM   15  C12 UNL     1       8.065 -24.082  -8.497  1.00  0.00     0.069 A 
ENDROOT
BRANCH   1  16
HETATM   16  N1  UNL     1       5.570 -24.041  -8.450  1.00  0.00    -0.326 N 
HETATM   17  C2  UNL     1       4.873 -22.958  -9.006  1.00  0.00     0.218 C 
HETATM   18  C1  UNL     1       3.581 -22.539  -8.437  1.00  0.00     0.117 C 
HETATM   19  O1  UNL     1       5.355 -22.352  -9.983  1.00  0.00    -0.274 OA
ATOM     20  H1  UNL     1       5.182 -24.541  -7.650  1.00  0.00     0.169 HD
ENDBRANCH   1  16
TORSDOF 1
ENDMDL
MODEL 5
REMARK VINA RESULT: -6.591483457      2.887      3.792
REMARK  1 active torsions:
REMARK  status: ('A' for Active; 'I' for Inactive)
REMARK       I    between atoms: C2_2  and  N1_4 
REMARK    1  A    between atoms: N1_4  and  C3_6 
ROOT
HETATM    1  C3  UNL     1       9.182 -22.937  -8.085  1.00  0.00     0.064 A 
HETATM    2  C4  UNL     1       8.281 -23.961  -8.078  1.00  0.00     0.008 A 
HETATM    3  C5  UNL     1       8.153 -25.076  -9.092  1.00  0.00     0.059 C 
HETATM    4  S1  UNL     1       7.345 -23.711  -6.686  1.00  0.00    -0.084 SA
HETATM    5  C6  UNL     1       8.121 -22.299  -6.131  1.00  0.00     0.066 A 
HETATM    6  S2  UNL     1       7.816 -21.327  -4.714  1.00  0.00    -0.039 SA
HETATM    7  C7  UNL     1       8.983 -20.210  -4.096  1.00  0.00     0.223 C 
HETATM    8  O2  UNL     1       8.683 -19.676  -3.012  1.00  0.00    -0.280 OA
HETATM    9  C8  UNL     1      10.149 -19.940  -4.759  1.00  0.00     0.038 C 
HETATM   10  C9  UNL     1      11.169 -19.266  -3.860  1.00  0.00     0.056 C 
HETATM   11  C10 UNL     1      10.529 -20.164  -6.046  1.00  0.00     0.177 C 
HETATM   12  F1  UNL     1      11.660 -19.439  -6.423  1.00  0.00    -0.201 F 
HETATM   13  C11 UNL     1      10.014 -20.949  -7.007  1.00  0.00     0.225 C 
HETATM   14  O3  UNL     1      10.459 -20.618  -8.174  1.00  0.00    -0.284 OA
HETATM   15  C12 UNL     1       9.117 -22.037  -7.057  1.00  0.00     0.069 A 
ENDROOT
BRANCH   1  16
HETATM   16  N1  UNL     1      10.163 -22.844  -9.176  1.00  0.00    -0.326 N 
HETATM   17  C2  UNL     1      11.332 -23.617  -9.135  1.00  0.00     0.218 C 
HETATM   18  C1  UNL     1      12.317 -23.527 -10.226  1.00  0.00     0.117 C 
HETATM   19  O1  UNL     1      11.532 -24.380  -8.170  1.00  0.00    -0.274 OA
ATOM     20  H1  UNL     1       9.993 -22.217  -9.962  1.00  0.00     0.169 HD
ENDBRANCH   1  16
TORSDOF 1
ENDMDL
