MODEL 1
REMARK VINA RESULT: -5.290680648      0.000      0.000
REMARK  3 active torsions:
REMARK  status: ('A' for Active; 'I' for Inactive)
REMARK    1  A    between atoms: C2_2  and  N1_3 
REMARK    2  A    between atoms: C3_6  and  N3_7 
REMARK       I    between atoms: N3_7  and  C4_9 
REMARK    3  A    between atoms: C4_9  and  O2_11 
ROOT
HETATM    1  N1  UNL     1      -1.587  11.531  -5.144  1.00  0.00    -0.274 N 
HETATM    2  N2  UNL     1      -1.074  10.424  -5.541  1.00  0.00    -0.276 N 
ATOM      3  H2  UNL     1      -1.205   9.568  -5.002  1.00  0.00     0.189 HD
HETATM    4  C3  UNL     1      -0.366  10.413  -6.669  1.00  0.00     0.170 A 
HETATM    5  S1  UNL     1      -0.446  12.043  -7.167  1.00  0.00    -0.021 SA
HETATM    6  C6  UNL     1      -1.393  12.629  -5.875  1.00  0.00     0.163 A 
HETATM    7  S2  UNL     1      -1.923  14.162  -5.614  1.00  0.00    -0.051 SA
ENDROOT
BRANCH   4   8
HETATM    8  N3  UNL     1       0.235   9.392  -7.240  1.00  0.00    -0.281 N 
HETATM    9  C4  UNL     1      -0.195   8.077  -6.908  1.00  0.00     0.366 C 
HETATM   10  O1  UNL     1      -0.791   7.374  -7.734  1.00  0.00    -0.238 OA
ATOM     11  H3  UNL     1       0.993   9.540  -7.906  1.00  0.00     0.173 HD
BRANCH   9  12
HETATM   12  O2  UNL     1       0.064   7.593  -5.642  1.00  0.00    -0.309 OA
HETATM   13  C5  UNL     1       0.683   6.320  -5.507  1.00  0.00     0.215 C 
ENDBRANCH   9  12
ENDBRANCH   4   8
BRANCH   1  14
HETATM   14  C2  UNL     1      -2.390  11.622  -3.889  1.00  0.00     0.146 C 
HETATM   15  C1  UNL     1      -2.990  10.305  -3.525  1.00  0.00     0.028 C 
ENDBRANCH   1  14
TORSDOF 3
ENDMDL
MODEL 2
REMARK VINA RESULT: -5.250390360      1.564      1.877
REMARK  3 active torsions:
REMARK  status: ('A' for Active; 'I' for Inactive)
REMARK    1  A    between atoms: C2_2  and  N1_3 
REMARK    2  A    between atoms: C3_6  and  N3_7 
REMARK       I    between atoms: N3_7  and  C4_9 
REMARK    3  A    between atoms: C4_9  and  O2_11 
ROOT
HETATM    1  N1  UNL     1      -1.374  10.863  -5.131  1.00  0.00    -0.274 N 
HETATM    2  N2  UNL     1      -1.267   9.587  -5.047  1.00  0.00    -0.276 N 
ATOM      3  H2  UNL     1      -1.828   9.062  -4.376  1.00  0.00     0.189 HD
HETATM    4  C3  UNL     1      -0.409   8.961  -5.851  1.00  0.00     0.170 A 
HETATM    5  S1  UNL     1       0.257  10.249  -6.750  1.00  0.00    -0.021 SA
HETATM    6  C6  UNL     1      -0.623  11.515  -6.019  1.00  0.00     0.163 A 
HETATM    7  S2  UNL     1      -0.551  13.124  -6.342  1.00  0.00    -0.051 SA
ENDROOT
BRANCH   4   8
HETATM    8  N3  UNL     1      -0.155   7.672  -5.920  1.00  0.00    -0.281 N 
HETATM    9  C4  UNL     1       0.057   7.089  -7.201  1.00  0.00     0.366 C 
HETATM   10  O1  UNL     1       1.176   6.683  -7.539  1.00  0.00    -0.238 OA
ATOM     11  H3  UNL     1      -0.110   7.104  -5.075  1.00  0.00     0.173 HD
BRANCH   9  12
HETATM   12  O2  UNL     1      -1.012   6.981  -8.067  1.00  0.00    -0.309 OA
HETATM   13  C5  UNL     1      -1.334   5.704  -8.604  1.00  0.00     0.215 C 
ENDBRANCH   9  12
ENDBRANCH   4   8
BRANCH   1  14
HETATM   14  C2  UNL     1      -2.311  11.634  -4.262  1.00  0.00     0.146 C 
HETATM   15  C1  UNL     1      -2.873  10.784  -3.172  1.00  0.00     0.028 C 
ENDBRANCH   1  14
TORSDOF 3
ENDMDL
MODEL 3
REMARK VINA RESULT: -5.130478504      3.083      3.899
REMARK  3 active torsions:
REMARK  status: ('A' for Active; 'I' for Inactive)
REMARK    1  A    between atoms: C2_2  and  N1_3 
REMARK    2  A    between atoms: C3_6  and  N3_7 
REMARK       I    between atoms: N3_7  and  C4_9 
REMARK    3  A    between atoms: C4_9  and  O2_11 
ROOT
HETATM    1  N1  UNL     1      -1.323  11.994  -6.166  1.00  0.00    -0.274 N 
HETATM    2  N2  UNL     1      -0.486  11.780  -7.115  1.00  0.00    -0.276 N 
ATOM      3  H2  UNL     1      -0.312  12.493  -7.824  1.00  0.00     0.189 HD
HETATM    4  C3  UNL     1       0.150  10.612  -7.159  1.00  0.00     0.170 A 
HETATM    5  S1  UNL     1      -0.477   9.803  -5.794  1.00  0.00    -0.021 SA
HETATM    6  C6  UNL     1      -1.525  11.038  -5.260  1.00  0.00     0.163 A 
HETATM    7  S2  UNL     1      -2.522  11.033  -3.954  1.00  0.00    -0.051 SA
ENDROOT
BRANCH   4   8
HETATM    8  N3  UNL     1       1.037  10.202  -8.040  1.00  0.00    -0.281 N 
HETATM    9  C4  UNL     1       1.714  11.177  -8.827  1.00  0.00     0.366 C 
HETATM   10  O1  UNL     1       2.919  11.403  -8.662  1.00  0.00    -0.238 OA
ATOM     11  H3  UNL     1       1.235   9.209  -8.157  1.00  0.00     0.173 HD
BRANCH   9  12
HETATM   12  O2  UNL     1       1.001  11.870  -9.783  1.00  0.00    -0.309 OA
HETATM   13  C5  UNL     1       0.377  11.145 -10.834  1.00  0.00     0.215 C 
ENDBRANCH   9  12
ENDBRANCH   4   8
BRANCH   1  14
HETATM   14  C2  UNL     1      -2.075  13.278  -6.053  1.00  0.00     0.146 C 
HETATM   15  C1  UNL     1      -1.242  14.349  -5.432  1.00  0.00     0.028 C 
ENDBRANCH   1  14
TORSDOF 3
ENDMDL
MODEL 4
REMARK VINA RESULT: -4.974808269      3.094      3.793
REMARK  3 active torsions:
REMARK  status: ('A' for Active; 'I' for Inactive)
REMARK    1  A    between atoms: C2_2  and  N1_3 
REMARK    2  A    between atoms: C3_6  and  N3_7 
REMARK       I    between atoms: N3_7  and  C4_9 
REMARK    3  A    between atoms: C4_9  and  O2_11 
ROOT
HETATM    1  N1  UNL     1      -0.315  10.508  -6.020  1.00  0.00    -0.274 N 
HETATM    2  N2  UNL     1       0.622  10.764  -6.859  1.00  0.00    -0.276 N 
ATOM      3  H2  UNL     1       1.195  10.012  -7.243  1.00  0.00     0.189 HD
HETATM    4  C3  UNL     1       0.834  12.029  -7.218  1.00  0.00     0.170 A 
HETATM    5  S1  UNL     1      -0.352  12.867  -6.322  1.00  0.00    -0.021 SA
HETATM    6  C6  UNL     1      -1.042  11.517  -5.540  1.00  0.00     0.163 A 
HETATM    7  S2  UNL     1      -2.287  11.487  -4.470  1.00  0.00    -0.051 SA
ENDROOT
BRANCH   4   8
HETATM    8  N3  UNL     1       1.735  12.495  -8.056  1.00  0.00    -0.281 N 
HETATM    9  C4  UNL     1       2.073  11.712  -9.196  1.00  0.00     0.366 C 
HETATM   10  O1  UNL     1       1.750  12.074 -10.334  1.00  0.00    -0.238 OA
ATOM     11  H3  UNL     1       2.182  13.397  -7.891  1.00  0.00     0.173 HD
BRANCH   9  12
HETATM   12  O2  UNL     1       2.771  10.536  -9.012  1.00  0.00    -0.309 OA
HETATM   13  C5  UNL     1       2.382   9.385  -9.749  1.00  0.00     0.215 C 
ENDBRANCH   9  12
ENDBRANCH   4   8
BRANCH   1  14
HETATM   14  C2  UNL     1      -0.610   9.117  -5.569  1.00  0.00     0.146 C 
HETATM   15  C1  UNL     1      -0.295   8.116  -6.632  1.00  0.00     0.028 C 
ENDBRANCH   1  14
TORSDOF 3
ENDMDL
MODEL 5
REMARK VINA RESULT: -4.894896754      2.151      2.743
REMARK  3 active torsions:
REMARK  status: ('A' for Active; 'I' for Inactive)
REMARK    1  A    between atoms: C2_2  and  N1_3 
REMARK    2  A    between atoms: C3_6  and  N3_7 
REMARK       I    between atoms: N3_7  and  C4_9 
REMARK    3  A    between atoms: C4_9  and  O2_11 
ROOT
HETATM    1  N1  UNL     1      -1.352  11.960  -6.168  1.00  0.00    -0.274 N 
HETATM    2  N2  UNL     1      -0.558  11.709  -7.144  1.00  0.00    -0.276 N 
ATOM      3  H2  UNL     1      -0.396  12.404  -7.873  1.00  0.00     0.189 HD
HETATM    4  C3  UNL     1       0.050  10.525  -7.190  1.00  0.00     0.170 A 
HETATM    5  S1  UNL     1      -0.541   9.757  -5.785  1.00  0.00    -0.021 SA
HETATM    6  C6  UNL     1      -1.539  11.026  -5.235  1.00  0.00     0.163 A 
HETATM    7  S2  UNL     1      -2.484  11.069  -3.892  1.00  0.00    -0.051 SA
ENDROOT
BRANCH   4   8
HETATM    8  N3  UNL     1       0.891  10.079  -8.097  1.00  0.00    -0.281 N 
HETATM    9  C4  UNL     1       0.410   9.171  -9.083  1.00  0.00     0.366 C 
HETATM   10  O1  UNL     1       0.304   9.515 -10.266  1.00  0.00    -0.238 OA
ATOM     11  H3  UNL     1       1.867  10.376  -8.094  1.00  0.00     0.173 HD
BRANCH   9  12
HETATM   12  O2  UNL     1       0.063   7.893  -8.696  1.00  0.00    -0.309 OA
HETATM   13  C5  UNL     1       1.091   6.990  -8.310  1.00  0.00     0.215 C 
ENDBRANCH   9  12
ENDBRANCH   4   8
BRANCH   1  14
HETATM   14  C2  UNL     1      -2.070  13.262  -6.051  1.00  0.00     0.146 C 
HETATM   15  C1  UNL     1      -1.194  14.322  -5.470  1.00  0.00     0.028 C 
ENDBRANCH   1  14
TORSDOF 3
ENDMDL
