MODEL 1
REMARK VINA RESULT: -5.387050860      0.000      0.000
REMARK  2 active torsions:
REMARK  status: ('A' for Active; 'I' for Inactive)
REMARK    1  A    between atoms: C2_2  and  C3_3 
REMARK    2  A    between atoms: C5_5  and  O1_6 
ROOT
HETATM    1  C3  UNL     1       0.291  10.959  -8.057  1.00  0.00     0.021 A 
HETATM    2  C4  UNL     1       0.155   9.635  -7.254  1.00  0.00     0.021 C 
HETATM    3  C5  UNL     1       1.732  11.298  -8.145  1.00  0.00     0.169 A 
HETATM    4  C6  UNL     1       1.754  10.916  -9.600  1.00  0.00     0.198 A 
HETATM    5  C7  UNL     1       2.084  12.007 -10.528  1.00  0.00     0.090 C 
HETATM    6  N1  UNL     1       2.349  12.866 -11.261  1.00  0.00    -0.195 NA
HETATM    7  C8  UNL     1       2.484   9.716  -9.924  1.00  0.00     0.090 C 
HETATM    8  N2  UNL     1       3.073   8.764 -10.176  1.00  0.00    -0.195 NA
HETATM    9  C9  UNL     1       0.261  10.612  -9.497  1.00  0.00     0.183 A 
HETATM   10  C10 UNL     1      -0.040   9.187  -9.789  1.00  0.00     0.088 C 
HETATM   11  N3  UNL     1      -0.279   8.074  -9.997  1.00  0.00    -0.195 NA
HETATM   12  C11 UNL     1      -0.456  11.431 -10.431  1.00  0.00     0.088 C 
HETATM   13  N4  UNL     1      -1.033  12.075 -11.207  1.00  0.00    -0.195 NA
ENDROOT
BRANCH   3  14
HETATM   14  O1  UNL     1       2.095  12.621  -7.978  1.00  0.00    -0.392 OA
ATOM     15  H1  UNL     1       2.744  12.981  -8.572  1.00  0.00     0.210 HD
ENDBRANCH   3  14
BRANCH   1  16
HETATM   16  C2  UNL     1      -0.687  11.902  -7.529  1.00  0.00     0.010 C 
HETATM   17  C1  UNL     1      -1.257  11.749  -6.182  1.00  0.00     0.006 C 
ENDBRANCH   1  16
TORSDOF 2
ENDMDL
MODEL 2
REMARK VINA RESULT: -4.958089562      2.747      4.740
REMARK  2 active torsions:
REMARK  status: ('A' for Active; 'I' for Inactive)
REMARK    1  A    between atoms: C2_2  and  C3_3 
REMARK    2  A    between atoms: C5_5  and  O1_6 
ROOT
HETATM    1  C3  UNL     1      -0.032   7.337 -10.385  1.00  0.00     0.021 A 
HETATM    2  C4  UNL     1      -1.352   6.779  -9.783  1.00  0.00     0.021 C 
HETATM    3  C5  UNL     1      -0.112   8.818 -10.374  1.00  0.00     0.169 A 
HETATM    4  C6  UNL     1       0.880   8.884  -9.246  1.00  0.00     0.198 A 
HETATM    5  C7  UNL     1       2.137   9.580  -9.557  1.00  0.00     0.090 C 
HETATM    6  N1  UNL     1       3.127  10.133  -9.800  1.00  0.00    -0.195 NA
HETATM    7  C8  UNL     1       0.354   9.302  -7.970  1.00  0.00     0.090 C 
HETATM    8  N2  UNL     1      -0.071   9.643  -6.960  1.00  0.00    -0.195 NA
HETATM    9  C9  UNL     1       0.978   7.361  -9.301  1.00  0.00     0.183 A 
HETATM   10  C10 UNL     1       0.543   6.727  -8.029  1.00  0.00     0.088 C 
HETATM   11  N3  UNL     1       0.187   6.227  -7.048  1.00  0.00    -0.195 NA
HETATM   12  C11 UNL     1       2.336   6.981  -9.559  1.00  0.00     0.088 C 
HETATM   13  N4  UNL     1       3.442   6.675  -9.741  1.00  0.00    -0.195 NA
ENDROOT
BRANCH   3  14
HETATM   14  O1  UNL     1       0.358   9.497 -11.482  1.00  0.00    -0.392 OA
ATOM     15  H1  UNL     1       1.122   9.146 -11.927  1.00  0.00     0.210 HD
ENDBRANCH   3  14
BRANCH   1  16
HETATM   16  C2  UNL     1       0.249   6.593 -11.605  1.00  0.00     0.010 C 
HETATM   17  C1  UNL     1      -0.496   5.374 -11.955  1.00  0.00     0.006 C 
ENDBRANCH   1  16
TORSDOF 2
ENDMDL
MODEL 3
REMARK VINA RESULT: -4.942451176      2.096      3.836
REMARK  2 active torsions:
REMARK  status: ('A' for Active; 'I' for Inactive)
REMARK    1  A    between atoms: C2_2  and  C3_3 
REMARK    2  A    between atoms: C5_5  and  O1_6 
ROOT
HETATM    1  C3  UNL     1       0.918  10.663 -10.834  1.00  0.00     0.021 A 
HETATM    2  C4  UNL     1       0.787   9.376 -11.695  1.00  0.00     0.021 C 
HETATM    3  C5  UNL     1      -0.263  10.742  -9.941  1.00  0.00     0.169 A 
HETATM    4  C6  UNL     1       0.584  10.379  -8.753  1.00  0.00     0.198 A 
HETATM    5  C7  UNL     1       0.662  11.404  -7.703  1.00  0.00     0.090 C 
HETATM    6  N1  UNL     1       0.720  12.211  -6.871  1.00  0.00    -0.195 NA
HETATM    7  C8  UNL     1       0.352   9.072  -8.191  1.00  0.00     0.090 C 
HETATM    8  N2  UNL     1       0.156   8.033  -7.744  1.00  0.00    -0.195 NA
HETATM    9  C9  UNL     1       1.795  10.343  -9.683  1.00  0.00     0.183 A 
HETATM   10  C10 UNL     1       2.423   8.997  -9.733  1.00  0.00     0.088 C 
HETATM   11  N3  UNL     1       2.904   7.947  -9.790  1.00  0.00    -0.195 NA
HETATM   12  C11 UNL     1       2.773  11.287  -9.226  1.00  0.00     0.088 C 
HETATM   13  N4  UNL     1       3.576  12.032  -8.839  1.00  0.00    -0.195 NA
ENDROOT
BRANCH   3  14
HETATM   14  O1  UNL     1      -0.856  11.977  -9.763  1.00  0.00    -0.392 OA
ATOM     15  H1  UNL     1      -1.490  12.263 -10.412  1.00  0.00     0.210 HD
ENDBRANCH   3  14
BRANCH   1  16
HETATM   16  C2  UNL     1       1.280  11.758 -11.724  1.00  0.00     0.010 C 
HETATM   17  C1  UNL     1       0.604  11.959 -13.015  1.00  0.00     0.006 C 
ENDBRANCH   1  16
TORSDOF 2
ENDMDL
MODEL 4
REMARK VINA RESULT: -4.914359328      2.098      3.263
REMARK  2 active torsions:
REMARK  status: ('A' for Active; 'I' for Inactive)
REMARK    1  A    between atoms: C2_2  and  C3_3 
REMARK    2  A    between atoms: C5_5  and  O1_6 
ROOT
HETATM    1  C3  UNL     1       0.477   9.289  -9.886  1.00  0.00     0.021 A 
HETATM    2  C4  UNL     1      -0.474   8.848 -11.035  1.00  0.00     0.021 C 
HETATM    3  C5  UNL     1       1.851   9.378 -10.435  1.00  0.00     0.169 A 
HETATM    4  C6  UNL     1       1.797  10.880 -10.385  1.00  0.00     0.198 A 
HETATM    5  C7  UNL     1       2.783  11.513  -9.498  1.00  0.00     0.090 C 
HETATM    6  N1  UNL     1       3.565  12.014  -8.803  1.00  0.00    -0.195 NA
HETATM    7  C8  UNL     1       1.735  11.549 -11.660  1.00  0.00     0.090 C 
HETATM    8  N2  UNL     1       1.693  12.075 -12.679  1.00  0.00    -0.195 NA
HETATM    9  C9  UNL     1       0.398  10.765  -9.783  1.00  0.00     0.183 A 
HETATM   10  C10 UNL     1      -0.635  11.396 -10.645  1.00  0.00     0.088 C 
HETATM   11  N3  UNL     1      -1.446  11.870 -11.321  1.00  0.00    -0.195 NA
HETATM   12  C11 UNL     1       0.378  11.407  -8.501  1.00  0.00     0.088 C 
HETATM   13  N4  UNL     1       0.356  11.951  -7.475  1.00  0.00    -0.195 NA
ENDROOT
BRANCH   3  14
HETATM   14  O1  UNL     1       2.888   8.897  -9.657  1.00  0.00    -0.392 OA
ATOM     15  H1  UNL     1       3.061   7.963  -9.677  1.00  0.00     0.210 HD
ENDBRANCH   3  14
BRANCH   1  16
HETATM   16  C2  UNL     1       0.169   8.474  -8.718  1.00  0.00     0.010 C 
HETATM   17  C1  UNL     1      -0.572   7.208  -8.834  1.00  0.00     0.006 C 
ENDBRANCH   1  16
TORSDOF 2
ENDMDL
MODEL 5
REMARK VINA RESULT: -4.883537758      1.108      1.192
REMARK  2 active torsions:
REMARK  status: ('A' for Active; 'I' for Inactive)
REMARK    1  A    between atoms: C2_2  and  C3_3 
REMARK    2  A    between atoms: C5_5  and  O1_6 
ROOT
HETATM    1  C3  UNL     1       0.725   9.981  -8.623  1.00  0.00     0.021 A 
HETATM    2  C4  UNL     1       0.539   8.489  -8.230  1.00  0.00     0.021 C 
HETATM    3  C5  UNL     1       2.159  10.202  -8.928  1.00  0.00     0.169 A 
HETATM    4  C6  UNL     1       1.853  10.299 -10.398  1.00  0.00     0.198 A 
HETATM    5  C7  UNL     1       2.168  11.594 -11.018  1.00  0.00     0.090 C 
HETATM    6  N1  UNL     1       2.421  12.614 -11.510  1.00  0.00    -0.195 NA
HETATM    7  C8  UNL     1       2.318   9.204 -11.211  1.00  0.00     0.090 C 
HETATM    8  N2  UNL     1       2.699   8.331 -11.852  1.00  0.00    -0.195 NA
HETATM    9  C9  UNL     1       0.377  10.112 -10.057  1.00  0.00     0.183 A 
HETATM   10  C10 UNL     1      -0.188   8.884 -10.676  1.00  0.00     0.088 C 
HETATM   11  N3  UNL     1      -0.628   7.919 -11.140  1.00  0.00    -0.195 NA
HETATM   12  C11 UNL     1      -0.367  11.243 -10.529  1.00  0.00     0.088 C 
HETATM   13  N4  UNL     1      -0.973  12.148 -10.935  1.00  0.00    -0.195 NA
ENDROOT
BRANCH   3  14
HETATM   14  O1  UNL     1       2.744  11.367  -8.470  1.00  0.00    -0.392 OA
ATOM     15  H1  UNL     1       3.314  11.842  -9.064  1.00  0.00     0.210 HD
ENDBRANCH   3  14
BRANCH   1  16
HETATM   16  C2  UNL     1       0.017  10.791  -7.641  1.00  0.00     0.010 C 
HETATM   17  C1  UNL     1      -0.221  10.310  -6.271  1.00  0.00     0.006 C 
ENDBRANCH   1  16
TORSDOF 2
ENDMDL
