MODEL 1
REMARK VINA RESULT: -6.924310250      0.000      0.000
REMARK  5 active torsions:
REMARK  status: ('A' for Active; 'I' for Inactive)
REMARK       I    between atoms: C2_2  and  N1_4 
REMARK    1  A    between atoms: N1_4  and  C3_6 
REMARK    2  A    between atoms: C4_9  and  C5_10 
REMARK    3  A    between atoms: C5_10  and  O2_13 
REMARK    4  A    between atoms: O2_13  and  C7_14 
REMARK    5  A    between atoms: C7_14  and  C8_16 
ROOT
HETATM    1  C3  UNL     1      12.489  -9.733  -5.477  1.00  0.00     0.231 A 
HETATM    2  N2  UNL     1      13.483  -9.725  -6.378  1.00  0.00    -0.320 N 
ATOM      3  H2  UNL     1      14.151 -10.483  -6.515  1.00  0.00     0.169 HD
HETATM    4  C4  UNL     1      13.472  -8.558  -7.087  1.00  0.00     0.085 A 
HETATM    5  C12 UNL     1      12.379  -7.870  -6.518  1.00  0.00     0.175 A 
HETATM    6  O4  UNL     1      11.834  -8.585  -5.589  1.00  0.00    -0.289 OA
ENDROOT
BRANCH   4   7
HETATM    7  C5  UNL     1      14.258  -8.060  -8.203  1.00  0.00     0.187 C 
HETATM    8  C6  UNL     1      13.839  -6.553  -8.447  1.00  0.00     0.072 C 
HETATM    9 CL1  UNL     1      13.604  -8.865  -9.718  1.00  0.00    -0.081 Cl
BRANCH   7  10
HETATM   10  O2  UNL     1      15.604  -8.130  -8.324  1.00  0.00    -0.287 OA
BRANCH  10  11
HETATM   11  C7  UNL     1      16.458  -8.715  -9.223  1.00  0.00     0.268 C 
HETATM   12  O3  UNL     1      16.731  -8.022 -10.234  1.00  0.00    -0.264 OA
BRANCH  11  13
HETATM   13  C8  UNL     1      17.005 -10.088  -9.032  1.00  0.00     0.037 C 
HETATM   14  C9  UNL     1      18.527  -9.898  -9.284  1.00  0.00     0.025 C 
HETATM   15  C10 UNL     1      16.571 -10.981 -10.192  1.00  0.00     0.025 C 
HETATM   16  C11 UNL     1      16.848 -10.673  -7.700  1.00  0.00     0.025 C 
ENDBRANCH  11  13
ENDBRANCH  10  11
ENDBRANCH   7  10
ENDBRANCH   4   7
BRANCH   1  17
HETATM   17  N1  UNL     1      12.093 -10.581  -4.605  1.00  0.00    -0.293 N 
HETATM   18  C2  UNL     1      12.844 -10.929  -3.503  1.00  0.00     0.220 C 
HETATM   19  C1  UNL     1      13.884 -11.967  -3.552  1.00  0.00     0.117 C 
HETATM   20  O1  UNL     1      12.660 -10.349  -2.375  1.00  0.00    -0.274 OA
ATOM     21  H1  UNL     1      11.180 -11.018  -4.731  1.00  0.00     0.172 HD
ENDBRANCH   1  17
TORSDOF 5
ENDMDL
MODEL 2
REMARK VINA RESULT: -6.724879260      0.788      1.381
REMARK  5 active torsions:
REMARK  status: ('A' for Active; 'I' for Inactive)
REMARK       I    between atoms: C2_2  and  N1_4 
REMARK    1  A    between atoms: N1_4  and  C3_6 
REMARK    2  A    between atoms: C4_9  and  C5_10 
REMARK    3  A    between atoms: C5_10  and  O2_13 
REMARK    4  A    between atoms: O2_13  and  C7_14 
REMARK    5  A    between atoms: C7_14  and  C8_16 
ROOT
HETATM    1  C3  UNL     1      12.470  -9.731  -5.436  1.00  0.00     0.231 A 
HETATM    2  N2  UNL     1      13.473  -9.821  -6.322  1.00  0.00    -0.320 N 
ATOM      3  H2  UNL     1      14.094 -10.625  -6.418  1.00  0.00     0.169 HD
HETATM    4  C4  UNL     1      13.545  -8.686  -7.076  1.00  0.00     0.085 A 
HETATM    5  C12 UNL     1      12.490  -7.909  -6.552  1.00  0.00     0.175 A 
HETATM    6  O4  UNL     1      11.890  -8.549  -5.604  1.00  0.00    -0.289 OA
ENDROOT
BRANCH   4   7
HETATM    7  C5  UNL     1      14.375  -8.285  -8.199  1.00  0.00     0.187 C 
HETATM    8  C6  UNL     1      14.197  -6.724  -8.391  1.00  0.00     0.072 C 
HETATM    9 CL1  UNL     1      13.568  -8.928  -9.718  1.00  0.00    -0.081 Cl
BRANCH   7  10
HETATM   10  O2  UNL     1      15.690  -8.563  -8.358  1.00  0.00    -0.287 OA
BRANCH  10  11
HETATM   11  C7  UNL     1      16.456  -9.691  -8.212  1.00  0.00     0.268 C 
HETATM   12  O3  UNL     1      16.478 -10.180  -7.055  1.00  0.00    -0.264 OA
BRANCH  11  13
HETATM   13  C8  UNL     1      17.232 -10.284  -9.338  1.00  0.00     0.037 C 
HETATM   14  C9  UNL     1      17.735 -11.631  -8.747  1.00  0.00     0.025 C 
HETATM   15  C10 UNL     1      18.523  -9.495  -9.546  1.00  0.00     0.025 C 
HETATM   16  C11 UNL     1      16.482 -10.590 -10.556  1.00  0.00     0.025 C 
ENDBRANCH  11  13
ENDBRANCH  10  11
ENDBRANCH   7  10
ENDBRANCH   4   7
BRANCH   1  17
HETATM   17  N1  UNL     1      12.010 -10.515  -4.537  1.00  0.00    -0.293 N 
HETATM   18  C2  UNL     1      12.734 -10.888  -3.425  1.00  0.00     0.220 C 
HETATM   19  C1  UNL     1      13.687 -12.009  -3.443  1.00  0.00     0.117 C 
HETATM   20  O1  UNL     1      12.603 -10.259  -2.316  1.00  0.00    -0.274 OA
ATOM     21  H1  UNL     1      11.064 -10.881  -4.647  1.00  0.00     0.172 HD
ENDBRANCH   1  17
TORSDOF 5
ENDMDL
MODEL 3
REMARK VINA RESULT: -6.310961160      1.821      2.325
REMARK  5 active torsions:
REMARK  status: ('A' for Active; 'I' for Inactive)
REMARK       I    between atoms: C2_2  and  N1_4 
REMARK    1  A    between atoms: N1_4  and  C3_6 
REMARK    2  A    between atoms: C4_9  and  C5_10 
REMARK    3  A    between atoms: C5_10  and  O2_13 
REMARK    4  A    between atoms: O2_13  and  C7_14 
REMARK    5  A    between atoms: C7_14  and  C8_16 
ROOT
HETATM    1  C3  UNL     1      13.155  -9.777  -5.946  1.00  0.00     0.231 A 
HETATM    2  N2  UNL     1      13.345  -9.213  -7.148  1.00  0.00    -0.320 N 
ATOM      3  H2  UNL     1      12.602  -8.858  -7.749  1.00  0.00     0.169 HD
HETATM    4  C4  UNL     1      14.675  -9.181  -7.452  1.00  0.00     0.085 A 
HETATM    5  C12 UNL     1      15.259  -9.784  -6.317  1.00  0.00     0.175 A 
HETATM    6  O4  UNL     1      14.345 -10.115  -5.466  1.00  0.00    -0.289 OA
ENDROOT
BRANCH   4   7
HETATM    7  C5  UNL     1      15.432  -8.633  -8.564  1.00  0.00     0.187 C 
HETATM    8  C6  UNL     1      15.123  -7.082  -8.634  1.00  0.00     0.072 C 
HETATM    9 CL1  UNL     1      14.628  -9.229 -10.103  1.00  0.00    -0.081 Cl
BRANCH   7  10
HETATM   10  O2  UNL     1      16.759  -8.790  -8.780  1.00  0.00    -0.287 OA
BRANCH  10  11
HETATM   11  C7  UNL     1      17.520  -9.140  -9.866  1.00  0.00     0.268 C 
HETATM   12  O3  UNL     1      17.737  -8.216 -10.689  1.00  0.00    -0.264 OA
BRANCH  11  13
HETATM   13  C8  UNL     1      18.033 -10.523 -10.073  1.00  0.00     0.037 C 
HETATM   14  C9  UNL     1      19.573 -10.348  -9.954  1.00  0.00     0.025 C 
HETATM   15  C10 UNL     1      17.844 -10.930 -11.533  1.00  0.00     0.025 C 
HETATM   16  C11 UNL     1      17.626 -11.524  -9.087  1.00  0.00     0.025 C 
ENDBRANCH  11  13
ENDBRANCH  10  11
ENDBRANCH   7  10
ENDBRANCH   4   7
BRANCH   1  17
HETATM   17  N1  UNL     1      12.117 -10.025  -5.239  1.00  0.00    -0.293 N 
HETATM   18  C2  UNL     1      10.961  -9.280  -5.318  1.00  0.00     0.220 C 
HETATM   19  C1  UNL     1      10.770  -8.034  -4.560  1.00  0.00     0.117 C 
HETATM   20  O1  UNL     1       9.992  -9.652  -6.070  1.00  0.00    -0.274 OA
ATOM     21  H1  UNL     1      12.148 -10.809  -4.587  1.00  0.00     0.172 HD
ENDBRANCH   1  17
TORSDOF 5
ENDMDL
MODEL 4
REMARK VINA RESULT: -6.263798404      1.318      1.517
REMARK  5 active torsions:
REMARK  status: ('A' for Active; 'I' for Inactive)
REMARK       I    between atoms: C2_2  and  N1_4 
REMARK    1  A    between atoms: N1_4  and  C3_6 
REMARK    2  A    between atoms: C4_9  and  C5_10 
REMARK    3  A    between atoms: C5_10  and  O2_13 
REMARK    4  A    between atoms: O2_13  and  C7_14 
REMARK    5  A    between atoms: C7_14  and  C8_16 
ROOT
HETATM    1  C3  UNL     1      12.415  -8.922  -6.928  1.00  0.00     0.231 A 
HETATM    2  N2  UNL     1      13.219  -9.139  -7.980  1.00  0.00    -0.320 N 
ATOM      3  H2  UNL     1      13.356 -10.044  -8.430  1.00  0.00     0.169 HD
HETATM    4  C4  UNL     1      13.826  -7.978  -8.362  1.00  0.00     0.085 A 
HETATM    5  C12 UNL     1      13.310  -7.049  -7.434  1.00  0.00     0.175 A 
HETATM    6  O4  UNL     1      12.495  -7.634  -6.620  1.00  0.00    -0.289 OA
ENDROOT
BRANCH   4   7
HETATM    7  C5  UNL     1      14.716  -7.630  -9.456  1.00  0.00     0.187 C 
HETATM    8  C6  UNL     1      14.381  -6.146  -9.891  1.00  0.00     0.072 C 
HETATM    9 CL1  UNL     1      14.151  -8.573 -10.926  1.00  0.00    -0.081 Cl
BRANCH   7  10
HETATM   10  O2  UNL     1      16.064  -7.756  -9.457  1.00  0.00    -0.287 OA
BRANCH  10  11
HETATM   11  C7  UNL     1      16.942  -8.668  -9.986  1.00  0.00     0.268 C 
HETATM   12  O3  UNL     1      17.492  -8.323 -11.060  1.00  0.00    -0.264 OA
BRANCH  11  13
HETATM   13  C8  UNL     1      17.208  -9.988  -9.346  1.00  0.00     0.037 C 
HETATM   14  C9  UNL     1      18.735 -10.183  -9.566  1.00  0.00     0.025 C 
HETATM   15  C10 UNL     1      16.593 -11.102 -10.190  1.00  0.00     0.025 C 
HETATM   16  C11 UNL     1      16.954 -10.079  -7.909  1.00  0.00     0.025 C 
ENDBRANCH  11  13
ENDBRANCH  10  11
ENDBRANCH   7  10
ENDBRANCH   4   7
BRANCH   1  17
HETATM   17  N1  UNL     1      11.650  -9.672  -6.229  1.00  0.00    -0.293 N 
HETATM   18  C2  UNL     1      11.694  -9.715  -4.853  1.00  0.00     0.220 C 
HETATM   19  C1  UNL     1      12.643 -10.567  -4.119  1.00  0.00     0.117 C 
HETATM   20  O1  UNL     1      10.897  -8.999  -4.149  1.00  0.00    -0.274 OA
ATOM     21  H1  UNL     1      10.976 -10.265  -6.714  1.00  0.00     0.172 HD
ENDBRANCH   1  17
TORSDOF 5
ENDMDL
MODEL 5
REMARK VINA RESULT: -6.238094497      1.832      2.504
REMARK  5 active torsions:
REMARK  status: ('A' for Active; 'I' for Inactive)
REMARK       I    between atoms: C2_2  and  N1_4 
REMARK    1  A    between atoms: N1_4  and  C3_6 
REMARK    2  A    between atoms: C4_9  and  C5_10 
REMARK    3  A    between atoms: C5_10  and  O2_13 
REMARK    4  A    between atoms: O2_13  and  C7_14 
REMARK    5  A    between atoms: C7_14  and  C8_16 
ROOT
HETATM    1  C3  UNL     1      13.043  -7.821  -6.964  1.00  0.00     0.231 A 
HETATM    2  N2  UNL     1      13.427  -8.676  -7.924  1.00  0.00    -0.320 N 
ATOM      3  H2  UNL     1      13.283  -9.685  -7.896  1.00  0.00     0.169 HD
HETATM    4  C4  UNL     1      14.036  -8.003  -8.944  1.00  0.00     0.085 A 
HETATM    5  C12 UNL     1      13.982  -6.665  -8.497  1.00  0.00     0.175 A 
HETATM    6  O4  UNL     1      13.398  -6.601  -7.346  1.00  0.00    -0.289 OA
ENDROOT
BRANCH   4   7
HETATM    7  C5  UNL     1      14.567  -8.412 -10.232  1.00  0.00     0.187 C 
HETATM    8  C6  UNL     1      14.543  -7.146 -11.182  1.00  0.00     0.072 C 
HETATM    9 CL1  UNL     1      13.297  -9.478 -11.021  1.00  0.00    -0.081 Cl
BRANCH   7  10
HETATM   10  O2  UNL     1      15.740  -9.053 -10.443  1.00  0.00    -0.287 OA
BRANCH  10  11
HETATM   11  C7  UNL     1      16.237 -10.284 -10.099  1.00  0.00     0.268 C 
HETATM   12  O3  UNL     1      15.889 -11.232 -10.845  1.00  0.00    -0.264 OA
BRANCH  11  13
HETATM   13  C8  UNL     1      17.109 -10.491  -8.907  1.00  0.00     0.037 C 
HETATM   14  C9  UNL     1      18.348  -9.606  -9.220  1.00  0.00     0.025 C 
HETATM   15  C10 UNL     1      17.681 -11.907  -8.930  1.00  0.00     0.025 C 
HETATM   16  C11 UNL     1      16.568 -10.055  -7.620  1.00  0.00     0.025 C 
ENDBRANCH  11  13
ENDBRANCH  10  11
ENDBRANCH   7  10
ENDBRANCH   4   7
BRANCH   1  17
HETATM   17  N1  UNL     1      12.445  -7.961  -5.842  1.00  0.00    -0.293 N 
HETATM   18  C2  UNL     1      11.735  -9.093  -5.507  1.00  0.00     0.220 C 
HETATM   19  C1  UNL     1      10.331  -9.290  -5.901  1.00  0.00     0.117 C 
HETATM   20  O1  UNL     1      12.281 -10.033  -4.829  1.00  0.00    -0.274 OA
ATOM     21  H1  UNL     1      12.496  -7.200  -5.165  1.00  0.00     0.172 HD
ENDBRANCH   1  17
TORSDOF 5
ENDMDL
