MODEL 1
REMARK VINA RESULT: -6.599245737      0.000      0.000
REMARK  2 active torsions:
REMARK  status: ('A' for Active; 'I' for Inactive)
REMARK    1  A    between atoms: C2_2  and  C4_4 
REMARK    2  A    between atoms: C8_9  and  N1_10 
ROOT
HETATM    1  C4  UNL     1      16.612 -11.005  -8.756  1.00  0.00     0.128 C 
HETATM    2  C5  UNL     1      16.564 -10.455 -10.163  1.00  0.00     0.035 C 
HETATM    3  C6  UNL     1      16.135  -9.028 -10.085  1.00  0.00     0.040 C 
HETATM    4  C7  UNL     1      14.877  -8.856  -9.234  1.00  0.00     0.191 C 
HETATM    5  O1  UNL     1      14.678  -7.497  -9.153  1.00  0.00    -0.312 OA
HETATM    6  C8  UNL     1      13.968  -6.499  -8.527  1.00  0.00     0.230 C 
HETATM    7  N2  UNL     1      13.206  -6.557  -7.518  1.00  0.00    -0.353 N 
ATOM      8  H2  UNL     1      12.827  -5.635  -7.301  1.00  0.00     0.163 HD
HETATM    9  C9  UNL     1      12.720  -7.526  -6.596  1.00  0.00     0.159 C 
HETATM   10  C10 UNL     1      13.012  -8.942  -6.939  1.00  0.00     0.244 C 
HETATM   11  C11 UNL     1      12.336  -9.811  -5.899  1.00  0.00     0.039 C 
HETATM   12  C12 UNL     1      13.457  -9.932  -4.857  1.00  0.00     0.033 C 
HETATM   13  C13 UNL     1      14.630 -10.180  -5.809  1.00  0.00     0.276 C 
HETATM   14  N3  UNL     1      14.429  -9.156  -6.821  1.00  0.00     0.126 N 
HETATM   15  C14 UNL     1      14.973  -9.669  -8.039  1.00  0.00     0.389 C 
HETATM   16  O2  UNL     1      16.324 -10.030  -7.824  1.00  0.00    -0.349 OA
ENDROOT
BRANCH   1  17
HETATM   17  C2  UNL     1      17.970 -11.634  -8.565  1.00  0.00     0.006 C 
HETATM   18  C1  UNL     1      17.768 -13.135  -8.674  1.00  0.00     0.012 C 
HETATM   19  C3  UNL     1      18.967 -11.230  -9.599  1.00  0.00     0.012 C 
ENDBRANCH   1  17
BRANCH   6  20
HETATM   20  N1  UNL     1      14.112  -5.206  -9.101  1.00  0.00    -0.264 N 
HETATM   21 CL1  UNL     1      13.731  -4.938 -10.780  1.00  0.00     0.014 Cl
ATOM     22  H1  UNL     1      14.440  -4.430  -8.527  1.00  0.00     0.184 HD
ENDBRANCH   6  20
TORSDOF 2
ENDMDL
MODEL 2
REMARK VINA RESULT: -6.556576775      2.591      4.104
REMARK  2 active torsions:
REMARK  status: ('A' for Active; 'I' for Inactive)
REMARK    1  A    between atoms: C2_2  and  C4_4 
REMARK    2  A    between atoms: C8_9  and  N1_10 
ROOT
HETATM    1  C4  UNL     1      17.432  -9.924 -10.312  1.00  0.00     0.128 C 
HETATM    2  C5  UNL     1      18.069 -10.593  -9.115  1.00  0.00     0.035 C 
HETATM    3  C6  UNL     1      17.013 -10.782  -8.078  1.00  0.00     0.040 C 
HETATM    4  C7  UNL     1      16.235  -9.494  -7.814  1.00  0.00     0.191 C 
HETATM    5  O1  UNL     1      15.232  -9.849  -6.942  1.00  0.00    -0.312 OA
HETATM    6  C8  UNL     1      14.066  -9.436  -6.340  1.00  0.00     0.230 C 
HETATM    7  N2  UNL     1      13.349  -8.419  -6.572  1.00  0.00    -0.353 N 
ATOM      8  H2  UNL     1      12.543  -8.398  -5.947  1.00  0.00     0.163 HD
HETATM    9  C9  UNL     1      13.333  -7.296  -7.446  1.00  0.00     0.159 C 
HETATM   10  C10 UNL     1      14.568  -7.087  -8.246  1.00  0.00     0.244 C 
HETATM   11  C11 UNL     1      14.392  -5.803  -9.030  1.00  0.00     0.039 C 
HETATM   12  C12 UNL     1      13.761  -6.343 -10.321  1.00  0.00     0.033 C 
HETATM   13  C13 UNL     1      14.661  -7.563 -10.524  1.00  0.00     0.276 C 
HETATM   14  N3  UNL     1      14.681  -8.158  -9.198  1.00  0.00     0.126 N 
HETATM   15  C14 UNL     1      15.935  -8.832  -9.068  1.00  0.00     0.389 C 
HETATM   16  O2  UNL     1      16.075  -9.754 -10.131  1.00  0.00    -0.349 OA
ENDROOT
BRANCH   1  17
HETATM   17  C2  UNL     1      17.776 -10.752 -11.525  1.00  0.00     0.006 C 
HETATM   18  C1  UNL     1      16.951 -10.196 -12.673  1.00  0.00     0.012 C 
HETATM   19  C3  UNL     1      19.214 -10.675 -11.915  1.00  0.00     0.012 C 
ENDBRANCH   1  17
BRANCH   6  20
HETATM   20  N1  UNL     1      13.595 -10.281  -5.297  1.00  0.00    -0.264 N 
HETATM   21 CL1  UNL     1      14.711 -11.242  -4.367  1.00  0.00     0.014 Cl
ATOM     22  H1  UNL     1      12.597 -10.325  -5.093  1.00  0.00     0.184 HD
ENDBRANCH   6  20
TORSDOF 2
ENDMDL
MODEL 3
REMARK VINA RESULT: -6.501367343      1.395      1.699
REMARK  2 active torsions:
REMARK  status: ('A' for Active; 'I' for Inactive)
REMARK    1  A    between atoms: C2_2  and  C4_4 
REMARK    2  A    between atoms: C8_9  and  N1_10 
ROOT
HETATM    1  C4  UNL     1      17.111 -10.582 -10.424  1.00  0.00     0.128 C 
HETATM    2  C5  UNL     1      16.465 -10.033 -11.675  1.00  0.00     0.035 C 
HETATM    3  C6  UNL     1      15.901  -8.690 -11.350  1.00  0.00     0.040 C 
HETATM    4  C7  UNL     1      15.042  -8.722 -10.087  1.00  0.00     0.191 C 
HETATM    5  O1  UNL     1      14.700  -7.411  -9.848  1.00  0.00    -0.312 OA
HETATM    6  C8  UNL     1      14.142  -6.541  -8.940  1.00  0.00     0.230 C 
HETATM    7  N2  UNL     1      13.828  -6.726  -7.727  1.00  0.00    -0.353 N 
ATOM      8  H2  UNL     1      13.433  -5.875  -7.326  1.00  0.00     0.163 HD
HETATM    9  C9  UNL     1      13.863  -7.767  -6.758  1.00  0.00     0.159 C 
HETATM   10  C10 UNL     1      14.200  -9.117  -7.278  1.00  0.00     0.244 C 
HETATM   11  C11 UNL     1      14.091 -10.091  -6.122  1.00  0.00     0.039 C 
HETATM   12  C12 UNL     1      15.524 -10.046  -5.576  1.00  0.00     0.033 C 
HETATM   13  C13 UNL     1      16.279 -10.101  -6.906  1.00  0.00     0.276 C 
HETATM   14  N3  UNL     1      15.574  -9.111  -7.703  1.00  0.00     0.126 N 
HETATM   15  C14 UNL     1      15.690  -9.523  -9.068  1.00  0.00     0.389 C 
HETATM   16  O2  UNL     1      17.060  -9.672  -9.388  1.00  0.00    -0.349 OA
ENDROOT
BRANCH   1  17
HETATM   17  C2  UNL     1      18.516 -10.996 -10.788  1.00  0.00     0.006 C 
HETATM   18  C1  UNL     1      18.600 -10.943 -12.303  1.00  0.00     0.012 C 
HETATM   19  C3  UNL     1      19.567 -10.091 -10.239  1.00  0.00     0.012 C 
ENDBRANCH   1  17
BRANCH   6  20
HETATM   20  N1  UNL     1      13.879  -5.236  -9.439  1.00  0.00    -0.264 N 
HETATM   21 CL1  UNL     1      13.586  -4.983 -11.138  1.00  0.00     0.014 Cl
ATOM     22  H1  UNL     1      13.861  -4.442  -8.799  1.00  0.00     0.184 HD
ENDBRANCH   6  20
TORSDOF 2
ENDMDL
MODEL 4
REMARK VINA RESULT: -6.462348766      3.078      5.551
REMARK  2 active torsions:
REMARK  status: ('A' for Active; 'I' for Inactive)
REMARK    1  A    between atoms: C2_2  and  C4_4 
REMARK    2  A    between atoms: C8_9  and  N1_10 
ROOT
HETATM    1  C4  UNL     1      13.912  -9.669  -6.743  1.00  0.00     0.128 C 
HETATM    2  C5  UNL     1      15.053 -10.288  -5.968  1.00  0.00     0.035 C 
HETATM    3  C6  UNL     1      16.330  -9.870  -6.618  1.00  0.00     0.040 C 
HETATM    4  C7  UNL     1      16.309 -10.112  -8.127  1.00  0.00     0.191 C 
HETATM    5  O1  UNL     1      17.484  -9.572  -8.597  1.00  0.00    -0.312 OA
HETATM    6  C8  UNL     1      18.184  -9.210  -9.724  1.00  0.00     0.230 C 
HETATM    7  N2  UNL     1      17.801  -9.136 -10.928  1.00  0.00    -0.353 N 
ATOM      8  H2  UNL     1      18.566  -8.834 -11.531  1.00  0.00     0.163 HD
HETATM    9  C9  UNL     1      16.619  -9.351 -11.692  1.00  0.00     0.159 C 
HETATM   10  C10 UNL     1      15.500 -10.011 -10.971  1.00  0.00     0.244 C 
HETATM   11  C11 UNL     1      14.384 -10.235 -11.970  1.00  0.00     0.039 C 
HETATM   12  C12 UNL     1      13.592  -8.930 -11.808  1.00  0.00     0.033 C 
HETATM   13  C13 UNL     1      13.610  -8.838 -10.281  1.00  0.00     0.276 C 
HETATM   14  N3  UNL     1      15.004  -9.106  -9.971  1.00  0.00     0.126 N 
HETATM   15  C14 UNL     1      15.030  -9.709  -8.675  1.00  0.00     0.389 C 
HETATM   16  O2  UNL     1      14.374  -8.855  -7.757  1.00  0.00    -0.349 OA
ENDROOT
BRANCH   1  17
HETATM   17  C2  UNL     1      13.034  -8.948  -5.750  1.00  0.00     0.006 C 
HETATM   18  C1  UNL     1      12.442  -7.758  -6.484  1.00  0.00     0.012 C 
HETATM   19  C3  UNL     1      11.906  -9.778  -5.237  1.00  0.00     0.012 C 
ENDBRANCH   1  17
BRANCH   6  20
HETATM   20  N1  UNL     1      19.546  -8.865  -9.502  1.00  0.00    -0.264 N 
HETATM   21 CL1  UNL     1      20.823  -9.794 -10.238  1.00  0.00     0.014 Cl
ATOM     22  H1  UNL     1      19.777  -8.068  -8.909  1.00  0.00     0.184 HD
ENDBRANCH   6  20
TORSDOF 2
ENDMDL
MODEL 5
REMARK VINA RESULT: -6.082573228      1.768      4.626
REMARK  2 active torsions:
REMARK  status: ('A' for Active; 'I' for Inactive)
REMARK    1  A    between atoms: C2_2  and  C4_4 
REMARK    2  A    between atoms: C8_9  and  N1_10 
ROOT
HETATM    1  C4  UNL     1      13.978  -9.411  -6.091  1.00  0.00     0.128 C 
HETATM    2  C5  UNL     1      13.303  -8.059  -6.126  1.00  0.00     0.035 C 
HETATM    3  C6  UNL     1      13.203  -7.632  -7.553  1.00  0.00     0.040 C 
HETATM    4  C7  UNL     1      14.541  -7.754  -8.281  1.00  0.00     0.191 C 
HETATM    5  O1  UNL     1      14.268  -7.449  -9.594  1.00  0.00    -0.312 OA
HETATM    6  C8  UNL     1      14.764  -7.455 -10.877  1.00  0.00     0.230 C 
HETATM    7  N2  UNL     1      15.815  -7.989 -11.337  1.00  0.00    -0.353 N 
ATOM      8  H2  UNL     1      15.900  -7.810 -12.338  1.00  0.00     0.163 HD
HETATM    9  C9  UNL     1      16.915  -8.764 -10.874  1.00  0.00     0.159 C 
HETATM   10  C10 UNL     1      17.030  -8.897  -9.399  1.00  0.00     0.244 C 
HETATM   11  C11 UNL     1      18.302  -9.667  -9.108  1.00  0.00     0.039 C 
HETATM   12  C12 UNL     1      17.769 -11.106  -9.101  1.00  0.00     0.033 C 
HETATM   13  C13 UNL     1      16.493 -10.874  -8.289  1.00  0.00     0.276 C 
HETATM   14  N3  UNL     1      15.931  -9.694  -8.926  1.00  0.00     0.126 N 
HETATM   15  C14 UNL     1      15.188  -8.999  -7.921  1.00  0.00     0.389 C 
HETATM   16  O2  UNL     1      14.232  -9.881  -7.363  1.00  0.00    -0.349 OA
ENDROOT
BRANCH   1  17
HETATM   17  C2  UNL     1      13.101 -10.330  -5.277  1.00  0.00     0.006 C 
HETATM   18  C1  UNL     1      13.978 -10.898  -4.176  1.00  0.00     0.012 C 
HETATM   19  C3  UNL     1      11.946  -9.640  -4.633  1.00  0.00     0.012 C 
ENDBRANCH   1  17
BRANCH   6  20
HETATM   20  N1  UNL     1      13.974  -6.756 -11.832  1.00  0.00    -0.264 N 
HETATM   21 CL1  UNL     1      13.145  -5.289 -11.387  1.00  0.00     0.014 Cl
ATOM     22  H1  UNL     1      13.893  -7.115 -12.782  1.00  0.00     0.184 HD
ENDBRANCH   6  20
TORSDOF 2
ENDMDL
