MODEL 1
REMARK VINA RESULT: -6.308116436      0.000      0.000
REMARK  2 active torsions:
REMARK  status: ('A' for Active; 'I' for Inactive)
REMARK    1  A    between atoms: C2_2  and  C3_3 
REMARK    2  A    between atoms: C3_3  and  C4_5 
ROOT
HETATM    1  C4  UNL     1      13.546  -7.959  -7.258  1.00  0.00     0.157 C 
HETATM    2  C5  UNL     1      14.920  -8.456  -7.122  1.00  0.00     0.159 C 
HETATM    3  O2  UNL     1      15.413  -8.909  -6.116  1.00  0.00    -0.295 OA
HETATM    4  C6  UNL     1      15.613  -8.314  -8.430  1.00  0.00     0.163 C 
HETATM    5 CL1  UNL     1      15.937  -9.937  -9.029  1.00  0.00    -0.116 Cl
HETATM    6  C7  UNL     1      14.661  -7.522  -9.249  1.00  0.00     0.012 C 
HETATM    7  C8  UNL     1      14.843  -6.054  -8.840  1.00  0.00     0.020 C 
HETATM    8  C9  UNL     1      14.860  -7.591 -10.718  1.00  0.00     0.019 C 
HETATM    9  C10 UNL     1      14.627  -6.219 -11.348  1.00  0.00     0.012 C 
HETATM   10  C11 UNL     1      14.087  -8.611 -11.464  1.00  0.00     0.171 C 
HETATM   11  C12 UNL     1      14.954  -9.554 -12.207  1.00  0.00     0.072 C 
HETATM   12  N1  UNL     1      15.630 -10.291 -12.810  1.00  0.00    -0.196 NA
HETATM   13  C13 UNL     1      13.072  -9.327 -10.658  1.00  0.00     0.130 C 
HETATM   14  N2  UNL     1      12.286 -10.139 -11.301  1.00  0.00    -0.382 N 
ATOM     15  H21 UNL     1      11.586 -10.632 -10.745  1.00  0.00     0.158 HD
ATOM     16  H22 UNL     1      12.369 -10.269 -12.309  1.00  0.00     0.158 HD
HETATM   17  O3  UNL     1      12.960  -9.152  -9.299  1.00  0.00    -0.331 OA
HETATM   18  C14 UNL     1      13.299  -7.911  -8.764  1.00  0.00     0.159 C 
ENDROOT
BRANCH   1  19
HETATM   19  C3  UNL     1      12.513  -8.690  -6.533  1.00  0.00     0.140 C 
HETATM   20  O1  UNL     1      12.549  -9.908  -6.430  1.00  0.00    -0.297 OA
BRANCH  19  21
HETATM   21  C2  UNL     1      11.378  -7.964  -5.903  1.00  0.00     0.074 C 
HETATM   22  C1  UNL     1      10.655  -8.886  -4.899  1.00  0.00     0.013 C 
ENDBRANCH  19  21
ENDBRANCH   1  19
TORSDOF 2
ENDMDL
MODEL 2
REMARK VINA RESULT: -5.490304953      2.901      5.260
REMARK  2 active torsions:
REMARK  status: ('A' for Active; 'I' for Inactive)
REMARK    1  A    between atoms: C2_2  and  C3_3 
REMARK    2  A    between atoms: C3_3  and  C4_5 
ROOT
HETATM    1  C4  UNL     1      14.288  -7.119 -10.555  1.00  0.00     0.157 C 
HETATM    2  C5  UNL     1      13.596  -8.321 -11.038  1.00  0.00     0.159 C 
HETATM    3  O2  UNL     1      12.918  -8.395 -12.035  1.00  0.00    -0.295 OA
HETATM    4  C6  UNL     1      13.867  -9.440 -10.098  1.00  0.00     0.163 C 
HETATM    5 CL1  UNL     1      14.838 -10.626 -10.963  1.00  0.00    -0.116 Cl
HETATM    6  C7  UNL     1      14.551  -8.783  -8.955  1.00  0.00     0.012 C 
HETATM    7  C8  UNL     1      13.453  -8.145  -8.093  1.00  0.00     0.020 C 
HETATM    8  C9  UNL     1      15.334  -9.679  -8.068  1.00  0.00     0.019 C 
HETATM    9  C10 UNL     1      15.162  -9.261  -6.609  1.00  0.00     0.012 C 
HETATM   10  C11 UNL     1      16.776  -9.844  -8.365  1.00  0.00     0.171 C 
HETATM   11  C12 UNL     1      17.149 -11.253  -8.621  1.00  0.00     0.072 C 
HETATM   12  N1  UNL     1      17.455 -12.365  -8.808  1.00  0.00    -0.196 NA
HETATM   13  C13 UNL     1      17.294  -8.945  -9.422  1.00  0.00     0.130 C 
HETATM   14  N2  UNL     1      18.578  -8.966  -9.625  1.00  0.00    -0.382 N 
ATOM     15  H21 UNL     1      18.935  -8.346 -10.352  1.00  0.00     0.158 HD
ATOM     16  H22 UNL     1      19.190  -9.572  -9.079  1.00  0.00     0.158 HD
HETATM   17  O3  UNL     1      16.469  -8.127 -10.157  1.00  0.00    -0.331 OA
HETATM   18  C14 UNL     1      15.313  -7.640  -9.551  1.00  0.00     0.159 C 
ENDROOT
BRANCH   1  19
HETATM   19  C3  UNL     1      14.874  -6.252 -11.571  1.00  0.00     0.140 C 
HETATM   20  O1  UNL     1      14.744  -5.037 -11.522  1.00  0.00    -0.297 OA
BRANCH  19  21
HETATM   21  C2  UNL     1      15.646  -6.832 -12.702  1.00  0.00     0.074 C 
HETATM   22  C1  UNL     1      16.419  -5.718 -13.438  1.00  0.00     0.013 C 
ENDBRANCH  19  21
ENDBRANCH   1  19
TORSDOF 2
ENDMDL
MODEL 3
REMARK VINA RESULT: -5.371062496      2.310      3.016
REMARK  2 active torsions:
REMARK  status: ('A' for Active; 'I' for Inactive)
REMARK    1  A    between atoms: C2_2  and  C3_3 
REMARK    2  A    between atoms: C3_3  and  C4_5 
ROOT
HETATM    1  C4  UNL     1      13.418  -9.037  -7.553  1.00  0.00     0.157 C 
HETATM    2  C5  UNL     1      13.561  -7.619  -7.903  1.00  0.00     0.159 C 
HETATM    3  O2  UNL     1      13.206  -6.683  -7.226  1.00  0.00    -0.295 OA
HETATM    4  C6  UNL     1      14.219  -7.517  -9.233  1.00  0.00     0.163 C 
HETATM    5 CL1  UNL     1      15.801  -6.789  -8.979  1.00  0.00    -0.116 Cl
HETATM    6  C7  UNL     1      14.245  -8.920  -9.721  1.00  0.00     0.012 C 
HETATM    7  C8  UNL     1      12.848  -9.216 -10.283  1.00  0.00     0.020 C 
HETATM    8  C9  UNL     1      15.220  -9.209 -10.802  1.00  0.00     0.019 C 
HETATM    9  C10 UNL     1      14.607 -10.166 -11.823  1.00  0.00     0.012 C 
HETATM   10  C11 UNL     1      16.555  -9.708 -10.402  1.00  0.00     0.171 C 
HETATM   11  C12 UNL     1      17.655  -8.836 -10.872  1.00  0.00     0.072 C 
HETATM   12  N1  UNL     1      18.530  -8.162 -11.255  1.00  0.00    -0.196 NA
HETATM   13  C13 UNL     1      16.690 -10.020  -8.960  1.00  0.00     0.130 C 
HETATM   14  N2  UNL     1      17.803 -10.580  -8.588  1.00  0.00    -0.382 N 
ATOM     15  H21 UNL     1      17.896 -10.795  -7.595  1.00  0.00     0.158 HD
ATOM     16  H22 UNL     1      18.540 -10.790  -9.261  1.00  0.00     0.158 HD
HETATM   17  O3  UNL     1      15.696  -9.736  -8.054  1.00  0.00    -0.331 OA
HETATM   18  C14 UNL     1      14.375  -9.766  -8.492  1.00  0.00     0.159 C 
ENDROOT
BRANCH   1  19
HETATM   19  C3  UNL     1      13.618  -9.386  -6.151  1.00  0.00     0.140 C 
HETATM   20  O1  UNL     1      14.704  -9.240  -5.608  1.00  0.00    -0.297 OA
BRANCH  19  21
HETATM   21  C2  UNL     1      12.496  -9.938  -5.344  1.00  0.00     0.074 C 
HETATM   22  C1  UNL     1      11.156  -9.361  -5.845  1.00  0.00     0.013 C 
ENDBRANCH  19  21
ENDBRANCH   1  19
TORSDOF 2
ENDMDL
MODEL 4
REMARK VINA RESULT: -5.336964686      2.843      5.280
REMARK  2 active torsions:
REMARK  status: ('A' for Active; 'I' for Inactive)
REMARK    1  A    between atoms: C2_2  and  C3_3 
REMARK    2  A    between atoms: C3_3  and  C4_5 
ROOT
HETATM    1  C4  UNL     1      16.027  -9.473 -11.008  1.00  0.00     0.157 C 
HETATM    2  C5  UNL     1      14.666  -9.763 -11.476  1.00  0.00     0.159 C 
HETATM    3  O2  UNL     1      14.359 -10.608 -12.284  1.00  0.00    -0.295 OA
HETATM    4  C6  UNL     1      13.717  -8.846 -10.790  1.00  0.00     0.163 C 
HETATM    5 CL1  UNL     1      12.705  -9.831  -9.739  1.00  0.00    -0.116 Cl
HETATM    6  C7  UNL     1      14.603  -7.884 -10.085  1.00  0.00     0.012 C 
HETATM    7  C8  UNL     1      15.055  -6.855 -11.130  1.00  0.00     0.020 C 
HETATM    8  C9  UNL     1      13.980  -7.128  -8.971  1.00  0.00     0.019 C 
HETATM    9  C10 UNL     1      14.472  -5.682  -8.974  1.00  0.00     0.012 C 
HETATM   10  C11 UNL     1      14.113  -7.689  -7.607  1.00  0.00     0.171 C 
HETATM   11  C12 UNL     1      12.804  -7.953  -6.968  1.00  0.00     0.072 C 
HETATM   12  N1  UNL     1      11.774  -8.148  -6.450  1.00  0.00    -0.196 NA
HETATM   13  C13 UNL     1      15.011  -8.862  -7.507  1.00  0.00     0.130 C 
HETATM   14  N2  UNL     1      15.256  -9.307  -6.310  1.00  0.00    -0.382 N 
ATOM     15  H21 UNL     1      15.875 -10.115  -6.242  1.00  0.00     0.158 HD
ATOM     16  H22 UNL     1      14.848  -8.865  -5.488  1.00  0.00     0.158 HD
HETATM   17  O3  UNL     1      15.561  -9.459  -8.617  1.00  0.00    -0.331 OA
HETATM   18  C14 UNL     1      15.832  -8.664  -9.728  1.00  0.00     0.159 C 
ENDROOT
BRANCH   1  19
HETATM   19  C3  UNL     1      16.913 -10.618 -10.829  1.00  0.00     0.140 C 
HETATM   20  O1  UNL     1      16.516 -11.656 -10.320  1.00  0.00    -0.297 OA
BRANCH  19  21
HETATM   21  C2  UNL     1      18.335 -10.544 -11.262  1.00  0.00     0.074 C 
HETATM   22  C1  UNL     1      19.238 -10.238 -10.050  1.00  0.00     0.013 C 
ENDBRANCH  19  21
ENDBRANCH   1  19
TORSDOF 2
ENDMDL
MODEL 5
REMARK VINA RESULT: -5.235470327      2.815      5.605
REMARK  2 active torsions:
REMARK  status: ('A' for Active; 'I' for Inactive)
REMARK    1  A    between atoms: C2_2  and  C3_3 
REMARK    2  A    between atoms: C3_3  and  C4_5 
ROOT
HETATM    1  C4  UNL     1      15.967  -8.618 -12.330  1.00  0.00     0.157 C 
HETATM    2  C5  UNL     1      14.590  -8.933 -12.731  1.00  0.00     0.159 C 
HETATM    3  O2  UNL     1      14.262  -9.531 -13.728  1.00  0.00    -0.295 OA
HETATM    4  C6  UNL     1      13.657  -8.397 -11.705  1.00  0.00     0.163 C 
HETATM    5 CL1  UNL     1      12.894  -9.775 -10.921  1.00  0.00    -0.116 Cl
HETATM    6  C7  UNL     1      14.532  -7.580 -10.826  1.00  0.00     0.012 C 
HETATM    7  C8  UNL     1      14.739  -6.236 -11.536  1.00  0.00     0.020 C 
HETATM    8  C9  UNL     1      13.992  -7.280  -9.476  1.00  0.00     0.019 C 
HETATM    9  C10 UNL     1      14.337  -5.847  -9.076  1.00  0.00     0.012 C 
HETATM   10  C11 UNL     1      14.358  -8.199  -8.375  1.00  0.00     0.171 C 
HETATM   11  C12 UNL     1      13.177  -8.813  -7.726  1.00  0.00     0.072 C 
HETATM   12  N1  UNL     1      12.249  -9.288  -7.198  1.00  0.00    -0.196 NA
HETATM   13  C13 UNL     1      15.370  -9.219  -8.733  1.00  0.00     0.130 C 
HETATM   14  N2  UNL     1      15.815  -9.964  -7.764  1.00  0.00    -0.382 N 
ATOM     15  H21 UNL     1      16.512 -10.666  -8.011  1.00  0.00     0.158 HD
ATOM     16  H22 UNL     1      15.478  -9.845  -6.809  1.00  0.00     0.158 HD
HETATM   17  O3  UNL     1      15.824  -9.379 -10.021  1.00  0.00    -0.331 OA
HETATM   18  C14 UNL     1      15.866  -8.260 -10.850  1.00  0.00     0.159 C 
ENDROOT
BRANCH   1  19
HETATM   19  C3  UNL     1      16.975  -9.636 -12.604  1.00  0.00     0.140 C 
HETATM   20  O1  UNL     1      16.662 -10.785 -12.876  1.00  0.00    -0.297 OA
BRANCH  19  21
HETATM   21  C2  UNL     1      18.423  -9.295 -12.552  1.00  0.00     0.074 C 
HETATM   22  C1  UNL     1      19.118 -10.121 -11.450  1.00  0.00     0.013 C 
ENDBRANCH  19  21
ENDBRANCH   1  19
TORSDOF 2
ENDMDL
