MODEL 1
REMARK VINA RESULT: -6.369334823      0.000      0.000
REMARK  5 active torsions:
REMARK  status: ('A' for Active; 'I' for Inactive)
REMARK    1  A    between atoms: C1_2  and  N1_3 
REMARK    2  A    between atoms: C1_2  and  S2_12 
REMARK    3  A    between atoms: N1_3  and  C2_5 
REMARK    4  A    between atoms: S2_12  and  C4_13 
REMARK    5  A    between atoms: C8_17  and  C9_18 
ROOT
HETATM    1  C9  UNL     1      11.658 -10.142 -11.741  1.00  0.00    -0.032 C 
HETATM    2  C10 UNL     1      10.467 -10.307 -11.665  1.00  0.00     0.011 C 
HETATM    3 CL1  UNL     1       8.748 -10.554 -11.538  1.00  0.00    -0.023 Cl
ENDROOT
BRANCH   1   4
HETATM    4  C8  UNL     1      13.087  -9.922 -11.822  1.00  0.00     0.088 A 
HETATM    5  C7  UNL     1      13.795 -10.234 -12.964  1.00  0.00     0.039 A 
HETATM    6  C6  UNL     1      15.149 -10.032 -13.058  1.00  0.00     0.006 A 
HETATM    7  C5  UNL     1      15.853  -9.496 -11.976  1.00  0.00     0.037 A 
HETATM    8  C4  UNL     1      15.141  -9.191 -10.849  1.00  0.00     0.077 A 
HETATM    9  N4  UNL     1      13.782  -9.416 -10.811  1.00  0.00    -0.344 N 
ATOM     10  H4  UNL     1      13.279  -9.179  -9.956  1.00  0.00     0.167 HD
BRANCH   8  11
HETATM   11  S2  UNL     1      15.842  -8.510  -9.384  1.00  0.00    -0.042 SA
BRANCH  11  12
HETATM   12  C1  UNL     1      14.863  -7.459  -8.436  1.00  0.00     0.160 C 
HETATM   13  S1  UNL     1      14.310  -6.029  -9.094  1.00  0.00    -0.052 SA
BRANCH  12  14
HETATM   14  N1  UNL     1      14.466  -7.688  -7.119  1.00  0.00    -0.173 N 
ATOM     15  H1  UNL     1      15.157  -7.533  -6.385  1.00  0.00     0.185 HD
BRANCH  14  16
HETATM   16  C2  UNL     1      13.292  -8.081  -6.758  1.00  0.00     0.705 A 
HETATM   17  N2  UNL     1      12.901  -9.352  -6.746  1.00  0.00    -0.178 N 
HETATM   18  C3  UNL     1      11.613  -9.367  -6.310  1.00  0.00     0.276 A 
ATOM     19  H2  UNL     1      13.461 -10.162  -7.013  1.00  0.00     0.185 HD
HETATM   20  O1  UNL     1      11.287  -8.131  -6.082  1.00  0.00    -0.218 OA
HETATM   21  N3  UNL     1      12.282  -7.324  -6.343  1.00  0.00    -0.090 N 
ATOM     22  H3  UNL     1      12.283  -6.309  -6.246  1.00  0.00     0.213 HD
ENDBRANCH  14  16
ENDBRANCH  12  14
ENDBRANCH  11  12
ENDBRANCH   8  11
ENDBRANCH   1   4
TORSDOF 5
ENDMDL
MODEL 2
REMARK VINA RESULT: -6.219282789      3.436      5.461
REMARK  5 active torsions:
REMARK  status: ('A' for Active; 'I' for Inactive)
REMARK    1  A    between atoms: C1_2  and  N1_3 
REMARK    2  A    between atoms: C1_2  and  S2_12 
REMARK    3  A    between atoms: N1_3  and  C2_5 
REMARK    4  A    between atoms: S2_12  and  C4_13 
REMARK    5  A    between atoms: C8_17  and  C9_18 
ROOT
HETATM    1  C9  UNL     1      14.563 -10.418  -5.291  1.00  0.00    -0.032 C 
HETATM    2  C10 UNL     1      14.021 -10.863  -4.312  1.00  0.00     0.011 C 
HETATM    3 CL1  UNL     1      13.229 -11.489  -2.893  1.00  0.00    -0.023 Cl
ENDROOT
BRANCH   1   4
HETATM    4  C8  UNL     1      15.196  -9.889  -6.482  1.00  0.00     0.088 A 
HETATM    5  C7  UNL     1      16.307 -10.495  -7.030  1.00  0.00     0.039 A 
HETATM    6  C6  UNL     1      16.919 -10.006  -8.157  1.00  0.00     0.006 A 
HETATM    7  C5  UNL     1      16.419  -8.862  -8.785  1.00  0.00     0.037 A 
HETATM    8  C4  UNL     1      15.318  -8.270  -8.233  1.00  0.00     0.077 A 
HETATM    9  N4  UNL     1      14.744  -8.804  -7.098  1.00  0.00    -0.344 N 
ATOM     10  H4  UNL     1      13.924  -8.338  -6.710  1.00  0.00     0.167 HD
BRANCH   8  11
HETATM   11  S2  UNL     1      14.540  -6.825  -8.871  1.00  0.00    -0.042 SA
BRANCH  11  12
HETATM   12  C1  UNL     1      14.155  -6.792 -10.549  1.00  0.00     0.160 C 
HETATM   13  S1  UNL     1      13.841  -5.333 -11.295  1.00  0.00    -0.052 SA
BRANCH  12  14
HETATM   14  N1  UNL     1      14.076  -7.905 -11.386  1.00  0.00    -0.173 N 
ATOM     15  H1  UNL     1      14.922  -8.179 -11.886  1.00  0.00     0.185 HD
BRANCH  14  16
HETATM   16  C2  UNL     1      13.016  -8.614 -11.575  1.00  0.00     0.705 A 
HETATM   17  N2  UNL     1      12.146  -8.407 -12.561  1.00  0.00    -0.178 N 
HETATM   18  C3  UNL     1      11.172  -9.347 -12.434  1.00  0.00     0.276 A 
ATOM     19  H2  UNL     1      12.200  -7.682 -13.276  1.00  0.00     0.185 HD
HETATM   20  O1  UNL     1      11.486 -10.067 -11.399  1.00  0.00    -0.218 OA
HETATM   21  N3  UNL     1      12.599  -9.650 -10.855  1.00  0.00    -0.090 N 
ATOM     22  H3  UNL     1      13.060 -10.043 -10.035  1.00  0.00     0.213 HD
ENDBRANCH  14  16
ENDBRANCH  12  14
ENDBRANCH  11  12
ENDBRANCH   8  11
ENDBRANCH   1   4
TORSDOF 5
ENDMDL
MODEL 3
REMARK VINA RESULT: -6.140050716      4.555      5.662
REMARK  5 active torsions:
REMARK  status: ('A' for Active; 'I' for Inactive)
REMARK    1  A    between atoms: C1_2  and  N1_3 
REMARK    2  A    between atoms: C1_2  and  S2_12 
REMARK    3  A    between atoms: N1_3  and  C2_5 
REMARK    4  A    between atoms: S2_12  and  C4_13 
REMARK    5  A    between atoms: C8_17  and  C9_18 
ROOT
HETATM    1  C9  UNL     1      20.239  -9.094  -9.849  1.00  0.00    -0.032 C 
HETATM    2  C10 UNL     1      21.360  -8.661  -9.937  1.00  0.00     0.011 C 
HETATM    3 CL1  UNL     1      22.972  -8.017 -10.065  1.00  0.00    -0.023 Cl
ENDROOT
BRANCH   1   4
HETATM    4  C8  UNL     1      18.893  -9.614  -9.719  1.00  0.00     0.088 A 
HETATM    5  C7  UNL     1      18.603 -10.929 -10.017  1.00  0.00     0.039 A 
HETATM    6  C6  UNL     1      17.333 -11.437  -9.900  1.00  0.00     0.006 A 
HETATM    7  C5  UNL     1      16.288 -10.616  -9.468  1.00  0.00     0.037 A 
HETATM    8  C4  UNL     1      16.587  -9.314  -9.176  1.00  0.00     0.077 A 
HETATM    9  N4  UNL     1      17.881  -8.858  -9.313  1.00  0.00    -0.344 N 
ATOM     10  H4  UNL     1      18.072  -7.882  -9.088  1.00  0.00     0.167 HD
BRANCH   8  11
HETATM   11  S2  UNL     1      15.414  -8.125  -8.620  1.00  0.00    -0.042 SA
BRANCH  11  12
HETATM   12  C1  UNL     1      14.628  -8.411  -7.115  1.00  0.00     0.160 C 
HETATM   13  S1  UNL     1      15.207  -9.596  -6.094  1.00  0.00    -0.052 SA
BRANCH  12  14
HETATM   14  N1  UNL     1      13.510  -7.725  -6.641  1.00  0.00    -0.173 N 
ATOM     15  H1  UNL     1      13.598  -6.717  -6.507  1.00  0.00     0.185 HD
BRANCH  14  16
HETATM   16  C2  UNL     1      12.375  -8.266  -6.358  1.00  0.00     0.705 A 
HETATM   17  N2  UNL     1      11.508  -7.767  -5.481  1.00  0.00    -0.178 N 
HETATM   18  C3  UNL     1      10.440  -8.608  -5.456  1.00  0.00     0.276 A 
ATOM     19  H2  UNL     1      11.622  -6.915  -4.931  1.00  0.00     0.185 HD
HETATM   20  O1  UNL     1      10.701  -9.561  -6.300  1.00  0.00    -0.218 OA
HETATM   21  N3  UNL     1      11.866  -9.384  -6.865  1.00  0.00    -0.090 N 
ATOM     22  H3  UNL     1      12.301  -9.987  -7.562  1.00  0.00     0.213 HD
ENDBRANCH  14  16
ENDBRANCH  12  14
ENDBRANCH  11  12
ENDBRANCH   8  11
ENDBRANCH   1   4
TORSDOF 5
ENDMDL
MODEL 4
REMARK VINA RESULT: -6.087544587      2.831      5.014
REMARK  5 active torsions:
REMARK  status: ('A' for Active; 'I' for Inactive)
REMARK    1  A    between atoms: C1_2  and  N1_3 
REMARK    2  A    between atoms: C1_2  and  S2_12 
REMARK    3  A    between atoms: N1_3  and  C2_5 
REMARK    4  A    between atoms: S2_12  and  C4_13 
REMARK    5  A    between atoms: C8_17  and  C9_18 
ROOT
HETATM    1  C9  UNL     1      12.933  -9.225  -6.449  1.00  0.00    -0.032 C 
HETATM    2  C10 UNL     1      11.862  -9.035  -5.932  1.00  0.00     0.011 C 
HETATM    3 CL1  UNL     1      10.312  -8.778  -5.182  1.00  0.00    -0.023 Cl
ENDROOT
BRANCH   1   4
HETATM    4  C8  UNL     1      14.231  -9.452  -7.050  1.00  0.00     0.088 A 
HETATM    5  C7  UNL     1      15.227 -10.123  -6.371  1.00  0.00     0.039 A 
HETATM    6  C6  UNL     1      16.462 -10.346  -6.925  1.00  0.00     0.006 A 
HETATM    7  C5  UNL     1      16.742  -9.888  -8.216  1.00  0.00     0.037 A 
HETATM    8  C4  UNL     1      15.748  -9.225  -8.880  1.00  0.00     0.077 A 
HETATM    9  N4  UNL     1      14.526  -9.029  -8.272  1.00  0.00    -0.344 N 
ATOM     10  H4  UNL     1      13.806  -8.529  -8.793  1.00  0.00     0.167 HD
BRANCH   8  11
HETATM   11  S2  UNL     1      15.904  -8.572 -10.508  1.00  0.00    -0.042 SA
BRANCH  11  12
HETATM   12  C1  UNL     1      14.568  -7.702 -11.158  1.00  0.00     0.160 C 
HETATM   13  S1  UNL     1      14.172  -6.207 -10.532  1.00  0.00    -0.052 SA
BRANCH  12  14
HETATM   14  N1  UNL     1      13.747  -8.135 -12.199  1.00  0.00    -0.173 N 
ATOM     15  H1  UNL     1      14.034  -7.907 -13.151  1.00  0.00     0.185 HD
BRANCH  14  16
HETATM   16  C2  UNL     1      12.654  -8.802 -12.051  1.00  0.00     0.705 A 
HETATM   17  N2  UNL     1      11.579  -8.654 -12.821  1.00  0.00    -0.178 N 
HETATM   18  C3  UNL     1      10.638  -9.521 -12.361  1.00  0.00     0.276 A 
ATOM     19  H2  UNL     1      11.479  -8.011 -13.608  1.00  0.00     0.185 HD
HETATM   20  O1  UNL     1      11.172 -10.143 -11.353  1.00  0.00    -0.218 OA
HETATM   21  N3  UNL     1      12.394  -9.732 -11.139  1.00  0.00    -0.090 N 
ATOM     22  H3  UNL     1      13.027 -10.061 -10.410  1.00  0.00     0.213 HD
ENDBRANCH  14  16
ENDBRANCH  12  14
ENDBRANCH  11  12
ENDBRANCH   8  11
ENDBRANCH   1   4
TORSDOF 5
ENDMDL
MODEL 5
REMARK VINA RESULT: -6.086999347      3.551      5.612
REMARK  5 active torsions:
REMARK  status: ('A' for Active; 'I' for Inactive)
REMARK    1  A    between atoms: C1_2  and  N1_3 
REMARK    2  A    between atoms: C1_2  and  S2_12 
REMARK    3  A    between atoms: N1_3  and  C2_5 
REMARK    4  A    between atoms: S2_12  and  C4_13 
REMARK    5  A    between atoms: C8_17  and  C9_18 
ROOT
HETATM    1  C9  UNL     1      14.483 -10.442  -5.221  1.00  0.00    -0.032 C 
HETATM    2  C10 UNL     1      13.933 -10.896  -4.251  1.00  0.00     0.011 C 
HETATM    3 CL1  UNL     1      13.125 -11.539  -2.849  1.00  0.00    -0.023 Cl
ENDROOT
BRANCH   1   4
HETATM    4  C8  UNL     1      15.131  -9.909  -6.402  1.00  0.00     0.088 A 
HETATM    5  C7  UNL     1      16.280 -10.481  -6.908  1.00  0.00     0.039 A 
HETATM    6  C6  UNL     1      16.906  -9.989  -8.025  1.00  0.00     0.006 A 
HETATM    7  C5  UNL     1      16.383  -8.874  -8.686  1.00  0.00     0.037 A 
HETATM    8  C4  UNL     1      15.245  -8.314  -8.176  1.00  0.00     0.077 A 
HETATM    9  N4  UNL     1      14.658  -8.852  -7.050  1.00  0.00    -0.344 N 
ATOM     10  H4  UNL     1      13.811  -8.410  -6.693  1.00  0.00     0.167 HD
BRANCH   8  11
HETATM   11  S2  UNL     1      14.434  -6.910  -8.861  1.00  0.00    -0.042 SA
BRANCH  11  12
HETATM   12  C1  UNL     1      14.330  -6.796 -10.576  1.00  0.00     0.160 C 
HETATM   13  S1  UNL     1      13.653  -5.440 -11.274  1.00  0.00    -0.052 SA
BRANCH  12  14
HETATM   14  N1  UNL     1      14.773  -7.760 -11.481  1.00  0.00    -0.173 N 
ATOM     15  H1  UNL     1      15.605  -7.543 -12.031  1.00  0.00     0.185 HD
BRANCH  14  16
HETATM   16  C2  UNL     1      14.213  -8.904 -11.677  1.00  0.00     0.705 A 
HETATM   17  N2  UNL     1      12.896  -9.095 -11.708  1.00  0.00    -0.178 N 
HETATM   18  C3  UNL     1      12.692 -10.420 -11.936  1.00  0.00     0.276 A 
ATOM     19  H2  UNL     1      12.176  -8.383 -11.584  1.00  0.00     0.185 HD
HETATM   20  O1  UNL     1      13.869 -10.963 -12.031  1.00  0.00    -0.218 OA
HETATM   21  N3  UNL     1      14.813 -10.072 -11.880  1.00  0.00    -0.090 N 
ATOM     22  H3  UNL     1      15.818 -10.240 -11.911  1.00  0.00     0.213 HD
ENDBRANCH  14  16
ENDBRANCH  12  14
ENDBRANCH  11  12
ENDBRANCH   8  11
ENDBRANCH   1   4
TORSDOF 5
ENDMDL
