MODEL 1
REMARK VINA RESULT: -7.149955604      0.000      0.000
REMARK  3 active torsions:
REMARK  status: ('A' for Active; 'I' for Inactive)
REMARK    1  A    between atoms: C5_6  and  O2_7 
REMARK    2  A    between atoms: C8_11  and  C9_12 
REMARK    3  A    between atoms: C10_17  and  C11_18 
ROOT
HETATM    1  O1  UNL     1      14.952  -6.304  -8.463  1.00  0.00    -0.297 OA
HETATM    2  C1  UNL     1      14.524  -6.917  -9.435  1.00  0.00     0.143 C 
HETATM    3  C2  UNL     1      14.404  -6.177 -10.692  1.00  0.00     0.080 C 
HETATM    4  C3  UNL     1      15.232  -6.621 -11.810  1.00  0.00     0.015 C 
HETATM    5  C4  UNL     1      15.208  -7.996 -12.286  1.00  0.00     0.020 C 
HETATM    6  C5  UNL     1      13.902  -8.658 -12.481  1.00  0.00     0.127 C 
HETATM    7  C6  UNL     1      14.207  -9.518 -11.249  1.00  0.00     0.021 C 
HETATM    8  C7  UNL     1      13.460  -9.066 -10.069  1.00  0.00     0.033 C 
HETATM    9  C8  UNL     1      14.230  -8.316  -9.046  1.00  0.00     0.087 C 
HETATM   10  C12 UNL     1      15.557  -9.003  -8.857  1.00  0.00     0.026 C 
HETATM   11  C13 UNL     1      16.338  -8.715 -10.148  1.00  0.00     0.007 C 
HETATM   12  C14 UNL     1      15.629  -9.077 -11.374  1.00  0.00    -0.001 C 
ENDROOT
BRANCH   9  13
HETATM   13  C9  UNL     1      13.428  -8.264  -7.773  1.00  0.00     0.156 A 
HETATM   14  N1  UNL     1      12.985  -7.161  -7.144  1.00  0.00    -0.280 N 
HETATM   15  N2  UNL     1      12.321  -7.524  -6.061  1.00  0.00    -0.281 N 
ATOM     16  H1  UNL     1      13.137  -6.202  -7.454  1.00  0.00     0.189 HD
HETATM   17  C10 UNL     1      12.348  -8.867  -6.011  1.00  0.00     0.154 A 
ATOM     18  H2  UNL     1      11.873  -6.902  -5.388  1.00  0.00     0.189 HD
HETATM   19  O3  UNL     1      13.020  -9.276  -7.053  1.00  0.00    -0.280 OA
BRANCH  17  20
HETATM   20  C11 UNL     1      11.713  -9.728  -4.942  1.00  0.00     0.200 C 
HETATM   21 CL1  UNL     1      12.941 -10.710  -4.159  1.00  0.00    -0.122 Cl
ENDBRANCH  17  20
ENDBRANCH   9  13
BRANCH   6  22
HETATM   22  O2  UNL     1      12.753  -7.930 -12.412  1.00  0.00    -0.395 OA
ATOM     23  H2  UNL     1      12.066  -8.185 -11.807  1.00  0.00     0.210 HD
ENDBRANCH   6  22
TORSDOF 3
ENDMDL
MODEL 2
REMARK VINA RESULT: -7.037699578      1.162      1.162
REMARK  3 active torsions:
REMARK  status: ('A' for Active; 'I' for Inactive)
REMARK    1  A    between atoms: C5_6  and  O2_7 
REMARK    2  A    between atoms: C8_11  and  C9_12 
REMARK    3  A    between atoms: C10_17  and  C11_18 
ROOT
HETATM    1  O1  UNL     1      14.961  -6.762  -8.339  1.00  0.00    -0.297 OA
HETATM    2  C1  UNL     1      14.503  -7.201  -9.389  1.00  0.00     0.143 C 
HETATM    3  C2  UNL     1      14.203  -6.232 -10.444  1.00  0.00     0.080 C 
HETATM    4  C3  UNL     1      14.964  -6.340 -11.687  1.00  0.00     0.015 C 
HETATM    5  C4  UNL     1      15.020  -7.579 -12.447  1.00  0.00     0.020 C 
HETATM    6  C5  UNL     1      13.768  -8.323 -12.690  1.00  0.00     0.127 C 
HETATM    7  C6  UNL     1      14.260  -9.383 -11.699  1.00  0.00     0.021 C 
HETATM    8  C7  UNL     1      13.585  -9.272 -10.400  1.00  0.00     0.033 C 
HETATM    9  C8  UNL     1      14.374  -8.674  -9.294  1.00  0.00     0.087 C 
HETATM   10  C12 UNL     1      15.769  -9.238  -9.351  1.00  0.00     0.026 C 
HETATM   11  C13 UNL     1      16.401  -8.604 -10.600  1.00  0.00     0.007 C 
HETATM   12  C14 UNL     1      15.618  -8.775 -11.823  1.00  0.00    -0.001 C 
ENDROOT
BRANCH   9  13
HETATM   13  C9  UNL     1      13.689  -8.976  -7.988  1.00  0.00     0.156 A 
HETATM   14  N1  UNL     1      14.281  -9.255  -6.813  1.00  0.00    -0.280 N 
HETATM   15  N2  UNL     1      13.347  -9.464  -5.902  1.00  0.00    -0.281 N 
ATOM     16  H1  UNL     1      15.287  -9.297  -6.652  1.00  0.00     0.189 HD
HETATM   17  C10 UNL     1      12.159  -9.313  -6.512  1.00  0.00     0.154 A 
ATOM     18  H2  UNL     1      13.500  -9.696  -4.921  1.00  0.00     0.189 HD
HETATM   19  O3  UNL     1      12.403  -9.022  -7.761  1.00  0.00    -0.280 OA
BRANCH  17  20
HETATM   20  C11 UNL     1      10.802  -9.458  -5.860  1.00  0.00     0.200 C 
HETATM   21 CL1  UNL     1      10.748  -8.519  -4.376  1.00  0.00    -0.122 Cl
ENDBRANCH  17  20
ENDBRANCH   9  13
BRANCH   6  22
HETATM   22  O2  UNL     1      12.569  -7.753 -12.385  1.00  0.00    -0.395 OA
ATOM     23  H2  UNL     1      12.252  -7.014 -12.892  1.00  0.00     0.210 HD
ENDBRANCH   6  22
TORSDOF 3
ENDMDL
MODEL 3
REMARK VINA RESULT: -6.628974205      1.257      1.278
REMARK  3 active torsions:
REMARK  status: ('A' for Active; 'I' for Inactive)
REMARK    1  A    between atoms: C5_6  and  O2_7 
REMARK    2  A    between atoms: C8_11  and  C9_12 
REMARK    3  A    between atoms: C10_17  and  C11_18 
ROOT
HETATM    1  O1  UNL     1      15.327  -6.630  -8.427  1.00  0.00    -0.297 OA
HETATM    2  C1  UNL     1      14.743  -7.088  -9.404  1.00  0.00     0.143 C 
HETATM    3  C2  UNL     1      14.179  -6.131 -10.356  1.00  0.00     0.080 C 
HETATM    4  C3  UNL     1      14.726  -6.132 -11.710  1.00  0.00     0.015 C 
HETATM    5  C4  UNL     1      14.773  -7.341 -12.518  1.00  0.00     0.020 C 
HETATM    6  C5  UNL     1      13.575  -8.202 -12.581  1.00  0.00     0.127 C 
HETATM    7  C6  UNL     1      14.327  -9.230 -11.727  1.00  0.00     0.021 C 
HETATM    8  C7  UNL     1      13.872  -9.218 -10.331  1.00  0.00     0.033 C 
HETATM    9  C8  UNL     1      14.774  -8.569  -9.348  1.00  0.00     0.087 C 
HETATM   10  C12 UNL     1      16.188  -8.987  -9.657  1.00  0.00     0.026 C 
HETATM   11  C13 UNL     1      16.536  -8.263 -10.966  1.00  0.00     0.007 C 
HETATM   12  C14 UNL     1      15.580  -8.485 -12.049  1.00  0.00    -0.001 C 
ENDROOT
BRANCH   9  13
HETATM   13  C9  UNL     1      14.351  -8.969  -7.960  1.00  0.00     0.156 A 
HETATM   14  N1  UNL     1      13.233  -8.588  -7.317  1.00  0.00    -0.280 N 
HETATM   15  N2  UNL     1      13.217  -9.147  -6.119  1.00  0.00    -0.281 N 
ATOM     16  H1  UNL     1      12.516  -7.969  -7.693  1.00  0.00     0.189 HD
HETATM   17  C10 UNL     1      14.335  -9.886  -6.012  1.00  0.00     0.154 A 
ATOM     18  H2  UNL     1      12.492  -9.037  -5.410  1.00  0.00     0.189 HD
HETATM   19  O3  UNL     1      14.990  -9.755  -7.134  1.00  0.00    -0.280 OA
BRANCH  17  20
HETATM   20  C11 UNL     1      14.743 -10.708  -4.810  1.00  0.00     0.200 C 
HETATM   21 CL1  UNL     1      13.345 -11.007  -3.788  1.00  0.00    -0.122 Cl
ENDBRANCH  17  20
ENDBRANCH   9  13
BRANCH   6  22
HETATM   22  O2  UNL     1      12.395  -7.765 -12.060  1.00  0.00    -0.395 OA
ATOM     23  H2  UNL     1      11.868  -8.347 -11.526  1.00  0.00     0.210 HD
ENDBRANCH   6  22
TORSDOF 3
ENDMDL
MODEL 4
REMARK VINA RESULT: -6.615896191      1.685      2.646
REMARK  3 active torsions:
REMARK  status: ('A' for Active; 'I' for Inactive)
REMARK    1  A    between atoms: C5_6  and  O2_7 
REMARK    2  A    between atoms: C8_11  and  C9_12 
REMARK    3  A    between atoms: C10_17  and  C11_18 
ROOT
HETATM    1  O1  UNL     1      12.573  -8.704 -10.513  1.00  0.00    -0.297 OA
HETATM    2  C1  UNL     1      13.706  -9.174 -10.518  1.00  0.00     0.143 C 
HETATM    3  C2  UNL     1      13.955 -10.307 -11.409  1.00  0.00     0.080 C 
HETATM    4  C3  UNL     1      14.918 -10.110 -12.489  1.00  0.00     0.015 C 
HETATM    5  C4  UNL     1      16.273  -9.646 -12.234  1.00  0.00     0.020 C 
HETATM    6  C5  UNL     1      17.042 -10.263 -11.135  1.00  0.00     0.127 C 
HETATM    7  C6  UNL     1      16.881  -8.955 -10.351  1.00  0.00     0.021 C 
HETATM    8  C7  UNL     1      15.864  -9.070  -9.299  1.00  0.00     0.033 C 
HETATM    9  C8  UNL     1      14.557  -8.419  -9.568  1.00  0.00     0.087 C 
HETATM   10  C12 UNL     1      14.820  -7.074 -10.192  1.00  0.00     0.026 C 
HETATM   11  C13 UNL     1      15.340  -7.388 -11.604  1.00  0.00     0.007 C 
HETATM   12  C14 UNL     1      16.472  -8.311 -11.636  1.00  0.00    -0.001 C 
ENDROOT
BRANCH   9  13
HETATM   13  C9  UNL     1      13.792  -8.310  -8.277  1.00  0.00     0.156 A 
HETATM   14  N1  UNL     1      13.492  -7.181  -7.611  1.00  0.00    -0.280 N 
HETATM   15  N2  UNL     1      12.811  -7.494  -6.522  1.00  0.00    -0.281 N 
ATOM     16  H1  UNL     1      13.748  -6.237  -7.900  1.00  0.00     0.189 HD
HETATM   17  C10 UNL     1      12.684  -8.832  -6.507  1.00  0.00     0.154 A 
ATOM     18  H2  UNL     1      12.452  -6.842  -5.825  1.00  0.00     0.189 HD
HETATM   19  O3  UNL     1      13.283  -9.287  -7.573  1.00  0.00    -0.280 OA
BRANCH  17  20
HETATM   20  C11 UNL     1      11.975  -9.643  -5.445  1.00  0.00     0.200 C 
HETATM   21 CL1  UNL     1      10.772  -8.650  -4.637  1.00  0.00    -0.122 Cl
ENDBRANCH  17  20
ENDBRANCH   9  13
BRANCH   6  22
HETATM   22  O2  UNL     1      16.565 -11.376 -10.512  1.00  0.00    -0.395 OA
ATOM     23  H2  UNL     1      15.888 -11.295  -9.850  1.00  0.00     0.210 HD
ENDBRANCH   6  22
TORSDOF 3
ENDMDL
MODEL 5
REMARK VINA RESULT: -6.381148055      2.289      3.266
REMARK  3 active torsions:
REMARK  status: ('A' for Active; 'I' for Inactive)
REMARK    1  A    between atoms: C5_6  and  O2_7 
REMARK    2  A    between atoms: C8_11  and  C9_12 
REMARK    3  A    between atoms: C10_17  and  C11_18 
ROOT
HETATM    1  O1  UNL     1      14.309  -7.326 -11.742  1.00  0.00    -0.297 OA
HETATM    2  C1  UNL     1      13.283  -7.952 -11.987  1.00  0.00     0.143 C 
HETATM    3  C2  UNL     1      12.279  -7.290 -12.821  1.00  0.00     0.080 C 
HETATM    4  C3  UNL     1      11.979  -7.897 -14.115  1.00  0.00     0.015 C 
HETATM    5  C4  UNL     1      11.575  -9.289 -14.236  1.00  0.00     0.020 C 
HETATM    6  C5  UNL     1      10.550  -9.816 -13.312  1.00  0.00     0.127 C 
HETATM    7  C6  UNL     1      11.655 -10.618 -12.617  1.00  0.00     0.021 C 
HETATM    8  C7  UNL     1      12.055 -10.009 -11.343  1.00  0.00     0.033 C 
HETATM    9  C8  UNL     1      13.349  -9.281 -11.335  1.00  0.00     0.087 C 
HETATM   10  C12 UNL     1      14.353 -10.096 -12.107  1.00  0.00     0.026 C 
HETATM   11  C13 UNL     1      13.909  -9.983 -13.574  1.00  0.00     0.007 C 
HETATM   12  C14 UNL     1      12.513 -10.346 -13.809  1.00  0.00    -0.001 C 
ENDROOT
BRANCH   9  13
HETATM   13  C9  UNL     1      13.772  -9.055  -9.908  1.00  0.00     0.156 A 
HETATM   14  N1  UNL     1      15.023  -8.842  -9.464  1.00  0.00    -0.280 N 
HETATM   15  N2  UNL     1      14.990  -8.689  -8.151  1.00  0.00    -0.281 N 
ATOM     16  H1  UNL     1      15.860  -8.804 -10.045  1.00  0.00     0.189 HD
HETATM   17  C10 UNL     1      13.706  -8.807  -7.771  1.00  0.00     0.154 A 
ATOM     18  H2  UNL     1      15.789  -8.515  -7.542  1.00  0.00     0.189 HD
HETATM   19  O3  UNL     1      13.005  -9.026  -8.851  1.00  0.00    -0.280 OA
BRANCH  17  20
HETATM   20  C11 UNL     1      13.187  -8.702  -6.355  1.00  0.00     0.200 C 
HETATM   21 CL1  UNL     1      11.564  -9.369  -6.262  1.00  0.00    -0.122 Cl
ENDBRANCH  17  20
ENDBRANCH   9  13
BRANCH   6  22
HETATM   22  O2  UNL     1       9.858  -8.962 -12.508  1.00  0.00    -0.395 OA
ATOM     23  H2  UNL     1      10.303  -8.227 -12.102  1.00  0.00     0.210 HD
ENDBRANCH   6  22
TORSDOF 3
ENDMDL
