MODEL 1
REMARK VINA RESULT: -6.251216529      0.000      0.000
REMARK  8 active torsions:
REMARK  status: ('A' for Active; 'I' for Inactive)
REMARK    1  A    between atoms: N1_1  and  C1_4 
REMARK    2  A    between atoms: C4_15  and  C5_16 
REMARK    3  A    between atoms: N7_17  and  N8_19 
REMARK    4  A    between atoms: N8_19  and  N9_20 
REMARK       I    between atoms: N8_19  and  C8_33 
REMARK    5  A    between atoms: C6_22  and  C7_24 
REMARK    6  A    between atoms: C7_24  and  N11_25 
REMARK    7  A    between atoms: C7_24  and  N12_29 
REMARK    8  A    between atoms: N14_35  and  N15_37 
ROOT
HETATM    1  N8  UNL     1      23.022  23.485  22.088  1.00  0.00    -0.163 N 
HETATM    2  C8  UNL     1      22.002  23.123  23.043  1.00  0.00     0.244 C 
HETATM    3  N13 UNL     1      21.747  23.885  24.208  1.00  0.00    -0.059 NA
HETATM    4  N14 UNL     1      21.305  22.069  22.796  1.00  0.00    -0.277 N 
ATOM      5  H14 UNL     1      21.500  21.541  21.945  1.00  0.00     0.189 HD
ENDROOT
BRANCH   1   6
HETATM    6  N7  UNL     1      24.117  24.198  22.347  1.00  0.00    -0.286 N 
HETATM    7  C5  UNL     1      24.422  25.385  22.345  1.00  0.00     0.140 C 
ATOM      8  H7  UNL     1      24.901  23.604  22.616  1.00  0.00     0.188 HD
BRANCH   7   9
HETATM    9  C4  UNL     1      23.573  26.508  22.020  1.00  0.00     0.068 A 
HETATM   10  N6  UNL     1      22.892  26.629  20.892  1.00  0.00    -0.283 N 
HETATM   11  N5  UNL     1      22.142  27.703  20.625  1.00  0.00    -0.221 N 
ATOM     12  H6  UNL     1      22.941  25.878  20.203  1.00  0.00     0.188 HD
HETATM   13  N4  UNL     1      22.001  28.731  21.435  1.00  0.00    -0.180 N 
ATOM     14  H5  UNL     1      21.645  27.727  19.735  1.00  0.00     0.210 HD
HETATM   15  N3  UNL     1      21.255  29.778  21.123  1.00  0.00    -0.287 N 
HETATM   16  C10 UNL     1      22.673  28.688  22.626  1.00  0.00     0.106 A 
HETATM   17  C3  UNL     1      21.104  30.851  21.930  1.00  0.00     0.138 A 
ATOM     18  H3  UNL     1      20.770  29.775  20.226  1.00  0.00     0.188 HD
HETATM   19  C2  UNL     1      21.758  30.859  23.141  1.00  0.00     0.091 A 
HETATM   20  C1  UNL     1      22.535  29.763  23.460  1.00  0.00     0.082 A 
HETATM   21  N2  UNL     1      21.673  31.935  24.063  1.00  0.00    -0.098 NA
HETATM   22  C9  UNL     1      23.444  27.590  22.905  1.00  0.00     0.068 A 
BRANCH  20  23
HETATM   23  N1  UNL     1      23.158  29.748  24.589  1.00  0.00    -0.396 N 
ATOM     24  H12 UNL     1      23.190  28.875  25.114  1.00  0.00     0.156 HD
ATOM     25  H11 UNL     1      23.599  30.607  24.920  1.00  0.00     0.156 HD
ENDBRANCH  20  23
ENDBRANCH   7   9
ENDBRANCH   1   6
BRANCH   1  26
HETATM   26  N9  UNL     1      22.804  23.070  20.727  1.00  0.00    -0.264 N 
HETATM   27  C6  UNL     1      23.503  22.076  20.336  1.00  0.00     0.167 C 
HETATM   28  N10 UNL     1      24.421  21.452  21.210  1.00  0.00    -0.082 NA
ATOM     29  H9  UNL     1      22.136  23.538  20.116  1.00  0.00     0.190 HD
BRANCH  27  30
HETATM   30  C7  UNL     1      23.364  21.551  18.956  1.00  0.00     0.443 C 
BRANCH  30  31
HETATM   31  N11 UNL     1      23.753  22.563  17.975  1.00  0.00    -0.044 N 
ATOM     32 3H11 UNL     1      23.492  23.502  18.277  1.00  0.00     0.277 HD
ATOM     33 2H11 UNL     1      24.765  22.688  17.942  1.00  0.00     0.277 HD
ATOM     34 1H11 UNL     1      23.370  22.343  17.056  1.00  0.00     0.277 HD
ENDBRANCH  30  31
BRANCH  30  35
HETATM   35  N12 UNL     1      24.184  20.351  18.776  1.00  0.00    -0.044 N 
ATOM     36 3H12 UNL     1      24.885  20.477  18.046  1.00  0.00     0.277 HD
ATOM     37 2H12 UNL     1      24.812  20.199  19.566  1.00  0.00     0.277 HD
ATOM     38 1H12 UNL     1      23.595  19.537  18.599  1.00  0.00     0.277 HD
ENDBRANCH  30  35
ENDBRANCH  27  30
ENDBRANCH   1  26
BRANCH   4  39
HETATM   39  N15 UNL     1      20.302  21.623  23.639  1.00  0.00    -0.343 N 
ATOM     40 2H15 UNL     1      19.728  22.326  24.105  1.00  0.00     0.176 HD
ATOM     41 1H15 UNL     1      20.124  20.633  23.806  1.00  0.00     0.176 HD
ENDBRANCH   4  39
TORSDOF 8
ENDMDL
MODEL 2
REMARK VINA RESULT: -6.229387266      1.732      2.315
REMARK  8 active torsions:
REMARK  status: ('A' for Active; 'I' for Inactive)
REMARK    1  A    between atoms: N1_1  and  C1_4 
REMARK    2  A    between atoms: C4_15  and  C5_16 
REMARK    3  A    between atoms: N7_17  and  N8_19 
REMARK    4  A    between atoms: N8_19  and  N9_20 
REMARK       I    between atoms: N8_19  and  C8_33 
REMARK    5  A    between atoms: C6_22  and  C7_24 
REMARK    6  A    between atoms: C7_24  and  N11_25 
REMARK    7  A    between atoms: C7_24  and  N12_29 
REMARK    8  A    between atoms: N14_35  and  N15_37 
ROOT
HETATM    1  N8  UNL     1      22.186  23.633  24.187  1.00  0.00    -0.163 N 
HETATM    2  C8  UNL     1      21.198  23.886  25.209  1.00  0.00     0.244 C 
HETATM    3  N13 UNL     1      21.190  25.071  25.983  1.00  0.00    -0.059 NA
HETATM    4  N14 UNL     1      20.295  22.988  25.396  1.00  0.00    -0.277 N 
ATOM      5  H14 UNL     1      20.313  22.147  24.820  1.00  0.00     0.189 HD
ENDROOT
BRANCH   1   6
HETATM    6  N7  UNL     1      23.414  24.147  24.145  1.00  0.00    -0.286 N 
HETATM    7  C5  UNL     1      23.961  25.092  23.587  1.00  0.00     0.140 C 
ATOM      8  H7  UNL     1      24.066  23.618  24.724  1.00  0.00     0.188 HD
BRANCH   7   9
HETATM    9  C4  UNL     1      23.354  26.055  22.698  1.00  0.00     0.068 A 
HETATM   10  N6  UNL     1      23.048  25.816  21.433  1.00  0.00    -0.283 N 
HETATM   11  N5  UNL     1      22.514  26.751  20.641  1.00  0.00    -0.221 N 
ATOM     12  H6  UNL     1      23.226  24.888  21.049  1.00  0.00     0.188 HD
HETATM   13  N4  UNL     1      22.239  27.981  21.023  1.00  0.00    -0.180 N 
ATOM     14  H5  UNL     1      22.305  26.495  19.676  1.00  0.00     0.210 HD
HETATM   15  N3  UNL     1      21.720  28.875  20.199  1.00  0.00    -0.287 N 
HETATM   16  C10 UNL     1      22.525  28.313  22.319  1.00  0.00     0.106 A 
HETATM   17  C3  UNL     1      21.440  30.147  20.562  1.00  0.00     0.138 A 
ATOM     18  H3  UNL     1      21.521  28.592  19.240  1.00  0.00     0.188 HD
HETATM   19  C2  UNL     1      21.708  30.534  21.855  1.00  0.00     0.091 A 
HETATM   20  C1  UNL     1      22.250  29.595  22.710  1.00  0.00     0.082 A 
HETATM   21  N2  UNL     1      21.457  31.844  22.342  1.00  0.00    -0.098 NA
HETATM   22  C9  UNL     1      23.073  27.359  23.136  1.00  0.00     0.068 A 
BRANCH  20  23
HETATM   23  N1  UNL     1      22.510  29.935  23.926  1.00  0.00    -0.396 N 
ATOM     24  H12 UNL     1      23.426  30.330  24.134  1.00  0.00     0.156 HD
ATOM     25  H11 UNL     1      21.793  29.800  24.640  1.00  0.00     0.156 HD
ENDBRANCH  20  23
ENDBRANCH   7   9
ENDBRANCH   1   6
BRANCH   1  26
HETATM   26  N9  UNL     1      21.780  22.784  23.099  1.00  0.00    -0.264 N 
HETATM   27  C6  UNL     1      22.332  21.633  23.064  1.00  0.00     0.167 C 
HETATM   28  N10 UNL     1      23.275  21.256  24.045  1.00  0.00    -0.082 NA
ATOM     29  H9  UNL     1      21.098  23.082  22.402  1.00  0.00     0.190 HD
BRANCH  27  30
HETATM   30  C7  UNL     1      21.992  20.665  21.993  1.00  0.00     0.443 C 
BRANCH  30  31
HETATM   31  N11 UNL     1      20.623  20.178  22.149  1.00  0.00    -0.044 N 
ATOM     32 3H11 UNL     1      20.443  19.854  23.100  1.00  0.00     0.277 HD
ATOM     33 2H11 UNL     1      19.945  20.940  22.115  1.00  0.00     0.277 HD
ATOM     34 1H11 UNL     1      20.414  19.457  21.459  1.00  0.00     0.277 HD
ENDBRANCH  30  31
BRANCH  30  35
HETATM   35  N12 UNL     1      22.148  21.282  20.673  1.00  0.00    -0.044 N 
ATOM     36 3H12 UNL     1      22.891  21.981  20.667  1.00  0.00     0.277 HD
ATOM     37 2H12 UNL     1      22.545  20.631  19.996  1.00  0.00     0.277 HD
ATOM     38 1H12 UNL     1      21.261  21.669  20.351  1.00  0.00     0.277 HD
ENDBRANCH  30  35
ENDBRANCH  27  30
ENDBRANCH   1  26
BRANCH   4  39
HETATM   39  N15 UNL     1      19.298  23.119  26.348  1.00  0.00    -0.343 N 
ATOM     40 2H15 UNL     1      19.529  23.613  27.210  1.00  0.00     0.176 HD
ATOM     41 1H15 UNL     1      18.359  22.743  26.217  1.00  0.00     0.176 HD
ENDBRANCH   4  39
TORSDOF 8
ENDMDL
MODEL 3
REMARK VINA RESULT: -6.182890958      2.248      4.191
REMARK  8 active torsions:
REMARK  status: ('A' for Active; 'I' for Inactive)
REMARK    1  A    between atoms: N1_1  and  C1_4 
REMARK    2  A    between atoms: C4_15  and  C5_16 
REMARK    3  A    between atoms: N7_17  and  N8_19 
REMARK    4  A    between atoms: N8_19  and  N9_20 
REMARK       I    between atoms: N8_19  and  C8_33 
REMARK    5  A    between atoms: C6_22  and  C7_24 
REMARK    6  A    between atoms: C7_24  and  N11_25 
REMARK    7  A    between atoms: C7_24  and  N12_29 
REMARK    8  A    between atoms: N14_35  and  N15_37 
ROOT
HETATM    1  N8  UNL     1      22.477  23.611  24.259  1.00  0.00    -0.163 N 
HETATM    2  C8  UNL     1      22.188  22.311  23.703  1.00  0.00     0.244 C 
HETATM    3  N13 UNL     1      23.180  21.313  23.549  1.00  0.00    -0.059 NA
HETATM    4  N14 UNL     1      20.973  22.073  23.352  1.00  0.00    -0.277 N 
ATOM      5  H14 UNL     1      20.273  22.803  23.482  1.00  0.00     0.189 HD
ENDROOT
BRANCH   1   6
HETATM    6  N7  UNL     1      23.660  24.222  24.243  1.00  0.00    -0.286 N 
HETATM    7  C5  UNL     1      24.141  25.208  23.695  1.00  0.00     0.140 C 
ATOM      8  H7  UNL     1      24.340  23.749  24.839  1.00  0.00     0.188 HD
BRANCH   7   9
HETATM    9  C4  UNL     1      23.479  26.117  22.789  1.00  0.00     0.068 A 
HETATM   10  N6  UNL     1      23.138  25.819  21.546  1.00  0.00    -0.283 N 
HETATM   11  N5  UNL     1      22.552  26.707  20.736  1.00  0.00    -0.221 N 
ATOM     12  H6  UNL     1      23.328  24.881  21.195  1.00  0.00     0.188 HD
HETATM   13  N4  UNL     1      22.257  27.943  21.078  1.00  0.00    -0.180 N 
ATOM     14  H5  UNL     1      22.318  26.406  19.790  1.00  0.00     0.210 HD
HETATM   15  N3  UNL     1      21.686  28.790  20.237  1.00  0.00    -0.287 N 
HETATM   16  C10 UNL     1      22.576  28.336  22.349  1.00  0.00     0.106 A 
HETATM   17  C3  UNL     1      21.384  30.068  20.558  1.00  0.00     0.138 A 
ATOM     18  H3  UNL     1      21.463  28.462  19.297  1.00  0.00     0.188 HD
HETATM   19  C2  UNL     1      21.684  30.515  21.825  1.00  0.00     0.091 A 
HETATM   20  C1  UNL     1      22.280  29.625  22.697  1.00  0.00     0.082 A 
HETATM   21  N2  UNL     1      21.414  31.836  22.266  1.00  0.00    -0.098 NA
HETATM   22  C9  UNL     1      23.177  27.431  23.184  1.00  0.00     0.068 A 
BRANCH  20  23
HETATM   23  N1  UNL     1      22.571  30.022  23.889  1.00  0.00    -0.396 N 
ATOM     24  H12 UNL     1      22.154  29.531  24.679  1.00  0.00     0.156 HD
ATOM     25  H11 UNL     1      23.207  30.810  24.004  1.00  0.00     0.156 HD
ENDBRANCH  20  23
ENDBRANCH   7   9
ENDBRANCH   1   6
BRANCH   1  26
HETATM   26  N9  UNL     1      21.391  24.279  24.928  1.00  0.00    -0.264 N 
HETATM   27  C6  UNL     1      21.429  24.250  26.204  1.00  0.00     0.167 C 
HETATM   28  N10 UNL     1      22.483  23.595  26.878  1.00  0.00    -0.082 NA
ATOM     29  H9  UNL     1      20.641  24.743  24.417  1.00  0.00     0.190 HD
BRANCH  27  30
HETATM   30  C7  UNL     1      20.369  24.907  27.006  1.00  0.00     0.443 C 
BRANCH  30  31
HETATM   31  N11 UNL     1      20.600  26.348  27.090  1.00  0.00    -0.044 N 
ATOM     32 3H11 UNL     1      19.734  26.860  27.260  1.00  0.00     0.277 HD
ATOM     33 2H11 UNL     1      21.099  26.602  27.943  1.00  0.00     0.277 HD
ATOM     34 1H11 UNL     1      21.081  26.687  26.257  1.00  0.00     0.277 HD
ENDBRANCH  30  31
BRANCH  30  35
HETATM   35  N12 UNL     1      19.050  24.652  26.423  1.00  0.00    -0.044 N 
ATOM     36 3H12 UNL     1      18.323  25.208  26.874  1.00  0.00     0.277 HD
ATOM     37 2H12 UNL     1      18.972  25.035  25.481  1.00  0.00     0.277 HD
ATOM     38 1H12 UNL     1      18.834  23.656  26.445  1.00  0.00     0.277 HD
ENDBRANCH  30  35
ENDBRANCH  27  30
ENDBRANCH   1  26
BRANCH   4  39
HETATM   39  N15 UNL     1      20.578  20.864  22.805  1.00  0.00    -0.343 N 
ATOM     40 2H15 UNL     1      20.713  20.732  21.802  1.00  0.00     0.176 HD
ATOM     41 1H15 UNL     1      20.164  20.117  23.362  1.00  0.00     0.176 HD
ENDBRANCH   4  39
TORSDOF 8
ENDMDL
MODEL 4
REMARK VINA RESULT: -6.077291305      1.188      3.106
REMARK  8 active torsions:
REMARK  status: ('A' for Active; 'I' for Inactive)
REMARK    1  A    between atoms: N1_1  and  C1_4 
REMARK    2  A    between atoms: C4_15  and  C5_16 
REMARK    3  A    between atoms: N7_17  and  N8_19 
REMARK    4  A    between atoms: N8_19  and  N9_20 
REMARK       I    between atoms: N8_19  and  C8_33 
REMARK    5  A    between atoms: C6_22  and  C7_24 
REMARK    6  A    between atoms: C7_24  and  N11_25 
REMARK    7  A    between atoms: C7_24  and  N12_29 
REMARK    8  A    between atoms: N14_35  and  N15_37 
ROOT
HETATM    1  N8  UNL     1      23.447  23.017  21.924  1.00  0.00    -0.163 N 
HETATM    2  C8  UNL     1      23.874  22.530  20.634  1.00  0.00     0.244 C 
HETATM    3  N13 UNL     1      25.239  22.426  20.274  1.00  0.00    -0.059 NA
HETATM    4  N14 UNL     1      22.959  22.172  19.803  1.00  0.00    -0.277 N 
ATOM      5  H14 UNL     1      21.982  22.245  20.087  1.00  0.00     0.189 HD
ENDROOT
BRANCH   1   6
HETATM    6  N7  UNL     1      24.132  23.844  22.712  1.00  0.00    -0.286 N 
HETATM    7  C5  UNL     1      24.203  25.057  22.877  1.00  0.00     0.140 C 
ATOM      8  H7  UNL     1      24.759  23.339  23.339  1.00  0.00     0.188 HD
BRANCH   7   9
HETATM    9  C4  UNL     1      23.465  26.081  22.174  1.00  0.00     0.068 A 
HETATM   10  N6  UNL     1      23.002  25.957  20.941  1.00  0.00    -0.283 N 
HETATM   11  N5  UNL     1      22.349  26.946  20.323  1.00  0.00    -0.221 N 
ATOM     12  H6  UNL     1      23.149  25.077  20.446  1.00  0.00     0.188 HD
HETATM   13  N4  UNL     1      22.100  28.122  20.860  1.00  0.00    -0.180 N 
ATOM     14  H5  UNL     1      22.022  26.779  19.371  1.00  0.00     0.210 HD
HETATM   15  N3  UNL     1      21.458  29.075  20.204  1.00  0.00    -0.287 N 
HETATM   16  C10 UNL     1      22.544  28.335  22.136  1.00  0.00     0.106 A 
HETATM   17  C3  UNL     1      21.200  30.294  20.727  1.00  0.00     0.138 A 
ATOM     18  H3  UNL     1      21.142  28.879  19.254  1.00  0.00     0.188 HD
HETATM   19  C2  UNL     1      21.626  30.562  22.008  1.00  0.00     0.091 A 
HETATM   20  C1  UNL     1      22.295  29.562  22.687  1.00  0.00     0.082 A 
HETATM   21  N2  UNL     1      21.413  31.808  22.653  1.00  0.00    -0.098 NA
HETATM   22  C9  UNL     1      23.215  27.326  22.775  1.00  0.00     0.068 A 
BRANCH  20  23
HETATM   23  N1  UNL     1      22.703  29.790  23.888  1.00  0.00    -0.396 N 
ATOM     24  H12 UNL     1      22.972  28.996  24.468  1.00  0.00     0.156 HD
ATOM     25  H11 UNL     1      22.746  30.754  24.220  1.00  0.00     0.156 HD
ENDBRANCH  20  23
ENDBRANCH   7   9
ENDBRANCH   1   6
BRANCH   1  26
HETATM   26  N9  UNL     1      22.186  22.524  22.411  1.00  0.00    -0.264 N 
HETATM   27  C6  UNL     1      22.258  21.662  23.350  1.00  0.00     0.167 C 
HETATM   28  N10 UNL     1      23.511  21.242  23.849  1.00  0.00    -0.082 NA
ATOM     29  H9  UNL     1      21.295  22.842  22.031  1.00  0.00     0.190 HD
BRANCH  27  30
HETATM   30  C7  UNL     1      21.026  21.083  23.938  1.00  0.00     0.443 C 
BRANCH  30  31
HETATM   31  N11 UNL     1      20.303  22.085  24.720  1.00  0.00    -0.044 N 
ATOM     32 3H11 UNL     1      20.293  22.992  24.252  1.00  0.00     0.277 HD
ATOM     33 2H11 UNL     1      19.300  21.905  24.729  1.00  0.00     0.277 HD
ATOM     34 1H11 UNL     1      20.683  22.152  25.663  1.00  0.00     0.277 HD
ENDBRANCH  30  31
BRANCH  30  35
HETATM   35  N12 UNL     1      20.153  20.553  22.888  1.00  0.00    -0.044 N 
ATOM     36 3H12 UNL     1      20.084  21.191  22.096  1.00  0.00     0.277 HD
ATOM     37 2H12 UNL     1      20.576  19.759  22.409  1.00  0.00     0.277 HD
ATOM     38 1H12 UNL     1      19.236  20.320  23.268  1.00  0.00     0.277 HD
ENDBRANCH  30  35
ENDBRANCH  27  30
ENDBRANCH   1  26
BRANCH   4  39
HETATM   39  N15 UNL     1      23.248  21.691  18.537  1.00  0.00    -0.343 N 
ATOM     40 2H15 UNL     1      23.638  22.347  17.859  1.00  0.00     0.176 HD
ATOM     41 1H15 UNL     1      23.085  20.722  18.266  1.00  0.00     0.176 HD
ENDBRANCH   4  39
TORSDOF 8
ENDMDL
MODEL 5
REMARK VINA RESULT: -5.878805830      2.478      3.817
REMARK  8 active torsions:
REMARK  status: ('A' for Active; 'I' for Inactive)
REMARK    1  A    between atoms: N1_1  and  C1_4 
REMARK    2  A    between atoms: C4_15  and  C5_16 
REMARK    3  A    between atoms: N7_17  and  N8_19 
REMARK    4  A    between atoms: N8_19  and  N9_20 
REMARK       I    between atoms: N8_19  and  C8_33 
REMARK    5  A    between atoms: C6_22  and  C7_24 
REMARK    6  A    between atoms: C7_24  and  N11_25 
REMARK    7  A    between atoms: C7_24  and  N12_29 
REMARK    8  A    between atoms: N14_35  and  N15_37 
ROOT
HETATM    1  N8  UNL     1      25.872  25.648  21.010  1.00  0.00    -0.163 N 
HETATM    2  C8  UNL     1      27.036  26.432  21.346  1.00  0.00     0.244 C 
HETATM    3  N13 UNL     1      27.683  26.334  22.602  1.00  0.00    -0.059 NA
HETATM    4  N14 UNL     1      27.491  27.235  20.449  1.00  0.00    -0.277 N 
ATOM      5  H14 UNL     1      27.016  27.282  19.547  1.00  0.00     0.189 HD
ENDROOT
BRANCH   1   6
HETATM    6  N7  UNL     1      24.992  25.148  21.875  1.00  0.00    -0.286 N 
HETATM    7  C5  UNL     1      23.914  25.496  22.345  1.00  0.00     0.140 C 
ATOM      8  H7  UNL     1      25.290  24.243  22.240  1.00  0.00     0.188 HD
BRANCH   7   9
HETATM    9  C4  UNL     1      23.186  26.711  22.059  1.00  0.00     0.068 A 
HETATM   10  N6  UNL     1      22.592  26.974  20.907  1.00  0.00    -0.283 N 
HETATM   11  N5  UNL     1      21.954  28.127  20.682  1.00  0.00    -0.221 N 
ATOM     12  H6  UNL     1      22.621  26.274  20.166  1.00  0.00     0.188 HD
HETATM   13  N4  UNL     1      21.848  29.102  21.561  1.00  0.00    -0.180 N 
ATOM     14  H5  UNL     1      21.519  28.260  19.769  1.00  0.00     0.210 HD
HETATM   15  N3  UNL     1      21.215  30.231  21.288  1.00  0.00    -0.287 N 
HETATM   16  C10 UNL     1      22.436  28.913  22.781  1.00  0.00     0.106 A 
HETATM   17  C3  UNL     1      21.103  31.252  22.166  1.00  0.00     0.138 A 
ATOM     18  H3  UNL     1      20.790  30.337  20.367  1.00  0.00     0.188 HD
HETATM   19  C2  UNL     1      21.677  31.114  23.410  1.00  0.00     0.091 A 
HETATM   20  C1  UNL     1      22.336  29.933  23.687  1.00  0.00     0.082 A 
HETATM   21  N2  UNL     1      21.623  32.123  24.406  1.00  0.00    -0.098 NA
HETATM   22  C9  UNL     1      23.092  27.733  23.018  1.00  0.00     0.068 A 
BRANCH  20  23
HETATM   23  N1  UNL     1      22.881  29.781  24.845  1.00  0.00    -0.396 N 
ATOM     24  H12 UNL     1      22.944  30.590  25.462  1.00  0.00     0.156 HD
ATOM     25  H11 UNL     1      23.232  28.859  25.108  1.00  0.00     0.156 HD
ENDBRANCH  20  23
ENDBRANCH   7   9
ENDBRANCH   1   6
BRANCH   1  26
HETATM   26  N9  UNL     1      25.680  25.350  19.616  1.00  0.00    -0.264 N 
HETATM   27  C6  UNL     1      25.929  24.146  19.271  1.00  0.00     0.167 C 
HETATM   28  N10 UNL     1      26.364  23.199  20.223  1.00  0.00    -0.082 NA
ATOM     29  H9  UNL     1      25.367  26.054  18.947  1.00  0.00     0.190 HD
BRANCH  27  30
HETATM   30  C7  UNL     1      25.764  23.715  17.862  1.00  0.00     0.443 C 
BRANCH  30  31
HETATM   31  N11 UNL     1      24.355  23.470  17.556  1.00  0.00    -0.044 N 
ATOM     32 3H11 UNL     1      24.109  23.799  16.622  1.00  0.00     0.277 HD
ATOM     33 2H11 UNL     1      24.165  22.476  17.423  1.00  0.00     0.277 HD
ATOM     34 1H11 UNL     1      23.753  23.877  18.271  1.00  0.00     0.277 HD
ENDBRANCH  30  31
BRANCH  30  35
HETATM   35  N12 UNL     1      26.297  24.728  16.947  1.00  0.00    -0.044 N 
ATOM     36 3H12 UNL     1      26.393  25.636  17.402  1.00  0.00     0.277 HD
ATOM     37 2H12 UNL     1      27.280  24.562  16.730  1.00  0.00     0.277 HD
ATOM     38 1H12 UNL     1      25.727  24.784  16.103  1.00  0.00     0.277 HD
ENDBRANCH  30  35
ENDBRANCH  27  30
ENDBRANCH   1  26
BRANCH   4  39
HETATM   39  N15 UNL     1      28.599  28.038  20.658  1.00  0.00    -0.343 N 
ATOM     40 2H15 UNL     1      29.478  27.753  20.225  1.00  0.00     0.176 HD
ATOM     41 1H15 UNL     1      28.564  28.888  21.220  1.00  0.00     0.176 HD
ENDBRANCH   4  39
TORSDOF 8
ENDMDL
