MODEL 1
REMARK VINA RESULT: -5.744206239      0.000      0.000
REMARK  10 active torsions:
REMARK  status: ('A' for Active; 'I' for Inactive)
REMARK    1  A    between atoms: N1_1  and  N2_4 
REMARK    2  A    between atoms: N2_4  and  C1_5 
REMARK    3  A    between atoms: C1_5  and  O1_6 
REMARK    4  A    between atoms: C1_5  and  N3_8 
REMARK    5  A    between atoms: N3_8  and  C2_9 
REMARK    6  A    between atoms: N3_8  and  S1_27 
REMARK    7  A    between atoms: C2_9  and  N4_10 
REMARK    8  A    between atoms: C3_11  and  O2_12 
REMARK    9  A    between atoms: C4_14  and  O3_15 
REMARK   10  A    between atoms: S1_27  and  N7_28 
ROOT
HETATM    1  N4  UNL     1      22.043  30.548  23.675  1.00  0.00    -0.278 N 
HETATM    2  C3  UNL     1      21.872  31.044  22.415  1.00  0.00     0.184 A 
HETATM    3  C4  UNL     1      22.176  30.001  21.563  1.00  0.00     0.147 A 
HETATM    4  C5  UNL     1      22.520  28.903  22.306  1.00  0.00     0.107 A 
HETATM    5  N5  UNL     1      22.873  27.660  21.999  1.00  0.00    -0.304 N 
ATOM      6  H5  UNL     1      22.940  27.402  21.015  1.00  0.00     0.171 HD
HETATM    7  C6  UNL     1      23.150  26.718  22.935  1.00  0.00     0.327 A 
HETATM    8  O4  UNL     1      23.480  25.558  22.616  1.00  0.00    -0.247 OA
HETATM    9  N6  UNL     1      23.071  27.021  24.239  1.00  0.00    -0.273 N 
ATOM     10  H6  UNL     1      23.275  26.318  24.949  1.00  0.00     0.173 HD
HETATM   11  C7  UNL     1      22.716  28.276  24.595  1.00  0.00     0.279 A 
HETATM   12  O5  UNL     1      22.642  28.537  25.818  1.00  0.00    -0.265 OA
HETATM   13  C8  UNL     1      22.427  29.271  23.655  1.00  0.00     0.140 A 
ENDROOT
BRANCH   1  14
HETATM   14  C2  UNL     1      21.788  31.342  24.860  1.00  0.00     0.210 C 
BRANCH  14  15
HETATM   15  N3  UNL     1      20.504  31.435  25.343  1.00  0.00    -0.211 N 
BRANCH  15  16
HETATM   16  C1  UNL     1      20.355  30.846  26.660  1.00  0.00     0.355 C 
BRANCH  16  17
HETATM   17  N2  UNL     1      19.475  29.723  26.582  1.00  0.00    -0.094 NA
BRANCH  17  18
HETATM   18  N1  UNL     1      19.949  28.632  27.288  1.00  0.00    -0.344 N 
ATOM     19  H12 UNL     1      20.909  28.563  27.625  1.00  0.00     0.172 HD
ATOM     20  H11 UNL     1      19.233  27.919  27.428  1.00  0.00     0.172 HD
ENDBRANCH  17  18
ENDBRANCH  16  17
BRANCH  16  21
HETATM   21  O1  UNL     1      19.873  31.814  27.529  1.00  0.00    -0.361 OA
ATOM     22  H1  UNL     1      20.275  32.661  27.369  1.00  0.00     0.213 HD
ENDBRANCH  16  21
ENDBRANCH  15  16
BRANCH  15  23
HETATM   23  S1  UNL     1      19.499  32.757  25.109  1.00  0.00     0.323 S 
HETATM   24  O6  UNL     1      19.293  33.060  23.631  1.00  0.00    -0.182 OA
HETATM   25  O7  UNL     1      18.087  32.495  25.619  1.00  0.00    -0.182 OA
BRANCH  23  26
HETATM   26  N7  UNL     1      20.019  34.219  25.860  1.00  0.00    -0.311 N 
ATOM     27  H72 UNL     1      20.801  34.233  26.516  1.00  0.00     0.170 HD
ATOM     28  H71 UNL     1      19.492  35.053  25.601  1.00  0.00     0.170 HD
ENDBRANCH  23  26
ENDBRANCH  15  23
ENDBRANCH  14  15
ENDBRANCH   1  14
BRANCH   2  29
HETATM   29  O2  UNL     1      21.476  32.320  22.044  1.00  0.00    -0.344 OA
ATOM     30  H2  UNL     1      21.978  32.977  21.575  1.00  0.00     0.219 HD
ENDBRANCH   2  29
BRANCH   3  31
HETATM   31  O3  UNL     1      22.128  30.091  20.166  1.00  0.00    -0.355 OA
ATOM     32  H3  UNL     1      21.504  29.622  19.625  1.00  0.00     0.218 HD
ENDBRANCH   3  31
TORSDOF 10
ENDMDL
MODEL 2
REMARK VINA RESULT: -5.196734204      3.408      6.935
REMARK  10 active torsions:
REMARK  status: ('A' for Active; 'I' for Inactive)
REMARK    1  A    between atoms: N1_1  and  N2_4 
REMARK    2  A    between atoms: N2_4  and  C1_5 
REMARK    3  A    between atoms: C1_5  and  O1_6 
REMARK    4  A    between atoms: C1_5  and  N3_8 
REMARK    5  A    between atoms: N3_8  and  C2_9 
REMARK    6  A    between atoms: N3_8  and  S1_27 
REMARK    7  A    between atoms: C2_9  and  N4_10 
REMARK    8  A    between atoms: C3_11  and  O2_12 
REMARK    9  A    between atoms: C4_14  and  O3_15 
REMARK   10  A    between atoms: S1_27  and  N7_28 
ROOT
HETATM    1  N4  UNL     1      21.104  33.708  26.374  1.00  0.00    -0.278 N 
HETATM    2  C3  UNL     1      21.999  34.719  26.568  1.00  0.00     0.184 A 
HETATM    3  C4  UNL     1      21.239  35.844  26.815  1.00  0.00     0.147 A 
HETATM    4  C5  UNL     1      19.913  35.505  26.772  1.00  0.00     0.107 A 
HETATM    5  N5  UNL     1      18.785  36.183  26.954  1.00  0.00    -0.304 N 
ATOM      6  H5  UNL     1      18.844  37.181  27.157  1.00  0.00     0.171 HD
HETATM    7  C6  UNL     1      17.558  35.609  26.883  1.00  0.00     0.327 A 
HETATM    8  O4  UNL     1      16.516  36.271  27.057  1.00  0.00    -0.247 OA
HETATM    9  N6  UNL     1      17.442  34.299  26.620  1.00  0.00    -0.273 N 
ATOM     10  H6  UNL     1      16.523  33.859  26.566  1.00  0.00     0.173 HD
HETATM   11  C7  UNL     1      18.566  33.572  26.427  1.00  0.00     0.279 A 
HETATM   12  O5  UNL     1      18.436  32.349  26.188  1.00  0.00    -0.265 OA
HETATM   13  C8  UNL     1      19.845  34.134  26.491  1.00  0.00     0.140 A 
ENDROOT
BRANCH   1  14
HETATM   14  C2  UNL     1      21.519  32.344  26.115  1.00  0.00     0.210 C 
BRANCH  14  15
HETATM   15  N3  UNL     1      22.078  32.031  24.899  1.00  0.00    -0.211 N 
BRANCH  15  16
HETATM   16  C1  UNL     1      23.319  31.290  25.023  1.00  0.00     0.355 C 
BRANCH  16  17
HETATM   17  N2  UNL     1      24.060  31.791  26.136  1.00  0.00    -0.094 NA
BRANCH  17  18
HETATM   18  N1  UNL     1      25.227  32.427  25.749  1.00  0.00    -0.344 N 
ATOM     19  H12 UNL     1      25.369  32.803  24.812  1.00  0.00     0.172 HD
ATOM     20  H11 UNL     1      25.913  32.472  26.502  1.00  0.00     0.172 HD
ENDBRANCH  17  18
ENDBRANCH  16  17
BRANCH  16  21
HETATM   21  O1  UNL     1      24.030  31.411  23.838  1.00  0.00    -0.361 OA
ATOM     22  H1  UNL     1      24.902  31.041  23.913  1.00  0.00     0.213 HD
ENDBRANCH  16  21
ENDBRANCH  15  16
BRANCH  15  23
HETATM   23  S1  UNL     1      21.198  31.594  23.539  1.00  0.00     0.323 S 
HETATM   24  O6  UNL     1      21.773  32.207  22.269  1.00  0.00    -0.182 OA
HETATM   25  O7  UNL     1      21.266  30.095  23.275  1.00  0.00    -0.182 OA
BRANCH  23  26
HETATM   26  N7  UNL     1      19.522  32.000  23.585  1.00  0.00    -0.311 N 
ATOM     27  H72 UNL     1      19.207  32.969  23.542  1.00  0.00     0.170 HD
ATOM     28  H71 UNL     1      18.885  31.208  23.658  1.00  0.00     0.170 HD
ENDBRANCH  23  26
ENDBRANCH  15  23
ENDBRANCH  14  15
ENDBRANCH   1  14
BRANCH   2  29
HETATM   29  O2  UNL     1      23.384  34.654  26.530  1.00  0.00    -0.344 OA
ATOM     30  H2  UNL     1      24.007  35.368  26.604  1.00  0.00     0.219 HD
ENDBRANCH   2  29
BRANCH   3  31
HETATM   31  O3  UNL     1      21.776  37.113  27.067  1.00  0.00    -0.355 OA
ATOM     32  H3  UNL     1      22.425  37.534  26.515  1.00  0.00     0.218 HD
ENDBRANCH   3  31
TORSDOF 10
ENDMDL
MODEL 3
REMARK VINA RESULT: -5.175492106      1.147      1.233
REMARK  10 active torsions:
REMARK  status: ('A' for Active; 'I' for Inactive)
REMARK    1  A    between atoms: N1_1  and  N2_4 
REMARK    2  A    between atoms: N2_4  and  C1_5 
REMARK    3  A    between atoms: C1_5  and  O1_6 
REMARK    4  A    between atoms: C1_5  and  N3_8 
REMARK    5  A    between atoms: N3_8  and  C2_9 
REMARK    6  A    between atoms: N3_8  and  S1_27 
REMARK    7  A    between atoms: C2_9  and  N4_10 
REMARK    8  A    between atoms: C3_11  and  O2_12 
REMARK    9  A    between atoms: C4_14  and  O3_15 
REMARK   10  A    between atoms: S1_27  and  N7_28 
ROOT
HETATM    1  N4  UNL     1      22.077  30.369  23.773  1.00  0.00    -0.278 N 
HETATM    2  C3  UNL     1      21.854  30.947  22.557  1.00  0.00     0.184 A 
HETATM    3  C4  UNL     1      22.124  29.965  21.626  1.00  0.00     0.147 A 
HETATM    4  C5  UNL     1      22.500  28.821  22.278  1.00  0.00     0.107 A 
HETATM    5  N5  UNL     1      22.842  27.602  21.874  1.00  0.00    -0.304 N 
ATOM      6  H5  UNL     1      22.868  27.411  20.873  1.00  0.00     0.171 HD
HETATM    7  C6  UNL     1      23.158  26.601  22.733  1.00  0.00     0.327 A 
HETATM    8  O4  UNL     1      23.476  25.466  22.324  1.00  0.00    -0.247 OA
HETATM    9  N6  UNL     1      23.132  26.816  24.056  1.00  0.00    -0.273 N 
ATOM     10  H6  UNL     1      23.366  26.067  24.709  1.00  0.00     0.173 HD
HETATM   11  C7  UNL     1      22.790  28.043  24.510  1.00  0.00     0.279 A 
HETATM   12  O5  UNL     1      22.767  28.221  25.750  1.00  0.00    -0.265 OA
HETATM   13  C8  UNL     1      22.462  29.097  23.651  1.00  0.00     0.140 A 
ENDROOT
BRANCH   1  14
HETATM   14  C2  UNL     1      21.870  31.080  25.018  1.00  0.00     0.210 C 
BRANCH  14  15
HETATM   15  N3  UNL     1      20.588  31.284  25.470  1.00  0.00    -0.211 N 
BRANCH  15  16
HETATM   16  C1  UNL     1      20.300  30.558  26.692  1.00  0.00     0.355 C 
BRANCH  16  17
HETATM   17  N2  UNL     1      21.396  30.698  27.597  1.00  0.00    -0.094 NA
BRANCH  17  18
HETATM   18  N1  UNL     1      21.662  29.529  28.288  1.00  0.00    -0.344 N 
ATOM     19  H12 UNL     1      22.470  28.940  28.092  1.00  0.00     0.172 HD
ATOM     20  H11 UNL     1      20.963  29.335  29.005  1.00  0.00     0.172 HD
ENDBRANCH  17  18
ENDBRANCH  16  17
BRANCH  16  21
HETATM   21  O1  UNL     1      20.064  29.228  26.375  1.00  0.00    -0.361 OA
ATOM     22  H1  UNL     1      19.599  29.142  25.551  1.00  0.00     0.213 HD
ENDBRANCH  16  21
ENDBRANCH  15  16
BRANCH  15  23
HETATM   23  S1  UNL     1      19.777  32.750  25.382  1.00  0.00     0.323 S 
HETATM   24  O6  UNL     1      20.708  33.931  25.620  1.00  0.00    -0.182 OA
HETATM   25  O7  UNL     1      19.221  33.009  23.987  1.00  0.00    -0.182 OA
BRANCH  23  26
HETATM   26  N7  UNL     1      18.449  32.922  26.468  1.00  0.00    -0.311 N 
ATOM     27  H72 UNL     1      18.066  32.123  26.973  1.00  0.00     0.170 HD
ATOM     28  H71 UNL     1      18.084  33.869  26.563  1.00  0.00     0.170 HD
ENDBRANCH  23  26
ENDBRANCH  15  23
ENDBRANCH  14  15
ENDBRANCH   1  14
BRANCH   2  29
HETATM   29  O2  UNL     1      21.441  32.244  22.289  1.00  0.00    -0.344 OA
ATOM     30  H2  UNL     1      21.978  33.022  22.193  1.00  0.00     0.219 HD
ENDBRANCH   2  29
BRANCH   3  31
HETATM   31  O3  UNL     1      22.019  30.148  20.240  1.00  0.00    -0.355 OA
ATOM     32  H3  UNL     1      22.563  29.701  19.603  1.00  0.00     0.218 HD
ENDBRANCH   3  31
TORSDOF 10
ENDMDL
MODEL 4
REMARK VINA RESULT: -5.111596776      2.592      3.580
REMARK  10 active torsions:
REMARK  status: ('A' for Active; 'I' for Inactive)
REMARK    1  A    between atoms: N1_1  and  N2_4 
REMARK    2  A    between atoms: N2_4  and  C1_5 
REMARK    3  A    between atoms: C1_5  and  O1_6 
REMARK    4  A    between atoms: C1_5  and  N3_8 
REMARK    5  A    between atoms: N3_8  and  C2_9 
REMARK    6  A    between atoms: N3_8  and  S1_27 
REMARK    7  A    between atoms: C2_9  and  N4_10 
REMARK    8  A    between atoms: C3_11  and  O2_12 
REMARK    9  A    between atoms: C4_14  and  O3_15 
REMARK   10  A    between atoms: S1_27  and  N7_28 
ROOT
HETATM    1  N4  UNL     1      22.212  29.825  23.223  1.00  0.00    -0.278 N 
HETATM    2  C3  UNL     1      21.515  30.576  22.321  1.00  0.00     0.184 A 
HETATM    3  C4  UNL     1      21.428  29.800  21.183  1.00  0.00     0.147 A 
HETATM    4  C5  UNL     1      22.062  28.606  21.406  1.00  0.00     0.107 A 
HETATM    5  N5  UNL     1      22.254  27.516  20.671  1.00  0.00    -0.304 N 
ATOM      6  H5  UNL     1      21.892  27.502  19.718  1.00  0.00     0.171 HD
HETATM    7  C6  UNL     1      22.909  26.421  21.131  1.00  0.00     0.327 A 
HETATM    8  O4  UNL     1      23.074  25.412  20.417  1.00  0.00    -0.247 OA
HETATM    9  N6  UNL     1      23.396  26.404  22.380  1.00  0.00    -0.273 N 
ATOM     10  H6  UNL     1      23.888  25.583  22.734  1.00  0.00     0.173 HD
HETATM   11  C7  UNL     1      23.223  27.493  23.162  1.00  0.00     0.279 A 
HETATM   12  O5  UNL     1      23.680  27.454  24.328  1.00  0.00    -0.265 OA
HETATM   13  C8  UNL     1      22.555  28.639  22.717  1.00  0.00     0.140 A 
ENDROOT
BRANCH   1  14
HETATM   14  C2  UNL     1      22.487  30.288  24.568  1.00  0.00     0.210 C 
BRANCH  14  15
HETATM   15  N3  UNL     1      23.313  31.371  24.751  1.00  0.00    -0.211 N 
BRANCH  15  16
HETATM   16  C1  UNL     1      22.821  32.290  25.760  1.00  0.00     0.355 C 
BRANCH  16  17
HETATM   17  N2  UNL     1      21.533  32.772  25.375  1.00  0.00    -0.094 NA
BRANCH  17  18
HETATM   18  N1  UNL     1      21.037  33.715  26.258  1.00  0.00    -0.344 N 
ATOM     19  H12 UNL     1      20.217  34.287  26.056  1.00  0.00     0.172 HD
ATOM     20  H11 UNL     1      21.583  33.767  27.118  1.00  0.00     0.172 HD
ENDBRANCH  17  18
ENDBRANCH  16  17
BRANCH  16  21
HETATM   21  O1  UNL     1      23.734  33.326  25.901  1.00  0.00    -0.361 OA
ATOM     22  H1  UNL     1      24.194  33.276  26.731  1.00  0.00     0.213 HD
ENDBRANCH  16  21
ENDBRANCH  15  16
BRANCH  15  23
HETATM   23  S1  UNL     1      24.988  31.302  24.701  1.00  0.00     0.323 S 
HETATM   24  O6  UNL     1      25.585  32.498  23.971  1.00  0.00    -0.182 OA
HETATM   25  O7  UNL     1      25.602  31.389  26.093  1.00  0.00    -0.182 OA
BRANCH  23  26
HETATM   26  N7  UNL     1      25.644  29.882  23.973  1.00  0.00    -0.311 N 
ATOM     27  H72 UNL     1      26.542  29.898  23.489  1.00  0.00     0.170 HD
ATOM     28  H71 UNL     1      25.072  29.043  24.065  1.00  0.00     0.170 HD
ENDBRANCH  23  26
ENDBRANCH  15  23
ENDBRANCH  14  15
ENDBRANCH   1  14
BRANCH   2  29
HETATM   29  O2  UNL     1      20.993  31.850  22.490  1.00  0.00    -0.344 OA
ATOM     30  H2  UNL     1      21.463  32.659  22.657  1.00  0.00     0.219 HD
ENDBRANCH   2  29
BRANCH   3  31
HETATM   31  O3  UNL     1      20.785  30.205  20.006  1.00  0.00    -0.355 OA
ATOM     32  H3  UNL     1      20.971  31.019  19.552  1.00  0.00     0.218 HD
ENDBRANCH   3  31
TORSDOF 10
ENDMDL
MODEL 5
REMARK VINA RESULT: -5.095473987      2.146      3.041
REMARK  10 active torsions:
REMARK  status: ('A' for Active; 'I' for Inactive)
REMARK    1  A    between atoms: N1_1  and  N2_4 
REMARK    2  A    between atoms: N2_4  and  C1_5 
REMARK    3  A    between atoms: C1_5  and  O1_6 
REMARK    4  A    between atoms: C1_5  and  N3_8 
REMARK    5  A    between atoms: N3_8  and  C2_9 
REMARK    6  A    between atoms: N3_8  and  S1_27 
REMARK    7  A    between atoms: C2_9  and  N4_10 
REMARK    8  A    between atoms: C3_11  and  O2_12 
REMARK    9  A    between atoms: C4_14  and  O3_15 
REMARK   10  A    between atoms: S1_27  and  N7_28 
ROOT
HETATM    1  N4  UNL     1      21.899  30.335  23.752  1.00  0.00    -0.278 N 
HETATM    2  C3  UNL     1      21.553  31.055  22.646  1.00  0.00     0.184 A 
HETATM    3  C4  UNL     1      21.820  30.231  21.571  1.00  0.00     0.147 A 
HETATM    4  C5  UNL     1      22.315  29.040  22.032  1.00  0.00     0.107 A 
HETATM    5  N5  UNL     1      22.706  27.916  21.441  1.00  0.00    -0.304 N 
ATOM      6  H5  UNL     1      22.673  27.865  20.423  1.00  0.00     0.171 HD
HETATM    7  C6  UNL     1      23.147  26.834  22.129  1.00  0.00     0.327 A 
HETATM    8  O4  UNL     1      23.508  25.793  21.547  1.00  0.00    -0.247 OA
HETATM    9  N6  UNL     1      23.201  26.865  23.469  1.00  0.00    -0.273 N 
ATOM     10  H6  UNL     1      23.529  26.054  23.994  1.00  0.00     0.173 HD
HETATM   11  C7  UNL     1      22.813  27.990  24.111  1.00  0.00     0.279 A 
HETATM   12  O5  UNL     1      22.866  27.996  25.363  1.00  0.00    -0.265 OA
HETATM   13  C8  UNL     1      22.356  29.124  23.430  1.00  0.00     0.140 A 
ENDROOT
BRANCH   1  14
HETATM   14  C2  UNL     1      21.735  30.853  25.095  1.00  0.00     0.210 C 
BRANCH  14  15
HETATM   15  N3  UNL     1      22.468  31.947  25.488  1.00  0.00    -0.211 N 
BRANCH  15  16
HETATM   16  C1  UNL     1      21.662  32.958  26.147  1.00  0.00     0.355 C 
BRANCH  16  17
HETATM   17  N2  UNL     1      20.501  33.226  25.359  1.00  0.00    -0.094 NA
BRANCH  17  18
HETATM   18  N1  UNL     1      19.693  34.197  25.924  1.00  0.00    -0.344 N 
ATOM     19  H12 UNL     1      18.676  34.184  25.850  1.00  0.00     0.172 HD
ATOM     20  H11 UNL     1      20.230  34.912  26.416  1.00  0.00     0.172 HD
ENDBRANCH  17  18
ENDBRANCH  16  17
BRANCH  16  21
HETATM   21  O1  UNL     1      22.434  34.096  26.325  1.00  0.00    -0.361 OA
ATOM     22  H1  UNL     1      23.282  33.890  26.703  1.00  0.00     0.213 HD
ENDBRANCH  16  21
ENDBRANCH  15  16
BRANCH  15  23
HETATM   23  S1  UNL     1      24.030  31.871  26.095  1.00  0.00     0.323 S 
HETATM   24  O6  UNL     1      24.920  32.961  25.513  1.00  0.00    -0.182 OA
HETATM   25  O7  UNL     1      24.072  32.138  27.594  1.00  0.00    -0.182 OA
BRANCH  23  26
HETATM   26  N7  UNL     1      24.841  30.368  25.851  1.00  0.00    -0.311 N 
ATOM     27  H72 UNL     1      24.446  29.489  26.186  1.00  0.00     0.170 HD
ATOM     28  H71 UNL     1      25.729  30.429  25.354  1.00  0.00     0.170 HD
ENDBRANCH  23  26
ENDBRANCH  15  23
ENDBRANCH  14  15
ENDBRANCH   1  14
BRANCH   2  29
HETATM   29  O2  UNL     1      21.039  32.341  22.588  1.00  0.00    -0.344 OA
ATOM     30  H2  UNL     1      21.482  33.139  22.324  1.00  0.00     0.219 HD
ENDBRANCH   2  29
BRANCH   3  31
HETATM   31  O3  UNL     1      21.605  30.592  20.234  1.00  0.00    -0.355 OA
ATOM     32  H3  UNL     1      21.661  29.986  19.505  1.00  0.00     0.218 HD
ENDBRANCH   3  31
TORSDOF 10
ENDMDL
