MODEL 1
REMARK VINA RESULT: -5.213231763      0.000      0.000
REMARK  1 active torsions:
REMARK  status: ('A' for Active; 'I' for Inactive)
REMARK    1  A    between atoms: N1_6  and  N2_7 
ROOT
HETATM    1  C1  UNL     1      55.895  27.121  22.088  1.00  0.00     0.029 C 
HETATM    2  C2  UNL     1      55.961  28.632  21.810  1.00  0.00     0.091 C 
HETATM    3  C3  UNL     1      57.107  28.974  20.920  1.00  0.00     0.024 C 
HETATM    4  C4  UNL     1      56.840  29.926  19.832  1.00  0.00     0.019 C 
HETATM    5  C5  UNL     1      55.543  30.634  19.849  1.00  0.00     0.134 C 
HETATM    6  N1  UNL     1      54.712  30.367  20.989  1.00  0.00    -0.151 NA
HETATM    7  N3  UNL     1      54.681  29.026  21.335  1.00  0.00    -0.141 NA
ENDROOT
BRANCH   6   8
HETATM    8  N2  UNL     1      53.393  30.740  20.645  1.00  0.00    -0.349 NA
ATOM      9  H22 UNL     1      53.012  31.262  21.434  1.00  0.00     0.172 HD
ATOM     10  H21 UNL     1      52.877  29.883  20.446  1.00  0.00     0.172 HD
ENDBRANCH   6   8
TORSDOF 1
ENDMDL
MODEL 2
REMARK VINA RESULT: -5.136019178      1.138      1.500
REMARK  1 active torsions:
REMARK  status: ('A' for Active; 'I' for Inactive)
REMARK    1  A    between atoms: N1_6  and  N2_7 
ROOT
HETATM    1  C1  UNL     1      55.905  28.309  21.650  1.00  0.00     0.029 C 
HETATM    2  C2  UNL     1      55.299  29.663  21.245  1.00  0.00     0.091 C 
HETATM    3  C3  UNL     1      56.298  30.522  20.548  1.00  0.00     0.024 C 
HETATM    4  C4  UNL     1      55.839  31.229  19.344  1.00  0.00     0.019 C 
HETATM    5  C5  UNL     1      54.389  31.218  19.059  1.00  0.00     0.134 C 
HETATM    6  N1  UNL     1      53.572  30.576  20.050  1.00  0.00    -0.151 NA
HETATM    7  N3  UNL     1      54.114  29.387  20.512  1.00  0.00    -0.141 NA
ENDROOT
BRANCH   6   8
HETATM    8  N2  UNL     1      52.337  30.263  19.440  1.00  0.00    -0.349 NA
ATOM      9  H22 UNL     1      52.533  30.023  18.468  1.00  0.00     0.172 HD
ATOM     10  H21 UNL     1      51.735  31.081  19.536  1.00  0.00     0.172 HD
ENDBRANCH   6   8
TORSDOF 1
ENDMDL
MODEL 3
REMARK VINA RESULT: -4.857973951      1.028      2.794
REMARK  1 active torsions:
REMARK  status: ('A' for Active; 'I' for Inactive)
REMARK    1  A    between atoms: N1_6  and  N2_7 
ROOT
HETATM    1  C1  UNL     1      55.888  31.036  19.768  1.00  0.00     0.029 C 
HETATM    2  C2  UNL     1      55.773  29.552  20.153  1.00  0.00     0.091 C 
HETATM    3  C3  UNL     1      57.108  28.958  20.446  1.00  0.00     0.024 C 
HETATM    4  C4  UNL     1      57.205  28.098  21.635  1.00  0.00     0.019 C 
HETATM    5  C5  UNL     1      55.943  27.709  22.298  1.00  0.00     0.134 C 
HETATM    6  N1  UNL     1      54.743  28.156  21.648  1.00  0.00    -0.151 NA
HETATM    7  N3  UNL     1      54.823  29.466  21.205  1.00  0.00    -0.141 NA
ENDROOT
BRANCH   6   8
HETATM    8  N2  UNL     1      53.702  28.099  22.601  1.00  0.00    -0.349 NA
ATOM      9  H22 UNL     1      54.026  27.508  23.367  1.00  0.00     0.172 HD
ATOM     10  H21 UNL     1      52.878  27.725  22.129  1.00  0.00     0.172 HD
ENDBRANCH   6   8
TORSDOF 1
ENDMDL
MODEL 4
REMARK VINA RESULT: -4.779771202      1.142      1.182
REMARK  1 active torsions:
REMARK  status: ('A' for Active; 'I' for Inactive)
REMARK    1  A    between atoms: N1_6  and  N2_7 
ROOT
HETATM    1  C1  UNL     1      54.685  27.904  21.996  1.00  0.00     0.029 C 
HETATM    2  C2  UNL     1      54.908  29.358  21.549  1.00  0.00     0.091 C 
HETATM    3  C3  UNL     1      56.327  29.598  21.160  1.00  0.00     0.024 C 
HETATM    4  C4  UNL     1      56.556  30.369  19.929  1.00  0.00     0.019 C 
HETATM    5  C5  UNL     1      55.388  31.032  19.314  1.00  0.00     0.134 C 
HETATM    6  N1  UNL     1      54.157  30.913  20.044  1.00  0.00    -0.151 NA
HETATM    7  N3  UNL     1      53.944  29.638  20.543  1.00  0.00    -0.141 NA
ENDROOT
BRANCH   6   8
HETATM    8  N2  UNL     1      53.104  31.191  19.144  1.00  0.00    -0.349 NA
ATOM      9  H22 UNL     1      52.260  31.325  19.700  1.00  0.00     0.172 HD
ATOM     10  H21 UNL     1      53.038  30.402  18.501  1.00  0.00     0.172 HD
ENDBRANCH   6   8
TORSDOF 1
ENDMDL
MODEL 5
REMARK VINA RESULT: -4.492970855      1.650      2.293
REMARK  1 active torsions:
REMARK  status: ('A' for Active; 'I' for Inactive)
REMARK    1  A    between atoms: N1_6  and  N2_7 
ROOT
HETATM    1  C1  UNL     1      57.943  29.387  20.453  1.00  0.00     0.029 C 
HETATM    2  C2  UNL     1      56.610  29.998  20.916  1.00  0.00     0.091 C 
HETATM    3  C3  UNL     1      56.018  30.877  19.867  1.00  0.00     0.024 C 
HETATM    4  C4  UNL     1      54.575  30.737  19.622  1.00  0.00     0.019 C 
HETATM    5  C5  UNL     1      53.798  29.920  20.577  1.00  0.00     0.134 C 
HETATM    6  N1  UNL     1      54.538  29.416  21.699  1.00  0.00    -0.151 NA
HETATM    7  N3  UNL     1      55.786  28.925  21.349  1.00  0.00    -0.141 NA
ENDROOT
BRANCH   6   8
HETATM    8  N2  UNL     1      53.802  28.338  22.239  1.00  0.00    -0.349 NA
ATOM      9  H22 UNL     1      53.340  27.867  21.461  1.00  0.00     0.172 HD
ATOM     10  H21 UNL     1      53.146  28.727  22.916  1.00  0.00     0.172 HD
ENDBRANCH   6   8
TORSDOF 1
ENDMDL
