MODEL 1
REMARK VINA RESULT: -5.576375833      0.000      0.000
REMARK  2 active torsions:
REMARK  status: ('A' for Active; 'I' for Inactive)
REMARK    1  A    between atoms: N1_1  and  C1_5 
REMARK    2  A    between atoms: C6_10  and  N2_11 
ROOT
HETATM    1  C1  UNL     1      54.866  29.505  20.952  1.00  0.00     0.213 C 
HETATM    2  C2  UNL     1      56.162  30.229  21.143  1.00  0.00     0.035 C 
HETATM    3  C3  UNL     1      57.274  29.238  20.782  1.00  0.00     0.002 C 
HETATM    4  C4  UNL     1      56.839  27.817  20.937  1.00  0.00     0.002 C 
HETATM    5  C5  UNL     1      55.915  27.596  22.111  1.00  0.00     0.035 C 
HETATM    6  C6  UNL     1      54.724  28.502  22.081  1.00  0.00     0.213 C 
ENDROOT
BRANCH   1   7
HETATM    7  N1  UNL     1      53.712  30.332  20.938  1.00  0.00    -0.073 N 
ATOM      8  H13 UNL     1      53.872  31.168  21.500  1.00  0.00     0.274 HD
ATOM      9  H12 UNL     1      53.594  30.755  20.018  1.00  0.00     0.274 HD
ATOM     10  H11 UNL     1      52.849  29.873  21.228  1.00  0.00     0.274 HD
ENDBRANCH   1   7
BRANCH   6  11
HETATM   11  N2  UNL     1      53.480  27.787  21.847  1.00  0.00    -0.073 N 
ATOM     12  H23 UNL     1      52.651  28.341  22.060  1.00  0.00     0.274 HD
ATOM     13  H22 UNL     1      53.282  27.635  20.858  1.00  0.00     0.274 HD
ATOM     14  H21 UNL     1      53.536  26.921  22.384  1.00  0.00     0.274 HD
ENDBRANCH   6  11
TORSDOF 2
ENDMDL
MODEL 2
REMARK VINA RESULT: -5.344830679      0.677      2.291
REMARK  2 active torsions:
REMARK  status: ('A' for Active; 'I' for Inactive)
REMARK    1  A    between atoms: N1_1  and  C1_5 
REMARK    2  A    between atoms: C6_10  and  N2_11 
ROOT
HETATM    1  C1  UNL     1      54.942  28.669  21.856  1.00  0.00     0.213 C 
HETATM    2  C2  UNL     1      56.054  27.703  21.594  1.00  0.00     0.035 C 
HETATM    3  C3  UNL     1      57.346  28.525  21.549  1.00  0.00     0.002 C 
HETATM    4  C4  UNL     1      57.097  29.953  21.186  1.00  0.00     0.002 C 
HETATM    5  C5  UNL     1      55.994  30.132  20.170  1.00  0.00     0.035 C 
HETATM    6  C6  UNL     1      54.717  29.472  20.589  1.00  0.00     0.213 C 
ENDROOT
BRANCH   1   7
HETATM    7  N1  UNL     1      53.708  28.078  22.236  1.00  0.00    -0.073 N 
ATOM      8  H13 UNL     1      53.787  27.061  22.222  1.00  0.00     0.274 HD
ATOM      9  H12 UNL     1      53.537  28.230  23.230  1.00  0.00     0.274 HD
ATOM     10  H11 UNL     1      52.900  28.375  21.690  1.00  0.00     0.274 HD
ENDBRANCH   1   7
BRANCH   6  11
HETATM   11  N2  UNL     1      53.663  30.428  20.884  1.00  0.00    -0.073 N 
ATOM     12  H23 UNL     1      52.770  30.190  20.452  1.00  0.00     0.274 HD
ATOM     13  H22 UNL     1      53.348  30.395  21.854  1.00  0.00     0.274 HD
ATOM     14  H21 UNL     1      54.013  31.345  20.605  1.00  0.00     0.274 HD
ENDBRANCH   6  11
TORSDOF 2
ENDMDL
MODEL 3
REMARK VINA RESULT: -5.297762837      1.132      1.723
REMARK  2 active torsions:
REMARK  status: ('A' for Active; 'I' for Inactive)
REMARK    1  A    between atoms: N1_1  and  C1_5 
REMARK    2  A    between atoms: C6_10  and  N2_11 
ROOT
HETATM    1  C1  UNL     1      55.893  29.789  20.322  1.00  0.00     0.213 C 
HETATM    2  C2  UNL     1      57.081  29.700  21.228  1.00  0.00     0.035 C 
HETATM    3  C3  UNL     1      57.163  28.245  21.700  1.00  0.00     0.002 C 
HETATM    4  C4  UNL     1      55.839  27.555  21.644  1.00  0.00     0.002 C 
HETATM    5  C5  UNL     1      54.678  28.453  22.002  1.00  0.00     0.035 C 
HETATM    6  C6  UNL     1      54.646  29.704  21.181  1.00  0.00     0.213 C 
ENDROOT
BRANCH   1   7
HETATM    7  N1  UNL     1      55.820  30.973  19.542  1.00  0.00    -0.073 N 
ATOM      8  H13 UNL     1      56.129  31.776  20.090  1.00  0.00     0.274 HD
ATOM      9  H12 UNL     1      56.539  30.964  18.819  1.00  0.00     0.274 HD
ATOM     10  H11 UNL     1      54.907  31.162  19.128  1.00  0.00     0.274 HD
ENDBRANCH   1   7
BRANCH   6  11
HETATM   11  N2  UNL     1      53.512  29.751  20.274  1.00  0.00    -0.073 N 
ATOM     12  H23 UNL     1      53.522  30.564  19.658  1.00  0.00     0.274 HD
ATOM     13  H22 UNL     1      53.549  29.038  19.545  1.00  0.00     0.274 HD
ATOM     14  H21 UNL     1      52.673  29.694  20.852  1.00  0.00     0.274 HD
ENDBRANCH   6  11
TORSDOF 2
ENDMDL
MODEL 4
REMARK VINA RESULT: -4.966876206      1.671      2.217
REMARK  2 active torsions:
REMARK  status: ('A' for Active; 'I' for Inactive)
REMARK    1  A    between atoms: N1_1  and  C1_5 
REMARK    2  A    between atoms: C6_10  and  N2_11 
ROOT
HETATM    1  C1  UNL     1      54.025  30.076  19.672  1.00  0.00     0.213 C 
HETATM    2  C2  UNL     1      54.569  31.370  19.152  1.00  0.00     0.035 C 
HETATM    3  C3  UNL     1      56.078  31.172  18.979  1.00  0.00     0.002 C 
HETATM    4  C4  UNL     1      56.614  30.096  19.866  1.00  0.00     0.002 C 
HETATM    5  C5  UNL     1      55.947  30.045  21.220  1.00  0.00     0.035 C 
HETATM    6  C6  UNL     1      54.457  29.940  21.120  1.00  0.00     0.213 C 
ENDROOT
BRANCH   1   7
HETATM    7  N1  UNL     1      52.612  29.950  19.612  1.00  0.00    -0.073 N 
ATOM      8  H13 UNL     1      52.313  29.797  18.649  1.00  0.00     0.274 HD
ATOM      9  H12 UNL     1      52.320  29.068  20.032  1.00  0.00     0.274 HD
ATOM     10  H11 UNL     1      52.092  30.724  20.023  1.00  0.00     0.274 HD
ENDBRANCH   1   7
BRANCH   6  11
HETATM   11  N2  UNL     1      53.952  28.659  21.586  1.00  0.00    -0.073 N 
ATOM     12  H23 UNL     1      52.948  28.662  21.763  1.00  0.00     0.274 HD
ATOM     13  H22 UNL     1      53.953  27.939  20.864  1.00  0.00     0.274 HD
ATOM     14  H21 UNL     1      54.505  28.408  22.406  1.00  0.00     0.274 HD
ENDBRANCH   6  11
TORSDOF 2
ENDMDL
MODEL 5
REMARK VINA RESULT: -4.954554506      1.195      2.419
REMARK  2 active torsions:
REMARK  status: ('A' for Active; 'I' for Inactive)
REMARK    1  A    between atoms: N1_1  and  C1_5 
REMARK    2  A    between atoms: C6_10  and  N2_11 
ROOT
HETATM    1  C1  UNL     1      54.912  29.564  21.396  1.00  0.00     0.213 C 
HETATM    2  C2  UNL     1      54.592  28.168  21.830  1.00  0.00     0.035 C 
HETATM    3  C3  UNL     1      55.910  27.544  22.299  1.00  0.00     0.002 C 
HETATM    4  C4  UNL     1      57.101  28.196  21.675  1.00  0.00     0.002 C 
HETATM    5  C5  UNL     1      56.874  28.615  20.242  1.00  0.00     0.035 C 
HETATM    6  C6  UNL     1      55.665  29.482  20.082  1.00  0.00     0.213 C 
ENDROOT
BRANCH   1   7
HETATM    7  N1  UNL     1      53.786  30.410  21.215  1.00  0.00    -0.073 N 
ATOM      8  H13 UNL     1      53.360  30.240  20.304  1.00  0.00     0.274 HD
ATOM      9  H12 UNL     1      53.024  30.117  21.825  1.00  0.00     0.274 HD
ATOM     10  H11 UNL     1      53.970  31.406  21.336  1.00  0.00     0.274 HD
ENDBRANCH   1   7
BRANCH   6  11
HETATM   11  N2  UNL     1      55.998  30.846  19.707  1.00  0.00    -0.073 N 
ATOM     12  H23 UNL     1      56.178  31.451  20.508  1.00  0.00     0.274 HD
ATOM     13  H22 UNL     1      56.917  30.932  19.273  1.00  0.00     0.274 HD
ATOM     14  H21 UNL     1      55.239  31.179  19.112  1.00  0.00     0.274 HD
ENDBRANCH   6  11
TORSDOF 2
ENDMDL
