MODEL 1
REMARK VINA RESULT: -5.264546667      0.000      0.000
REMARK  1 active torsions:
REMARK  status: ('A' for Active; 'I' for Inactive)
REMARK    1  A    between atoms: N1_1  and  C1_5 
ROOT
HETATM    1  C1  UNL     1      54.883  29.552  20.825  1.00  0.00     0.183 C 
HETATM    2  C2  UNL     1      54.771  28.528  21.923  1.00  0.00     0.033 C 
HETATM    3  C3  UNL     1      55.906  27.570  21.922  1.00  0.00     0.002 C 
HETATM    4  C4  UNL     1      57.250  28.164  21.713  1.00  0.00     0.000 C 
HETATM    5  C5  UNL     1      57.300  29.345  20.814  1.00  0.00     0.002 C 
HETATM    6  C6  UNL     1      56.177  30.319  21.077  1.00  0.00     0.033 C 
ENDROOT
BRANCH   1   7
HETATM    7  N1  UNL     1      53.757  30.430  20.792  1.00  0.00    -0.075 N 
ATOM      8  H13 UNL     1      52.913  29.962  21.122  1.00  0.00     0.274 HD
ATOM      9  H12 UNL     1      53.831  31.153  21.508  1.00  0.00     0.274 HD
ATOM     10  H11 UNL     1      53.615  30.839  19.868  1.00  0.00     0.274 HD
ENDBRANCH   1   7
TORSDOF 1
ENDMDL
MODEL 2
REMARK VINA RESULT: -4.970789073      1.114      2.212
REMARK  1 active torsions:
REMARK  status: ('A' for Active; 'I' for Inactive)
REMARK    1  A    between atoms: N1_1  and  C1_5 
ROOT
HETATM    1  C1  UNL     1      54.878  28.529  22.041  1.00  0.00     0.183 C 
HETATM    2  C2  UNL     1      54.835  29.614  20.998  1.00  0.00     0.033 C 
HETATM    3  C3  UNL     1      56.140  30.305  20.846  1.00  0.00     0.002 C 
HETATM    4  C4  UNL     1      57.335  29.427  20.830  1.00  0.00     0.000 C 
HETATM    5  C5  UNL     1      57.256  28.214  21.682  1.00  0.00     0.002 C 
HETATM    6  C6  UNL     1      55.921  27.519  21.573  1.00  0.00     0.033 C 
ENDROOT
BRANCH   1   7
HETATM    7  N1  UNL     1      53.604  27.910  22.228  1.00  0.00    -0.075 N 
ATOM      8  H13 UNL     1      52.855  28.603  22.240  1.00  0.00     0.274 HD
ATOM      9  H12 UNL     1      53.324  27.384  21.400  1.00  0.00     0.274 HD
ATOM     10  H11 UNL     1      53.579  27.325  23.063  1.00  0.00     0.274 HD
ENDBRANCH   1   7
TORSDOF 1
ENDMDL
MODEL 3
REMARK VINA RESULT: -4.818623607      0.493      1.909
REMARK  1 active torsions:
REMARK  status: ('A' for Active; 'I' for Inactive)
REMARK    1  A    between atoms: N1_1  and  C1_5 
ROOT
HETATM    1  C1  UNL     1      54.948  29.794  21.266  1.00  0.00     0.183 C 
HETATM    2  C2  UNL     1      56.031  29.911  20.226  1.00  0.00     0.033 C 
HETATM    3  C3  UNL     1      57.336  29.389  20.706  1.00  0.00     0.002 C 
HETATM    4  C4  UNL     1      57.281  28.109  21.455  1.00  0.00     0.000 C 
HETATM    5  C5  UNL     1      56.069  27.901  22.288  1.00  0.00     0.002 C 
HETATM    6  C6  UNL     1      54.803  28.308  21.575  1.00  0.00     0.033 C 
ENDROOT
BRANCH   1   7
HETATM    7  N1  UNL     1      53.712  30.356  20.821  1.00  0.00    -0.075 N 
ATOM      8  H13 UNL     1      53.764  31.374  20.779  1.00  0.00     0.274 HD
ATOM      9  H12 UNL     1      53.552  30.160  19.834  1.00  0.00     0.274 HD
ATOM     10  H11 UNL     1      52.923  30.049  21.392  1.00  0.00     0.274 HD
ENDBRANCH   1   7
TORSDOF 1
ENDMDL
MODEL 4
REMARK VINA RESULT: -4.775254047      1.211      1.824
REMARK  1 active torsions:
REMARK  status: ('A' for Active; 'I' for Inactive)
REMARK    1  A    between atoms: N1_1  and  C1_5 
ROOT
HETATM    1  C1  UNL     1      54.844  28.444  21.487  1.00  0.00     0.183 C 
HETATM    2  C2  UNL     1      56.173  28.064  22.082  1.00  0.00     0.033 C 
HETATM    3  C3  UNL     1      57.304  28.319  21.154  1.00  0.00     0.002 C 
HETATM    4  C4  UNL     1      57.257  29.609  20.422  1.00  0.00     0.000 C 
HETATM    5  C5  UNL     1      55.902  30.098  20.061  1.00  0.00     0.002 C 
HETATM    6  C6  UNL     1      54.913  29.939  21.190  1.00  0.00     0.033 C 
ENDROOT
BRANCH   1   7
HETATM    7  N1  UNL     1      53.756  28.137  22.360  1.00  0.00    -0.075 N 
ATOM      8  H13 UNL     1      53.942  27.292  22.900  1.00  0.00     0.274 HD
ATOM      9  H12 UNL     1      53.695  28.809  23.125  1.00  0.00     0.274 HD
ATOM     10  H11 UNL     1      52.869  28.067  21.859  1.00  0.00     0.274 HD
ENDBRANCH   1   7
TORSDOF 1
ENDMDL
MODEL 5
REMARK VINA RESULT: -4.740887612      1.043      1.511
REMARK  1 active torsions:
REMARK  status: ('A' for Active; 'I' for Inactive)
REMARK    1  A    between atoms: N1_1  and  C1_5 
ROOT
HETATM    1  C1  UNL     1      55.781  29.672  20.269  1.00  0.00     0.183 C 
HETATM    2  C2  UNL     1      54.689  29.536  21.297  1.00  0.00     0.033 C 
HETATM    3  C3  UNL     1      54.677  28.195  21.936  1.00  0.00     0.002 C 
HETATM    4  C4  UNL     1      56.004  27.650  22.312  1.00  0.00     0.000 C 
HETATM    5  C5  UNL     1      57.129  28.011  21.413  1.00  0.00     0.002 C 
HETATM    6  C6  UNL     1      57.099  29.465  21.007  1.00  0.00     0.033 C 
ENDROOT
BRANCH   1   7
HETATM    7  N1  UNL     1      55.747  30.941  19.613  1.00  0.00    -0.075 N 
ATOM      8  H13 UNL     1      56.160  30.886  18.682  1.00  0.00     0.274 HD
ATOM      9  H12 UNL     1      54.795  31.197  19.353  1.00  0.00     0.274 HD
ATOM     10  H11 UNL     1      56.187  31.674  20.170  1.00  0.00     0.274 HD
ENDBRANCH   1   7
TORSDOF 1
ENDMDL
