MODEL 1
REMARK VINA RESULT: -4.469779388      0.000      0.000
REMARK  0 active torsions:
REMARK  status: ('A' for Active; 'I' for Inactive)
ROOT
HETATM    1  S1  UNL     1      53.968  30.910  19.640  1.00  0.00    -0.062 SA
HETATM    2  C1  UNL     1      54.734  29.831  20.855  1.00  0.00     0.257 C 
HETATM    3  C2  UNL     1      56.056  29.299  20.353  1.00  0.00     0.045 C 
HETATM    4  C3  UNL     1      56.647  28.227  21.166  1.00  0.00     0.004 C 
HETATM    5  C4  UNL     1      55.785  27.539  22.145  1.00  0.00     0.027 C 
HETATM    6  C5  UNL     1      54.445  28.145  22.387  1.00  0.00     0.233 C 
HETATM    7  N1  UNL     1      53.933  28.650  21.144  1.00  0.00    -0.061 N 
ATOM      8  H11 UNL     1      53.927  27.961  20.391  1.00  0.00     0.278 HD
ATOM      9  H12 UNL     1      52.928  28.824  21.152  1.00  0.00     0.278 HD
ENDROOT
TORSDOF 0
ENDMDL
MODEL 2
REMARK VINA RESULT: -4.310486934      2.049      2.921
REMARK  0 active torsions:
REMARK  status: ('A' for Active; 'I' for Inactive)
ROOT
HETATM    1  S1  UNL     1      54.344  27.874  22.507  1.00  0.00    -0.062 SA
HETATM    2  C1  UNL     1      54.837  28.897  21.117  1.00  0.00     0.257 C 
HETATM    3  C2  UNL     1      56.282  29.323  21.240  1.00  0.00     0.045 C 
HETATM    4  C3  UNL     1      56.715  30.350  20.282  1.00  0.00     0.004 C 
HETATM    5  C4  UNL     1      55.678  31.109  19.559  1.00  0.00     0.027 C 
HETATM    6  C5  UNL     1      54.280  30.610  19.692  1.00  0.00     0.233 C 
HETATM    7  N1  UNL     1      54.082  30.139  21.034  1.00  0.00    -0.061 N 
ATOM      8  H11 UNL     1      54.330  30.821  21.751  1.00  0.00     0.278 HD
ATOM      9  H12 UNL     1      53.101  30.043  21.297  1.00  0.00     0.278 HD
ENDROOT
TORSDOF 0
ENDMDL
MODEL 3
REMARK VINA RESULT: -4.280420773      0.837      1.040
REMARK  0 active torsions:
REMARK  status: ('A' for Active; 'I' for Inactive)
ROOT
HETATM    1  S1  UNL     1      53.736  30.865  19.657  1.00  0.00    -0.062 SA
HETATM    2  C1  UNL     1      54.950  30.062  20.709  1.00  0.00     0.257 C 
HETATM    3  C2  UNL     1      56.348  30.243  20.164  1.00  0.00     0.045 C 
HETATM    4  C3  UNL     1      57.383  29.430  20.817  1.00  0.00     0.004 C 
HETATM    5  C4  UNL     1      56.952  28.295  21.656  1.00  0.00     0.027 C 
HETATM    6  C5  UNL     1      55.495  28.211  21.954  1.00  0.00     0.233 C 
HETATM    7  N1  UNL     1      54.759  28.620  20.791  1.00  0.00    -0.061 N 
ATOM      8  H11 UNL     1      55.019  28.120  19.941  1.00  0.00     0.278 HD
ATOM      9  H12 UNL     1      53.780  28.335  20.801  1.00  0.00     0.278 HD
ENDROOT
TORSDOF 0
ENDMDL
MODEL 4
REMARK VINA RESULT: -4.271738650      1.611      2.308
REMARK  0 active torsions:
REMARK  status: ('A' for Active; 'I' for Inactive)
ROOT
HETATM    1  S1  UNL     1      53.445  30.935  19.456  1.00  0.00    -0.062 SA
HETATM    2  C1  UNL     1      54.873  29.921  19.851  1.00  0.00     0.257 C 
HETATM    3  C2  UNL     1      54.755  29.331  21.237  1.00  0.00     0.045 C 
HETATM    4  C3  UNL     1      55.971  28.682  21.746  1.00  0.00     0.004 C 
HETATM    5  C4  UNL     1      57.248  28.958  21.061  1.00  0.00     0.027 C 
HETATM    6  C5  UNL     1      57.157  29.694  19.768  1.00  0.00     0.233 C 
HETATM    7  N1  UNL     1      56.117  30.679  19.866  1.00  0.00    -0.061 N 
ATOM      8  H11 UNL     1      56.212  31.300  20.670  1.00  0.00     0.278 HD
ATOM      9  H12 UNL     1      56.166  31.404  19.151  1.00  0.00     0.278 HD
ENDROOT
TORSDOF 0
ENDMDL
MODEL 5
REMARK VINA RESULT: -4.201292439      2.202      3.146
REMARK  0 active torsions:
REMARK  status: ('A' for Active; 'I' for Inactive)
ROOT
HETATM    1  S1  UNL     1      56.322  28.002  21.952  1.00  0.00    -0.062 SA
HETATM    2  C1  UNL     1      55.586  29.025  20.673  1.00  0.00     0.257 C 
HETATM    3  C2  UNL     1      56.532  30.121  20.240  1.00  0.00     0.045 C 
HETATM    4  C3  UNL     1      55.942  31.150  19.374  1.00  0.00     0.004 C 
HETATM    5  C4  UNL     1      54.471  31.235  19.294  1.00  0.00     0.027 C 
HETATM    6  C5  UNL     1      53.711  30.119  19.924  1.00  0.00     0.233 C 
HETATM    7  N1  UNL     1      54.386  29.716  21.125  1.00  0.00    -0.061 N 
ATOM      8  H11 UNL     1      54.571  30.484  21.771  1.00  0.00     0.278 HD
ATOM      9  H12 UNL     1      53.808  29.165  21.759  1.00  0.00     0.278 HD
ENDROOT
TORSDOF 0
ENDMDL
