MODEL 1
REMARK VINA RESULT: -7.773746572      0.000      0.000
REMARK  15 active torsions:
REMARK  status: ('A' for Active; 'I' for Inactive)
REMARK    1  A    between atoms: C2_2  and  O2_4 
REMARK    2  A    between atoms: O2_4  and  C3_5 
REMARK    3  A    between atoms: C5_8  and  O4_9 
REMARK    4  A    between atoms: O4_9  and  C6_10 
REMARK    5  A    between atoms: C7_11  and  O5_12 
REMARK    6  A    between atoms: O5_12  and  C8_13 
REMARK       I    between atoms: C8_13  and  N1_15 
REMARK    7  A    between atoms: N1_15  and  O7_17 
REMARK    8  A    between atoms: C11_20  and  O8_21 
REMARK    9  A    between atoms: C12_23  and  O9_24 
REMARK   10  A    between atoms: O9_24  and  C13_25 
REMARK   11  A    between atoms: C15_28  and  O11_30 
REMARK   12  A    between atoms: C17_32  and  O12_33 
REMARK   13  A    between atoms: O12_33  and  C18_34 
REMARK   14  A    between atoms: C20_37  and  O14_38 
REMARK   15  A    between atoms: O14_38  and  C21_39 
ROOT
HETATM    1  C6  UNL     1      34.890  -0.181 137.559  1.00  0.00     0.191 C 
HETATM    2  C7  UNL     1      33.860  -0.682 138.558  1.00  0.00     0.168 C 
HETATM    3  C10 UNL     1      34.438  -0.626 139.944  1.00  0.00     0.069 C 
HETATM    4  C11 UNL     1      35.823  -0.103 140.018  1.00  0.00     0.153 C 
HETATM    5  C12 UNL     1      36.077   1.137 139.218  1.00  0.00     0.197 C 
HETATM    6  C15 UNL     1      35.212   1.236 137.986  1.00  0.00     0.112 C 
HETATM    7  C16 UNL     1      33.929   2.015 138.292  1.00  0.00     0.051 C 
ENDROOT
BRANCH   1   8
HETATM    8  O4  UNL     1      34.434  -0.289 136.272  1.00  0.00    -0.348 OA
BRANCH   8   9
HETATM    9  C5  UNL     1      35.304  -1.043 135.522  1.00  0.00     0.292 C 
HETATM   10  O3  UNL     1      35.425  -0.404 134.281  1.00  0.00    -0.356 OA
HETATM   11  C4  UNL     1      36.072  -1.221 133.344  1.00  0.00     0.206 C 
HETATM   12  C3  UNL     1      37.374  -1.774 133.944  1.00  0.00     0.188 C 
HETATM   13  C20 UNL     1      37.705  -0.896 135.114  1.00  0.00     0.198 C 
HETATM   14  C17 UNL     1      36.654  -1.221 136.186  1.00  0.00     0.219 C 
BRANCH  12  15
HETATM   15  O2  UNL     1      38.367  -1.832 132.974  1.00  0.00    -0.311 OA
BRANCH  15  16
HETATM   16  C2  UNL     1      39.009  -3.040 132.749  1.00  0.00     0.255 C 
HETATM   17  C1  UNL     1      38.447  -4.343 133.175  1.00  0.00     0.126 C 
HETATM   18  O1  UNL     1      40.105  -3.041 132.165  1.00  0.00    -0.266 OA
ENDBRANCH  15  16
ENDBRANCH  12  15
BRANCH  13  19
HETATM   19  O14 UNL     1      38.995  -0.981 135.585  1.00  0.00    -0.311 OA
BRANCH  19  20
HETATM   20  C21 UNL     1      39.827   0.105 135.642  1.00  0.00     0.255 C 
HETATM   21  C22 UNL     1      39.432   1.441 136.136  1.00  0.00     0.126 C 
HETATM   22  O15 UNL     1      41.003  -0.066 135.239  1.00  0.00    -0.266 OA
ENDBRANCH  19  20
ENDBRANCH  13  19
BRANCH  14  23
HETATM   23  O12 UNL     1      36.814  -2.604 136.443  1.00  0.00    -0.308 OA
BRANCH  23  24
HETATM   24  C18 UNL     1      37.358  -3.141 137.566  1.00  0.00     0.255 C 
HETATM   25  C19 UNL     1      38.659  -3.841 137.485  1.00  0.00     0.126 C 
HETATM   26  O13 UNL     1      36.743  -3.031 138.653  1.00  0.00    -0.266 OA
ENDBRANCH  23  24
ENDBRANCH  14  23
ENDBRANCH   8   9
ENDBRANCH   1   8
BRANCH   2  27
HETATM   27  O5  UNL     1      33.367  -1.958 138.225  1.00  0.00    -0.294 OA
BRANCH  27  28
HETATM   28  C8  UNL     1      32.001  -2.215 138.109  1.00  0.00     0.386 C 
HETATM   29  O6  UNL     1      31.382  -2.408 139.185  1.00  0.00    -0.236 OA
HETATM   30  N1  UNL     1      31.338  -2.260 136.861  1.00  0.00    -0.209 N 
HETATM   31  C9  UNL     1      29.922  -2.533 136.832  1.00  0.00     0.191 C 
BRANCH  30  32
HETATM   32  O7  UNL     1      31.957  -2.061 135.683  1.00  0.00    -0.283 OA
ATOM     33  H7  UNL     1      31.542  -2.204 134.841  1.00  0.00     0.245 HD
ENDBRANCH  30  32
ENDBRANCH  27  28
ENDBRANCH   2  27
BRANCH   6  34
HETATM   34  O11 UNL     1      35.897   1.957 137.040  1.00  0.00    -0.385 OA
ATOM     35  H11 UNL     1      35.749   2.893 137.092  1.00  0.00     0.210 HD
ENDBRANCH   6  34
BRANCH   5  36
HETATM   36  O9  UNL     1      35.969   2.322 139.985  1.00  0.00    -0.310 OA
BRANCH  36  37
HETATM   37  C13 UNL     1      37.007   3.252 140.083  1.00  0.00     0.255 C 
HETATM   38  C14 UNL     1      37.361   3.927 141.357  1.00  0.00     0.126 C 
HETATM   39  O10 UNL     1      37.678   3.539 139.055  1.00  0.00    -0.266 OA
ENDBRANCH  36  37
ENDBRANCH   5  36
BRANCH   4  40
HETATM   40  O8  UNL     1      36.113   0.205 141.352  1.00  0.00    -0.393 OA
ATOM     41  H8  UNL     1      36.516   1.065 141.384  1.00  0.00     0.210 HD
ENDBRANCH   4  40
TORSDOF 15
ENDMDL
MODEL 2
REMARK VINA RESULT: -7.631923457      0.604      1.073
REMARK  15 active torsions:
REMARK  status: ('A' for Active; 'I' for Inactive)
REMARK    1  A    between atoms: C2_2  and  O2_4 
REMARK    2  A    between atoms: O2_4  and  C3_5 
REMARK    3  A    between atoms: C5_8  and  O4_9 
REMARK    4  A    between atoms: O4_9  and  C6_10 
REMARK    5  A    between atoms: C7_11  and  O5_12 
REMARK    6  A    between atoms: O5_12  and  C8_13 
REMARK       I    between atoms: C8_13  and  N1_15 
REMARK    7  A    between atoms: N1_15  and  O7_17 
REMARK    8  A    between atoms: C11_20  and  O8_21 
REMARK    9  A    between atoms: C12_23  and  O9_24 
REMARK   10  A    between atoms: O9_24  and  C13_25 
REMARK   11  A    between atoms: C15_28  and  O11_30 
REMARK   12  A    between atoms: C17_32  and  O12_33 
REMARK   13  A    between atoms: O12_33  and  C18_34 
REMARK   14  A    between atoms: C20_37  and  O14_38 
REMARK   15  A    between atoms: O14_38  and  C21_39 
ROOT
HETATM    1  C6  UNL     1      34.968  -0.079 137.481  1.00  0.00     0.191 C 
HETATM    2  C7  UNL     1      33.903  -0.618 138.424  1.00  0.00     0.168 C 
HETATM    3  C10 UNL     1      34.436  -0.621 139.830  1.00  0.00     0.069 C 
HETATM    4  C11 UNL     1      35.819  -0.107 139.971  1.00  0.00     0.153 C 
HETATM    5  C12 UNL     1      36.102   1.163 139.232  1.00  0.00     0.197 C 
HETATM    6  C15 UNL     1      35.279   1.317 137.977  1.00  0.00     0.112 C 
HETATM    7  C16 UNL     1      33.989   2.088 138.272  1.00  0.00     0.051 C 
ENDROOT
BRANCH   1   8
HETATM    8  O4  UNL     1      34.554  -0.133 136.176  1.00  0.00    -0.348 OA
BRANCH   8   9
HETATM    9  C5  UNL     1      35.379  -0.958 135.450  1.00  0.00     0.292 C 
HETATM   10  O3  UNL     1      35.521  -0.373 134.185  1.00  0.00    -0.356 OA
HETATM   11  C4  UNL     1      36.119  -1.257 133.276  1.00  0.00     0.206 C 
HETATM   12  C3  UNL     1      37.397  -1.850 133.889  1.00  0.00     0.188 C 
HETATM   13  C20 UNL     1      37.782  -0.946 135.021  1.00  0.00     0.198 C 
HETATM   14  C17 UNL     1      36.725  -1.177 136.112  1.00  0.00     0.219 C 
BRANCH  12  15
HETATM   15  O2  UNL     1      38.377  -1.996 132.915  1.00  0.00    -0.311 OA
BRANCH  15  16
HETATM   16  C2  UNL     1      38.961  -3.240 132.736  1.00  0.00     0.255 C 
HETATM   17  C1  UNL     1      38.449  -4.471 133.384  1.00  0.00     0.126 C 
HETATM   18  O1  UNL     1      39.957  -3.340 132.002  1.00  0.00    -0.266 OA
ENDBRANCH  15  16
ENDBRANCH  12  15
BRANCH  13  19
HETATM   19  O14 UNL     1      39.069  -1.078 135.487  1.00  0.00    -0.311 OA
BRANCH  19  20
HETATM   20  C21 UNL     1      39.968  -0.045 135.457  1.00  0.00     0.255 C 
HETATM   21  C22 UNL     1      41.425  -0.204 135.271  1.00  0.00     0.126 C 
HETATM   22  O15 UNL     1      39.501   1.111 135.601  1.00  0.00    -0.266 OA
ENDBRANCH  19  20
ENDBRANCH  13  19
BRANCH  14  23
HETATM   23  O12 UNL     1      36.818  -2.555 136.421  1.00  0.00    -0.308 OA
BRANCH  23  24
HETATM   24  C18 UNL     1      37.358  -3.076 137.554  1.00  0.00     0.255 C 
HETATM   25  C19 UNL     1      38.701  -3.697 137.504  1.00  0.00     0.126 C 
HETATM   26  O13 UNL     1      36.704  -3.019 138.622  1.00  0.00    -0.266 OA
ENDBRANCH  23  24
ENDBRANCH  14  23
ENDBRANCH   8   9
ENDBRANCH   1   8
BRANCH   2  27
HETATM   27  O5  UNL     1      33.419  -1.876 138.022  1.00  0.00    -0.294 OA
BRANCH  27  28
HETATM   28  C8  UNL     1      32.085  -2.074 137.664  1.00  0.00     0.386 C 
HETATM   29  O6  UNL     1      31.833  -2.041 136.433  1.00  0.00    -0.236 OA
HETATM   30  N1  UNL     1      31.066  -2.301 138.617  1.00  0.00    -0.209 N 
HETATM   31  C9  UNL     1      29.712  -2.496 138.158  1.00  0.00     0.191 C 
BRANCH  30  32
HETATM   32  O7  UNL     1      31.285  -2.344 139.944  1.00  0.00    -0.283 OA
ATOM     33  H7  UNL     1      31.398  -1.571 140.483  1.00  0.00     0.245 HD
ENDBRANCH  30  32
ENDBRANCH  27  28
ENDBRANCH   2  27
BRANCH   6  34
HETATM   34  O11 UNL     1      35.998   2.073 137.085  1.00  0.00    -0.385 OA
ATOM     35  H11 UNL     1      36.309   1.583 136.333  1.00  0.00     0.210 HD
ENDBRANCH   6  34
BRANCH   5  36
HETATM   36  O9  UNL     1      35.973   2.316 140.043  1.00  0.00    -0.310 OA
BRANCH  36  37
HETATM   37  C13 UNL     1      37.000   3.250 140.193  1.00  0.00     0.255 C 
HETATM   38  C14 UNL     1      37.315   3.896 141.493  1.00  0.00     0.126 C 
HETATM   39  O10 UNL     1      37.697   3.568 139.192  1.00  0.00    -0.266 OA
ENDBRANCH  36  37
ENDBRANCH   5  36
BRANCH   4  40
HETATM   40  O8  UNL     1      36.065   0.144 141.326  1.00  0.00    -0.393 OA
ATOM     41  H8  UNL     1      35.684   0.984 141.552  1.00  0.00     0.210 HD
ENDBRANCH   4  40
TORSDOF 15
ENDMDL
MODEL 3
REMARK VINA RESULT: -7.531737901      2.726      7.177
REMARK  15 active torsions:
REMARK  status: ('A' for Active; 'I' for Inactive)
REMARK    1  A    between atoms: C2_2  and  O2_4 
REMARK    2  A    between atoms: O2_4  and  C3_5 
REMARK    3  A    between atoms: C5_8  and  O4_9 
REMARK    4  A    between atoms: O4_9  and  C6_10 
REMARK    5  A    between atoms: C7_11  and  O5_12 
REMARK    6  A    between atoms: O5_12  and  C8_13 
REMARK       I    between atoms: C8_13  and  N1_15 
REMARK    7  A    between atoms: N1_15  and  O7_17 
REMARK    8  A    between atoms: C11_20  and  O8_21 
REMARK    9  A    between atoms: C12_23  and  O9_24 
REMARK   10  A    between atoms: O9_24  and  C13_25 
REMARK   11  A    between atoms: C15_28  and  O11_30 
REMARK   12  A    between atoms: C17_32  and  O12_33 
REMARK   13  A    between atoms: O12_33  and  C18_34 
REMARK   14  A    between atoms: C20_37  and  O14_38 
REMARK   15  A    between atoms: O14_38  and  C21_39 
ROOT
HETATM    1  C6  UNL     1      37.551  -0.147 133.507  1.00  0.00     0.191 C 
HETATM    2  C7  UNL     1      38.026  -1.179 132.496  1.00  0.00     0.168 C 
HETATM    3  C10 UNL     1      36.870  -1.608 131.637  1.00  0.00     0.069 C 
HETATM    4  C11 UNL     1      35.583  -0.944 131.953  1.00  0.00     0.153 C 
HETATM    5  C12 UNL     1      35.663   0.539 132.142  1.00  0.00     0.197 C 
HETATM    6  C15 UNL     1      36.993   0.997 132.686  1.00  0.00     0.112 C 
HETATM    7  C16 UNL     1      37.946   1.359 131.542  1.00  0.00     0.051 C 
ENDROOT
BRANCH   1   8
HETATM    8  O4  UNL     1      38.556   0.214 134.364  1.00  0.00    -0.348 OA
BRANCH   8   9
HETATM    9  C5  UNL     1      38.142   0.074 135.667  1.00  0.00     0.292 C 
HETATM   10  O3  UNL     1      37.408   1.224 135.983  1.00  0.00    -0.356 OA
HETATM   11  C4  UNL     1      37.165   1.315 137.361  1.00  0.00     0.206 C 
HETATM   12  C3  UNL     1      36.590  -0.012 137.878  1.00  0.00     0.188 C 
HETATM   13  C20 UNL     1      36.077  -0.747 136.676  1.00  0.00     0.198 C 
HETATM   14  C17 UNL     1      37.326  -1.183 135.894  1.00  0.00     0.219 C 
BRANCH  12  15
HETATM   15  O2  UNL     1      35.631   0.225 138.855  1.00  0.00    -0.311 OA
BRANCH  15  16
HETATM   16  C2  UNL     1      35.756  -0.409 140.081  1.00  0.00     0.255 C 
HETATM   17  C1  UNL     1      36.016  -1.862 140.214  1.00  0.00     0.126 C 
HETATM   18  O1  UNL     1      35.648   0.261 141.121  1.00  0.00    -0.266 OA
ENDBRANCH  15  16
ENDBRANCH  12  15
BRANCH  13  19
HETATM   19  O14 UNL     1      35.214  -1.788 136.929  1.00  0.00    -0.311 OA
BRANCH  19  20
HETATM   20  C21 UNL     1      33.870  -1.701 136.680  1.00  0.00     0.255 C 
HETATM   21  C22 UNL     1      32.824  -1.662 137.724  1.00  0.00     0.126 C 
HETATM   22  O15 UNL     1      33.523  -1.653 135.476  1.00  0.00    -0.266 OA
ENDBRANCH  19  20
ENDBRANCH  13  19
BRANCH  14  23
HETATM   23  O12 UNL     1      38.054  -1.995 136.797  1.00  0.00    -0.308 OA
BRANCH  23  24
HETATM   24  C18 UNL     1      37.987  -3.351 136.869  1.00  0.00     0.255 C 
HETATM   25  C19 UNL     1      38.393  -4.037 138.116  1.00  0.00     0.126 C 
HETATM   26  O13 UNL     1      37.583  -3.994 135.872  1.00  0.00    -0.266 OA
ENDBRANCH  23  24
ENDBRANCH  14  23
ENDBRANCH   8   9
ENDBRANCH   1   8
BRANCH   2  27
HETATM   27  O5  UNL     1      38.684  -2.263 133.106  1.00  0.00    -0.294 OA
BRANCH  27  28
HETATM   28  C8  UNL     1      39.144  -3.356 132.372  1.00  0.00     0.386 C 
HETATM   29  O6  UNL     1      40.092  -3.130 131.579  1.00  0.00    -0.236 OA
HETATM   30  N1  UNL     1      38.585  -4.649 132.501  1.00  0.00    -0.209 N 
HETATM   31  C9  UNL     1      39.122  -5.724 131.702  1.00  0.00     0.191 C 
BRANCH  30  32
HETATM   32  O7  UNL     1      37.570  -4.940 133.334  1.00  0.00    -0.283 OA
ATOM     33  H7  UNL     1      36.667  -5.022 133.052  1.00  0.00     0.245 HD
ENDBRANCH  30  32
ENDBRANCH  27  28
ENDBRANCH   2  27
BRANCH   6  34
HETATM   34  O11 UNL     1      36.787   2.146 133.408  1.00  0.00    -0.385 OA
ATOM     35  H11 UNL     1      37.378   2.853 133.179  1.00  0.00     0.210 HD
ENDBRANCH   6  34
BRANCH   5  36
HETATM   36  O9  UNL     1      35.341   1.264 130.970  1.00  0.00    -0.310 OA
BRANCH  36  37
HETATM   37  C13 UNL     1      34.256   2.142 130.903  1.00  0.00     0.255 C 
HETATM   38  C14 UNL     1      34.418   3.617 130.862  1.00  0.00     0.126 C 
HETATM   39  O10 UNL     1      33.085   1.675 130.875  1.00  0.00    -0.266 OA
ENDBRANCH  36  37
ENDBRANCH   5  36
BRANCH   4  40
HETATM   40  O8  UNL     1      34.692  -1.174 130.897  1.00  0.00    -0.393 OA
ATOM     41  H8  UNL     1      33.805  -1.083 131.225  1.00  0.00     0.210 HD
ENDBRANCH   4  40
TORSDOF 15
ENDMDL
MODEL 4
REMARK VINA RESULT: -7.449743680      5.611     10.565
REMARK  15 active torsions:
REMARK  status: ('A' for Active; 'I' for Inactive)
REMARK    1  A    between atoms: C2_2  and  O2_4 
REMARK    2  A    between atoms: O2_4  and  C3_5 
REMARK    3  A    between atoms: C5_8  and  O4_9 
REMARK    4  A    between atoms: O4_9  and  C6_10 
REMARK    5  A    between atoms: C7_11  and  O5_12 
REMARK    6  A    between atoms: O5_12  and  C8_13 
REMARK       I    between atoms: C8_13  and  N1_15 
REMARK    7  A    between atoms: N1_15  and  O7_17 
REMARK    8  A    between atoms: C11_20  and  O8_21 
REMARK    9  A    between atoms: C12_23  and  O9_24 
REMARK   10  A    between atoms: O9_24  and  C13_25 
REMARK   11  A    between atoms: C15_28  and  O11_30 
REMARK   12  A    between atoms: C17_32  and  O12_33 
REMARK   13  A    between atoms: O12_33  and  C18_34 
REMARK   14  A    between atoms: C20_37  and  O14_38 
REMARK   15  A    between atoms: O14_38  and  C21_39 
ROOT
HETATM    1  C6  UNL     1      38.332  -3.536 129.639  1.00  0.00     0.191 C 
HETATM    2  C7  UNL     1      38.560  -4.426 130.851  1.00  0.00     0.168 C 
HETATM    3  C10 UNL     1      38.049  -5.809 130.560  1.00  0.00     0.069 C 
HETATM    4  C11 UNL     1      37.472  -5.985 129.206  1.00  0.00     0.153 C 
HETATM    5  C12 UNL     1      38.284  -5.405 128.090  1.00  0.00     0.197 C 
HETATM    6  C15 UNL     1      39.086  -4.197 128.504  1.00  0.00     0.112 C 
HETATM    7  C16 UNL     1      40.490  -4.612 128.955  1.00  0.00     0.051 C 
ENDROOT
BRANCH   1   8
HETATM    8  O4  UNL     1      38.711  -2.244 129.888  1.00  0.00    -0.348 OA
BRANCH   8   9
HETATM    9  C5  UNL     1      37.604  -1.435 129.987  1.00  0.00     0.292 C 
HETATM   10  O3  UNL     1      38.040  -0.220 130.531  1.00  0.00    -0.356 OA
HETATM   11  C4  UNL     1      36.960   0.582 130.926  1.00  0.00     0.206 C 
HETATM   12  C3  UNL     1      35.942   0.686 129.779  1.00  0.00     0.188 C 
HETATM   13  C20 UNL     1      36.669   0.286 128.531  1.00  0.00     0.198 C 
HETATM   14  C17 UNL     1      36.906  -1.227 128.658  1.00  0.00     0.219 C 
BRANCH  12  15
HETATM   15  O2  UNL     1      35.392   1.962 129.737  1.00  0.00    -0.311 OA
BRANCH  15  16
HETATM   16  C2  UNL     1      34.515   2.344 130.740  1.00  0.00     0.255 C 
HETATM   17  C1  UNL     1      34.690   3.582 131.535  1.00  0.00     0.126 C 
HETATM   18  O1  UNL     1      33.535   1.625 130.992  1.00  0.00    -0.266 OA
ENDBRANCH  15  16
ENDBRANCH  12  15
BRANCH  13  19
HETATM   19  O14 UNL     1      36.067   0.636 127.345  1.00  0.00    -0.311 OA
BRANCH  19  20
HETATM   20  C21 UNL     1      36.701   0.511 126.137  1.00  0.00     0.255 C 
HETATM   21  C22 UNL     1      36.158  -0.223 124.975  1.00  0.00     0.126 C 
HETATM   22  O15 UNL     1      37.822   1.065 126.031  1.00  0.00    -0.266 OA
ENDBRANCH  19  20
ENDBRANCH  13  19
BRANCH  14  23
HETATM   23  O12 UNL     1      35.612  -1.788 128.774  1.00  0.00    -0.308 OA
BRANCH  23  24
HETATM   24  C18 UNL     1      34.916  -2.382 127.769  1.00  0.00     0.255 C 
HETATM   25  C19 UNL     1      35.590  -3.370 126.898  1.00  0.00     0.126 C 
HETATM   26  O13 UNL     1      33.712  -2.078 127.601  1.00  0.00    -0.266 OA
ENDBRANCH  23  24
ENDBRANCH  14  23
ENDBRANCH   8   9
ENDBRANCH   1   8
BRANCH   2  27
HETATM   27  O5  UNL     1      38.013  -3.879 132.027  1.00  0.00    -0.294 OA
BRANCH  27  28
HETATM   28  C8  UNL     1      38.813  -3.484 133.099  1.00  0.00     0.386 C 
HETATM   29  O6  UNL     1      39.978  -3.110 132.811  1.00  0.00    -0.236 OA
HETATM   30  N1  UNL     1      38.355  -3.498 134.437  1.00  0.00    -0.209 N 
HETATM   31  C9  UNL     1      39.250  -3.073 135.486  1.00  0.00     0.191 C 
BRANCH  30  32
HETATM   32  O7  UNL     1      37.119  -3.890 134.795  1.00  0.00    -0.283 OA
ATOM     33  H7  UNL     1      36.910  -4.772 135.081  1.00  0.00     0.245 HD
ENDBRANCH  30  32
ENDBRANCH  27  28
ENDBRANCH   2  27
BRANCH   6  34
HETATM   34  O11 UNL     1      39.245  -3.392 127.404  1.00  0.00    -0.385 OA
ATOM     35  H11 UNL     1      40.010  -2.830 127.449  1.00  0.00     0.210 HD
ENDBRANCH   6  34
BRANCH   5  36
HETATM   36  O9  UNL     1      39.126  -6.357 127.466  1.00  0.00    -0.310 OA
BRANCH  36  37
HETATM   37  C13 UNL     1      39.241  -6.465 126.078  1.00  0.00     0.255 C 
HETATM   38  C14 UNL     1      40.127  -7.459 125.421  1.00  0.00     0.126 C 
HETATM   39  O10 UNL     1      38.571  -5.693 125.341  1.00  0.00    -0.266 OA
ENDBRANCH  36  37
ENDBRANCH   5  36
BRANCH   4  40
HETATM   40  O8  UNL     1      37.345  -7.356 128.950  1.00  0.00    -0.393 OA
ATOM     41  H8  UNL     1      36.552  -7.670 129.371  1.00  0.00     0.210 HD
ENDBRANCH   4  40
TORSDOF 15
ENDMDL
MODEL 5
REMARK VINA RESULT: -7.351065304      4.009      9.375
REMARK  15 active torsions:
REMARK  status: ('A' for Active; 'I' for Inactive)
REMARK    1  A    between atoms: C2_2  and  O2_4 
REMARK    2  A    between atoms: O2_4  and  C3_5 
REMARK    3  A    between atoms: C5_8  and  O4_9 
REMARK    4  A    between atoms: O4_9  and  C6_10 
REMARK    5  A    between atoms: C7_11  and  O5_12 
REMARK    6  A    between atoms: O5_12  and  C8_13 
REMARK       I    between atoms: C8_13  and  N1_15 
REMARK    7  A    between atoms: N1_15  and  O7_17 
REMARK    8  A    between atoms: C11_20  and  O8_21 
REMARK    9  A    between atoms: C12_23  and  O9_24 
REMARK   10  A    between atoms: O9_24  and  C13_25 
REMARK   11  A    between atoms: C15_28  and  O11_30 
REMARK   12  A    between atoms: C17_32  and  O12_33 
REMARK   13  A    between atoms: O12_33  and  C18_34 
REMARK   14  A    between atoms: C20_37  and  O14_38 
REMARK   15  A    between atoms: O14_38  and  C21_39 
ROOT
HETATM    1  C6  UNL     1      38.702  -3.082 130.541  1.00  0.00     0.191 C 
HETATM    2  C7  UNL     1      38.777  -4.098 131.670  1.00  0.00     0.168 C 
HETATM    3  C10 UNL     1      38.289  -5.431 131.176  1.00  0.00     0.069 C 
HETATM    4  C11 UNL     1      37.874  -5.452 129.754  1.00  0.00     0.153 C 
HETATM    5  C12 UNL     1      38.818  -4.778 128.807  1.00  0.00     0.197 C 
HETATM    6  C15 UNL     1      39.578  -3.638 129.438  1.00  0.00     0.112 C 
HETATM    7  C16 UNL     1      40.914  -4.129 130.002  1.00  0.00     0.051 C 
ENDROOT
BRANCH   1   8
HETATM    8  O4  UNL     1      39.062  -1.831 130.968  1.00  0.00    -0.348 OA
BRANCH   8   9
HETATM    9  C5  UNL     1      38.025  -0.949 130.783  1.00  0.00     0.292 C 
HETATM   10  O3  UNL     1      36.952  -1.690 130.272  1.00  0.00    -0.356 OA
HETATM   11  C4  UNL     1      35.933  -0.854 129.794  1.00  0.00     0.206 C 
HETATM   12  C3  UNL     1      35.577   0.195 130.858  1.00  0.00     0.188 C 
HETATM   13  C20 UNL     1      36.108  -0.326 132.159  1.00  0.00     0.198 C 
HETATM   14  C17 UNL     1      37.638  -0.221 132.055  1.00  0.00     0.219 C 
BRANCH  12  15
HETATM   15  O2  UNL     1      34.210   0.441 130.855  1.00  0.00    -0.311 OA
BRANCH  15  16
HETATM   16  C2  UNL     1      33.768   1.755 130.857  1.00  0.00     0.255 C 
HETATM   17  C1  UNL     1      34.690   2.915 130.835  1.00  0.00     0.126 C 
HETATM   18  O1  UNL     1      32.548   1.982 130.876  1.00  0.00    -0.266 OA
ENDBRANCH  15  16
ENDBRANCH  12  15
BRANCH  13  19
HETATM   19  O14 UNL     1      35.607   0.266 133.295  1.00  0.00    -0.311 OA
BRANCH  19  20
HETATM   20  C21 UNL     1      35.751  -0.293 134.537  1.00  0.00     0.255 C 
HETATM   21  C22 UNL     1      36.691   0.189 135.571  1.00  0.00     0.126 C 
HETATM   22  O15 UNL     1      35.027  -1.285 134.794  1.00  0.00    -0.266 OA
ENDBRANCH  19  20
ENDBRANCH  13  19
BRANCH  14  23
HETATM   23  O12 UNL     1      37.892   1.155 131.841  1.00  0.00    -0.308 OA
BRANCH  23  24
HETATM   24  C18 UNL     1      39.120   1.716 131.685  1.00  0.00     0.255 C 
HETATM   25  C19 UNL     1      39.376   2.605 130.530  1.00  0.00     0.126 C 
HETATM   26  O13 UNL     1      40.013   1.469 132.529  1.00  0.00    -0.266 OA
ENDBRANCH  23  24
ENDBRANCH  14  23
ENDBRANCH   8   9
ENDBRANCH   1   8
BRANCH   2  27
HETATM   27  O5  UNL     1      38.101  -3.664 132.826  1.00  0.00    -0.294 OA
BRANCH  27  28
HETATM   28  C8  UNL     1      38.782  -3.312 133.991  1.00  0.00     0.386 C 
HETATM   29  O6  UNL     1      40.003  -3.050 133.860  1.00  0.00    -0.236 OA
HETATM   30  N1  UNL     1      38.148  -3.250 135.254  1.00  0.00    -0.209 N 
HETATM   31  C9  UNL     1      38.928  -2.877 136.409  1.00  0.00     0.191 C 
BRANCH  30  32
HETATM   32  O7  UNL     1      36.845  -3.522 135.446  1.00  0.00    -0.283 OA
ATOM     33  H7  UNL     1      36.524  -4.100 136.128  1.00  0.00     0.245 HD
ENDBRANCH  30  32
ENDBRANCH  27  28
ENDBRANCH   2  27
BRANCH   6  34
HETATM   34  O11 UNL     1      39.874  -2.726 128.455  1.00  0.00    -0.385 OA
ATOM     35  H11 UNL     1      40.132  -3.122 127.631  1.00  0.00     0.210 HD
ENDBRANCH   6  34
BRANCH   5  36
HETATM   36  O9  UNL     1      39.718  -5.679 128.188  1.00  0.00    -0.310 OA
BRANCH  36  37
HETATM   37  C13 UNL     1      39.868  -5.758 126.801  1.00  0.00     0.255 C 
HETATM   38  C14 UNL     1      40.279  -7.006 126.109  1.00  0.00     0.126 C 
HETATM   39  O10 UNL     1      39.650  -4.736 126.097  1.00  0.00    -0.266 OA
ENDBRANCH  36  37
ENDBRANCH   5  36
BRANCH   4  40
HETATM   40  O8  UNL     1      37.764  -6.785 129.341  1.00  0.00    -0.393 OA
ATOM     41  H8  UNL     1      36.855  -7.053 129.422  1.00  0.00     0.210 HD
ENDBRANCH   4  40
TORSDOF 15
ENDMDL
