MODEL 1
REMARK VINA RESULT: -7.659056244      0.000      0.000
REMARK  14 active torsions:
REMARK  status: ('A' for Active; 'I' for Inactive)
REMARK    1  A    between atoms: C2_2  and  O2_4 
REMARK    2  A    between atoms: O2_4  and  C3_5 
REMARK    3  A    between atoms: C6_9  and  O4_10 
REMARK    4  A    between atoms: O4_10  and  C7_11 
REMARK    5  A    between atoms: C8_12  and  O5_13 
REMARK    6  A    between atoms: O5_13  and  C9_14 
REMARK    7  A    between atoms: C11_17  and  O7_18 
REMARK    8  A    between atoms: O7_18  and  C12_19 
REMARK    9  A    between atoms: C15_24  and  O9_26 
REMARK   10  A    between atoms: C17_28  and  O10_29 
REMARK   11  A    between atoms: O10_29  and  C18_30 
REMARK   12  A    between atoms: C20_33  and  O12_34 
REMARK   13  A    between atoms: C21_36  and  O13_37 
REMARK   14  A    between atoms: O13_37  and  C22_38 
ROOT
HETATM    1  C7  UNL     1      39.780  -2.699 127.721  1.00  0.00     0.189 C 
HETATM    2  C8  UNL     1      40.313  -3.835 128.563  1.00  0.00     0.194 C 
HETATM    3  C11 UNL     1      39.828  -5.166 128.040  1.00  0.00     0.181 C 
HETATM    4  C14 UNL     1      39.994  -5.333 126.577  1.00  0.00     0.127 C 
HETATM    5  S1  UNL     1      38.416  -5.847 125.793  1.00  0.00    -0.086 SA
HETATM    6  C15 UNL     1      40.545  -4.186 125.836  1.00  0.00     0.099 C 
HETATM    7  C16 UNL     1      40.125  -4.339 124.370  1.00  0.00     0.050 C 
HETATM    8  C17 UNL     1      40.138  -2.834 126.273  1.00  0.00     0.198 C 
ENDROOT
BRANCH   1   9
HETATM    9  O4  UNL     1      40.260  -1.530 128.247  1.00  0.00    -0.348 OA
BRANCH   9  10
HETATM   10  C6  UNL     1      39.287  -0.706 128.810  1.00  0.00     0.292 C 
HETATM   11  O3  UNL     1      38.912  -1.268 130.012  1.00  0.00    -0.351 OA
HETATM   12  C4  UNL     1      37.927  -0.608 130.686  1.00  0.00     0.152 C 
HETATM   13  C3  UNL     1      36.970   0.160 129.828  1.00  0.00     0.192 C 
HETATM   14  C5  UNL     1      37.181  -1.592 131.558  1.00  0.00     0.042 C 
HETATM   15  C21 UNL     1      36.821  -0.420 128.442  1.00  0.00     0.197 C 
HETATM   16  C20 UNL     1      38.182  -0.586 127.818  1.00  0.00     0.205 C 
BRANCH  13  17
HETATM   17  O2  UNL     1      35.690   0.080 130.443  1.00  0.00    -0.311 OA
BRANCH  17  18
HETATM   18  C2  UNL     1      34.877   1.192 130.604  1.00  0.00     0.255 C 
HETATM   19  C1  UNL     1      35.385   2.582 130.531  1.00  0.00     0.126 C 
HETATM   20  O1  UNL     1      33.656   0.980 130.822  1.00  0.00    -0.266 OA
ENDBRANCH  17  18
ENDBRANCH  13  17
BRANCH  15  21
HETATM   21  O13 UNL     1      36.226  -1.703 128.492  1.00  0.00    -0.311 OA
BRANCH  21  22
HETATM   22  C22 UNL     1      35.038  -2.022 127.846  1.00  0.00     0.255 C 
HETATM   23  C23 UNL     1      35.008  -2.369 126.393  1.00  0.00     0.126 C 
HETATM   24  O14 UNL     1      33.989  -2.002 128.549  1.00  0.00    -0.266 OA
ENDBRANCH  21  22
ENDBRANCH  15  21
BRANCH  16  25
HETATM   25  O12 UNL     1      38.404   0.586 127.060  1.00  0.00    -0.388 OA
ATOM     26  H12 UNL     1      38.394   0.345 126.141  1.00  0.00     0.210 HD
ENDBRANCH  16  25
ENDBRANCH   9  10
ENDBRANCH   1   9
BRANCH   2  27
HETATM   27  O5  UNL     1      41.700  -3.840 128.664  1.00  0.00    -0.311 OA
BRANCH  27  28
HETATM   28  C9  UNL     1      42.317  -4.323 129.805  1.00  0.00     0.255 C 
HETATM   29  C10 UNL     1      43.081  -5.583 129.847  1.00  0.00     0.126 C 
HETATM   30  O6  UNL     1      42.209  -3.630 130.867  1.00  0.00    -0.266 OA
ENDBRANCH  27  28
ENDBRANCH   2  27
BRANCH   8  31
HETATM   31  O10 UNL     1      41.216  -1.944 126.010  1.00  0.00    -0.310 OA
BRANCH  31  32
HETATM   32  C18 UNL     1      41.212  -1.038 124.985  1.00  0.00     0.255 C 
HETATM   33  C19 UNL     1      42.255  -0.971 123.929  1.00  0.00     0.126 C 
HETATM   34  O11 UNL     1      40.255  -0.208 124.944  1.00  0.00    -0.266 OA
ENDBRANCH  31  32
ENDBRANCH   8  31
BRANCH   3  35
HETATM   35  O7  UNL     1      38.433  -5.232 128.337  1.00  0.00    -0.312 OA
BRANCH  35  36
HETATM   36  C12 UNL     1      37.914  -6.011 129.351  1.00  0.00     0.255 C 
HETATM   37  C13 UNL     1      38.170  -5.688 130.801  1.00  0.00     0.126 C 
HETATM   38  O8  UNL     1      37.217  -7.004 129.026  1.00  0.00    -0.266 OA
ENDBRANCH  35  36
ENDBRANCH   3  35
BRANCH   6  39
HETATM   39  O9  UNL     1      41.957  -4.273 125.819  1.00  0.00    -0.386 OA
ATOM     40  H9  UNL     1      42.316  -3.709 126.493  1.00  0.00     0.210 HD
ENDBRANCH   6  39
TORSDOF 14
ENDMDL
MODEL 2
REMARK VINA RESULT: -7.550785648      1.584      1.859
REMARK  14 active torsions:
REMARK  status: ('A' for Active; 'I' for Inactive)
REMARK    1  A    between atoms: C2_2  and  O2_4 
REMARK    2  A    between atoms: O2_4  and  C3_5 
REMARK    3  A    between atoms: C6_9  and  O4_10 
REMARK    4  A    between atoms: O4_10  and  C7_11 
REMARK    5  A    between atoms: C8_12  and  O5_13 
REMARK    6  A    between atoms: O5_13  and  C9_14 
REMARK    7  A    between atoms: C11_17  and  O7_18 
REMARK    8  A    between atoms: O7_18  and  C12_19 
REMARK    9  A    between atoms: C15_24  and  O9_26 
REMARK   10  A    between atoms: C17_28  and  O10_29 
REMARK   11  A    between atoms: O10_29  and  C18_30 
REMARK   12  A    between atoms: C20_33  and  O12_34 
REMARK   13  A    between atoms: C21_36  and  O13_37 
REMARK   14  A    between atoms: O13_37  and  C22_38 
ROOT
HETATM    1  C7  UNL     1      38.822  -2.903 128.216  1.00  0.00     0.189 C 
HETATM    2  C8  UNL     1      39.878  -3.574 129.067  1.00  0.00     0.194 C 
HETATM    3  C11 UNL     1      39.531  -5.023 129.311  1.00  0.00     0.181 C 
HETATM    4  C14 UNL     1      39.143  -5.762 128.087  1.00  0.00     0.127 C 
HETATM    5  S1  UNL     1      37.538  -6.622 128.323  1.00  0.00    -0.086 SA
HETATM    6  C15 UNL     1      39.094  -4.992 126.833  1.00  0.00     0.099 C 
HETATM    7  C16 UNL     1      38.177  -5.747 125.863  1.00  0.00     0.050 C 
HETATM    8  C17 UNL     1      38.605  -3.598 126.908  1.00  0.00     0.198 C 
ENDROOT
BRANCH   1   9
HETATM    9  O4  UNL     1      39.202  -1.601 128.033  1.00  0.00    -0.348 OA
BRANCH   9  10
HETATM   10  C6  UNL     1      38.319  -0.661 128.562  1.00  0.00     0.292 C 
HETATM   11  O3  UNL     1      38.031  -1.044 129.855  1.00  0.00    -0.351 OA
HETATM   12  C4  UNL     1      37.139  -0.251 130.516  1.00  0.00     0.152 C 
HETATM   13  C3  UNL     1      36.142   0.451 129.647  1.00  0.00     0.192 C 
HETATM   14  C5  UNL     1      36.434  -1.074 131.570  1.00  0.00     0.042 C 
HETATM   15  C21 UNL     1      35.845  -0.293 128.367  1.00  0.00     0.197 C 
HETATM   16  C20 UNL     1      37.135  -0.610 127.659  1.00  0.00     0.205 C 
BRANCH  13  17
HETATM   17  O2  UNL     1      34.921   0.518 130.373  1.00  0.00    -0.311 OA
BRANCH  17  18
HETATM   18  C2  UNL     1      34.374   1.723 130.788  1.00  0.00     0.255 C 
HETATM   19  C1  UNL     1      35.192   2.921 131.092  1.00  0.00     0.126 C 
HETATM   20  O1  UNL     1      33.122   1.774 130.904  1.00  0.00    -0.266 OA
ENDBRANCH  17  18
ENDBRANCH  13  17
BRANCH  15  21
HETATM   21  O13 UNL     1      35.203  -1.526 128.636  1.00  0.00    -0.311 OA
BRANCH  21  22
HETATM   22  C22 UNL     1      34.359  -2.162 127.736  1.00  0.00     0.255 C 
HETATM   23  C23 UNL     1      34.884  -2.800 126.491  1.00  0.00     0.126 C 
HETATM   24  O14 UNL     1      33.129  -2.173 128.022  1.00  0.00    -0.266 OA
ENDBRANCH  21  22
ENDBRANCH  15  21
BRANCH  16  25
HETATM   25  O12 UNL     1      37.337   0.442 126.736  1.00  0.00    -0.388 OA
ATOM     26  H12 UNL     1      36.595   1.031 126.799  1.00  0.00     0.210 HD
ENDBRANCH  16  25
ENDBRANCH   9  10
ENDBRANCH   1   9
BRANCH   2  27
HETATM   27  O5  UNL     1      41.157  -3.474 128.531  1.00  0.00    -0.311 OA
BRANCH  27  28
HETATM   28  C9  UNL     1      42.239  -4.024 129.198  1.00  0.00     0.255 C 
HETATM   29  C10 UNL     1      43.205  -4.941 128.567  1.00  0.00     0.126 C 
HETATM   30  O6  UNL     1      42.394  -3.710 130.422  1.00  0.00    -0.266 OA
ENDBRANCH  27  28
ENDBRANCH   2  27
BRANCH   8  31
HETATM   31  O10 UNL     1      39.270  -2.844 125.903  1.00  0.00    -0.310 OA
BRANCH  31  32
HETATM   32  C18 UNL     1      38.778  -2.678 124.637  1.00  0.00     0.255 C 
HETATM   33  C19 UNL     1      37.714  -1.705 124.278  1.00  0.00     0.126 C 
HETATM   34  O11 UNL     1      39.267  -3.405 123.721  1.00  0.00    -0.266 OA
ENDBRANCH  31  32
ENDBRANCH   8  31
BRANCH   3  35
HETATM   35  O7  UNL     1      38.416  -5.025 130.202  1.00  0.00    -0.312 OA
BRANCH  35  36
HETATM   36  C12 UNL     1      38.547  -4.988 131.575  1.00  0.00     0.255 C 
HETATM   37  C13 UNL     1      39.064  -6.173 132.349  1.00  0.00     0.126 C 
HETATM   38  O8  UNL     1      38.221  -3.928 132.164  1.00  0.00    -0.266 OA
ENDBRANCH  35  36
ENDBRANCH   3  35
BRANCH   6  39
HETATM   39  O9  UNL     1      40.367  -5.014 126.218  1.00  0.00    -0.386 OA
ATOM     40  H9  UNL     1      40.404  -5.731 125.596  1.00  0.00     0.210 HD
ENDBRANCH   6  39
TORSDOF 14
ENDMDL
MODEL 3
REMARK VINA RESULT: -7.532734648      2.455      3.978
REMARK  14 active torsions:
REMARK  status: ('A' for Active; 'I' for Inactive)
REMARK    1  A    between atoms: C2_2  and  O2_4 
REMARK    2  A    between atoms: O2_4  and  C3_5 
REMARK    3  A    between atoms: C6_9  and  O4_10 
REMARK    4  A    between atoms: O4_10  and  C7_11 
REMARK    5  A    between atoms: C8_12  and  O5_13 
REMARK    6  A    between atoms: O5_13  and  C9_14 
REMARK    7  A    between atoms: C11_17  and  O7_18 
REMARK    8  A    between atoms: O7_18  and  C12_19 
REMARK    9  A    between atoms: C15_24  and  O9_26 
REMARK   10  A    between atoms: C17_28  and  O10_29 
REMARK   11  A    between atoms: O10_29  and  C18_30 
REMARK   12  A    between atoms: C20_33  and  O12_34 
REMARK   13  A    between atoms: C21_36  and  O13_37 
REMARK   14  A    between atoms: O13_37  and  C22_38 
ROOT
HETATM    1  C7  UNL     1      39.869  -2.602 127.935  1.00  0.00     0.189 C 
HETATM    2  C8  UNL     1      40.428  -3.828 128.621  1.00  0.00     0.194 C 
HETATM    3  C11 UNL     1      39.836  -5.088 128.035  1.00  0.00     0.181 C 
HETATM    4  C14 UNL     1      39.857  -5.129 126.554  1.00  0.00     0.127 C 
HETATM    5  S1  UNL     1      38.190  -5.513 125.887  1.00  0.00    -0.086 SA
HETATM    6  C15 UNL     1      40.387  -3.941 125.865  1.00  0.00     0.099 C 
HETATM    7  C16 UNL     1      39.825  -3.947 124.438  1.00  0.00     0.050 C 
HETATM    8  C17 UNL     1      40.083  -2.619 126.453  1.00  0.00     0.198 C 
ENDROOT
BRANCH   1   9
HETATM    9  O4  UNL     1      40.448  -1.503 128.511  1.00  0.00    -0.348 OA
BRANCH   9  10
HETATM   10  C6  UNL     1      40.384  -1.478 129.902  1.00  0.00     0.292 C 
HETATM   11  O3  UNL     1      39.089  -1.160 130.253  1.00  0.00    -0.351 OA
HETATM   12  C4  UNL     1      38.854  -1.049 131.592  1.00  0.00     0.152 C 
HETATM   13  C3  UNL     1      40.033  -0.631 132.415  1.00  0.00     0.192 C 
HETATM   14  C5  UNL     1      37.694  -0.106 131.814  1.00  0.00     0.042 C 
HETATM   15  C21 UNL     1      41.023   0.210 131.645  1.00  0.00     0.197 C 
HETATM   16  C20 UNL     1      41.405  -0.501 130.375  1.00  0.00     0.205 C 
BRANCH  13  17
HETATM   17  O2  UNL     1      39.543   0.183 133.474  1.00  0.00    -0.311 OA
BRANCH  17  18
HETATM   18  C2  UNL     1      40.055   0.108 134.761  1.00  0.00     0.255 C 
HETATM   19  C1  UNL     1      39.956   1.220 135.735  1.00  0.00     0.126 C 
HETATM   20  O1  UNL     1      40.625  -0.964 135.088  1.00  0.00    -0.266 OA
ENDBRANCH  17  18
ENDBRANCH  13  17
BRANCH  15  21
HETATM   21  O13 UNL     1      40.453   1.451 131.274  1.00  0.00    -0.311 OA
BRANCH  21  22
HETATM   22  C22 UNL     1      41.020   2.679 131.589  1.00  0.00     0.255 C 
HETATM   23  C23 UNL     1      41.799   2.880 132.848  1.00  0.00     0.126 C 
HETATM   24  O14 UNL     1      40.842   3.614 130.758  1.00  0.00    -0.266 OA
ENDBRANCH  21  22
ENDBRANCH  15  21
BRANCH  16  25
HETATM   25  O12 UNL     1      42.587  -1.218 130.673  1.00  0.00    -0.388 OA
ATOM     26  H12 UNL     1      42.894  -0.932 131.525  1.00  0.00     0.210 HD
ENDBRANCH  16  25
ENDBRANCH   9  10
ENDBRANCH   1   9
BRANCH   2  27
HETATM   27  O5  UNL     1      41.816  -3.892 128.585  1.00  0.00    -0.311 OA
BRANCH  27  28
HETATM   28  C9  UNL     1      42.509  -4.592 129.558  1.00  0.00     0.255 C 
HETATM   29  C10 UNL     1      43.185  -5.878 129.311  1.00  0.00     0.126 C 
HETATM   30  O6  UNL     1      42.557  -4.083 130.724  1.00  0.00    -0.266 OA
ENDBRANCH  27  28
ENDBRANCH   2  27
BRANCH   8  31
HETATM   31  O10 UNL     1      41.170  -1.749 126.164  1.00  0.00    -0.310 OA
BRANCH  31  32
HETATM   32  C18 UNL     1      41.195  -0.907 125.087  1.00  0.00     0.255 C 
HETATM   33  C19 UNL     1      42.190  -0.989 123.987  1.00  0.00     0.126 C 
HETATM   34  O11 UNL     1      40.310  -0.001 125.035  1.00  0.00    -0.266 OA
ENDBRANCH  31  32
ENDBRANCH   8  31
BRANCH   3  35
HETATM   35  O7  UNL     1      38.474  -5.130 128.460  1.00  0.00    -0.312 OA
BRANCH  35  36
HETATM   36  C12 UNL     1      38.026  -5.946 129.479  1.00  0.00     0.255 C 
HETATM   37  C13 UNL     1      38.401  -5.689 130.915  1.00  0.00     0.126 C 
HETATM   38  O8  UNL     1      37.291  -6.916 129.169  1.00  0.00    -0.266 OA
ENDBRANCH  35  36
ENDBRANCH   3  35
BRANCH   6  39
HETATM   39  O9  UNL     1      41.786  -4.078 125.702  1.00  0.00    -0.386 OA
ATOM     40  H9  UNL     1      41.963  -4.734 125.039  1.00  0.00     0.210 HD
ENDBRANCH   6  39
TORSDOF 14
ENDMDL
MODEL 4
REMARK VINA RESULT: -7.450028706      7.785     11.252
REMARK  14 active torsions:
REMARK  status: ('A' for Active; 'I' for Inactive)
REMARK    1  A    between atoms: C2_2  and  O2_4 
REMARK    2  A    between atoms: O2_4  and  C3_5 
REMARK    3  A    between atoms: C6_9  and  O4_10 
REMARK    4  A    between atoms: O4_10  and  C7_11 
REMARK    5  A    between atoms: C8_12  and  O5_13 
REMARK    6  A    between atoms: O5_13  and  C9_14 
REMARK    7  A    between atoms: C11_17  and  O7_18 
REMARK    8  A    between atoms: O7_18  and  C12_19 
REMARK    9  A    between atoms: C15_24  and  O9_26 
REMARK   10  A    between atoms: C17_28  and  O10_29 
REMARK   11  A    between atoms: O10_29  and  C18_30 
REMARK   12  A    between atoms: C20_33  and  O12_34 
REMARK   13  A    between atoms: C21_36  and  O13_37 
REMARK   14  A    between atoms: O13_37  and  C22_38 
ROOT
HETATM    1  C7  UNL     1      38.136   1.271 136.638  1.00  0.00     0.189 C 
HETATM    2  C8  UNL     1      37.556   0.268 135.666  1.00  0.00     0.194 C 
HETATM    3  C11 UNL     1      36.680  -0.731 136.384  1.00  0.00     0.181 C 
HETATM    4  C14 UNL     1      35.703  -0.115 137.313  1.00  0.00     0.127 C 
HETATM    5  S1  UNL     1      35.815  -0.879 138.979  1.00  0.00    -0.086 SA
HETATM    6  C15 UNL     1      35.753   1.350 137.453  1.00  0.00     0.099 C 
HETATM    7  C16 UNL     1      35.103   1.707 138.795  1.00  0.00     0.050 C 
HETATM    8  C17 UNL     1      37.084   1.993 137.422  1.00  0.00     0.198 C 
ENDROOT
BRANCH   1   9
HETATM    9  O4  UNL     1      38.911   2.143 135.922  1.00  0.00    -0.348 OA
BRANCH   9  10
HETATM   10  C6  UNL     1      40.154   2.413 136.492  1.00  0.00     0.292 C 
HETATM   11  O3  UNL     1      40.106   3.691 137.007  1.00  0.00    -0.351 OA
HETATM   12  C4  UNL     1      41.264   4.140 137.570  1.00  0.00     0.152 C 
HETATM   13  C3  UNL     1      42.519   3.551 137.008  1.00  0.00     0.192 C 
HETATM   14  C5  UNL     1      41.304   5.649 137.482  1.00  0.00     0.042 C 
HETATM   15  C21 UNL     1      42.377   3.120 135.567  1.00  0.00     0.197 C 
HETATM   16  C20 UNL     1      41.179   2.218 135.428  1.00  0.00     0.205 C 
BRANCH  13  17
HETATM   17  O2  UNL     1      43.514   4.567 137.033  1.00  0.00    -0.311 OA
BRANCH  17  18
HETATM   18  C2  UNL     1      44.625   4.493 137.861  1.00  0.00     0.255 C 
HETATM   19  C1  UNL     1      45.910   3.891 137.436  1.00  0.00     0.126 C 
HETATM   20  O1  UNL     1      44.506   4.966 139.020  1.00  0.00    -0.266 OA
ENDBRANCH  17  18
ENDBRANCH  13  17
BRANCH  15  21
HETATM   21  O13 UNL     1      42.158   4.237 134.725  1.00  0.00    -0.311 OA
BRANCH  21  22
HETATM   22  C22 UNL     1      43.011   4.592 133.688  1.00  0.00     0.255 C 
HETATM   23  C23 UNL     1      44.487   4.374 133.781  1.00  0.00     0.126 C 
HETATM   24  O14 UNL     1      42.477   5.108 132.667  1.00  0.00    -0.266 OA
ENDBRANCH  21  22
ENDBRANCH  15  21
BRANCH  16  25
HETATM   25  O12 UNL     1      41.675   0.899 135.539  1.00  0.00    -0.388 OA
ATOM     26  H12 UNL     1      41.540   0.465 134.705  1.00  0.00     0.210 HD
ENDBRANCH  16  25
ENDBRANCH   9  10
ENDBRANCH   1   9
BRANCH   2  27
HETATM   27  O5  UNL     1      36.850   0.859 134.624  1.00  0.00    -0.311 OA
BRANCH  27  28
HETATM   28  C9  UNL     1      36.471   0.110 133.523  1.00  0.00     0.255 C 
HETATM   29  C10 UNL     1      37.390  -0.770 132.780  1.00  0.00     0.126 C 
HETATM   30  O6  UNL     1      35.258   0.198 133.145  1.00  0.00    -0.266 OA
ENDBRANCH  27  28
ENDBRANCH   2  27
BRANCH   8  31
HETATM   31  O10 UNL     1      36.933   3.287 136.853  1.00  0.00    -0.310 OA
BRANCH  31  32
HETATM   32  C18 UNL     1      37.180   4.445 137.539  1.00  0.00     0.255 C 
HETATM   33  C19 UNL     1      37.300   4.528 139.017  1.00  0.00     0.126 C 
HETATM   34  O11 UNL     1      37.311   5.508 136.860  1.00  0.00    -0.266 OA
ENDBRANCH  31  32
ENDBRANCH   8  31
BRANCH   3  35
HETATM   35  O7  UNL     1      37.556  -1.560 137.147  1.00  0.00    -0.312 OA
BRANCH  35  36
HETATM   36  C12 UNL     1      37.847  -2.865 136.807  1.00  0.00     0.255 C 
HETATM   37  C13 UNL     1      39.033  -3.585 137.393  1.00  0.00     0.126 C 
HETATM   38  O8  UNL     1      37.086  -3.438 135.987  1.00  0.00    -0.266 OA
ENDBRANCH  35  36
ENDBRANCH   3  35
BRANCH   6  39
HETATM   39  O9  UNL     1      34.917   1.943 136.478  1.00  0.00    -0.386 OA
ATOM     40  H9  UNL     1      34.052   2.081 136.847  1.00  0.00     0.210 HD
ENDBRANCH   6  39
TORSDOF 14
ENDMDL
MODEL 5
REMARK VINA RESULT: -7.395670357      2.397      6.884
REMARK  14 active torsions:
REMARK  status: ('A' for Active; 'I' for Inactive)
REMARK    1  A    between atoms: C2_2  and  O2_4 
REMARK    2  A    between atoms: O2_4  and  C3_5 
REMARK    3  A    between atoms: C6_9  and  O4_10 
REMARK    4  A    between atoms: O4_10  and  C7_11 
REMARK    5  A    between atoms: C8_12  and  O5_13 
REMARK    6  A    between atoms: O5_13  and  C9_14 
REMARK    7  A    between atoms: C11_17  and  O7_18 
REMARK    8  A    between atoms: O7_18  and  C12_19 
REMARK    9  A    between atoms: C15_24  and  O9_26 
REMARK   10  A    between atoms: C17_28  and  O10_29 
REMARK   11  A    between atoms: O10_29  and  C18_30 
REMARK   12  A    between atoms: C20_33  and  O12_34 
REMARK   13  A    between atoms: C21_36  and  O13_37 
REMARK   14  A    between atoms: O13_37  and  C22_38 
ROOT
HETATM    1  C7  UNL     1      37.186  -1.898 129.011  1.00  0.00     0.189 C 
HETATM    2  C8  UNL     1      37.188  -1.547 130.482  1.00  0.00     0.194 C 
HETATM    3  C11 UNL     1      37.963  -0.275 130.730  1.00  0.00     0.181 C 
HETATM    4  C14 UNL     1      37.605   0.835 129.817  1.00  0.00     0.127 C 
HETATM    5  S1  UNL     1      39.103   1.540 129.023  1.00  0.00    -0.086 SA
HETATM    6  C15 UNL     1      36.605   0.542 128.776  1.00  0.00     0.099 C 
HETATM    7  C16 UNL     1      36.789   1.573 127.656  1.00  0.00     0.050 C 
HETATM    8  C17 UNL     1      36.641  -0.798 128.154  1.00  0.00     0.198 C 
ENDROOT
BRANCH   1   9
HETATM    9  O4  UNL     1      36.467  -3.052 128.860  1.00  0.00    -0.348 OA
BRANCH   9  10
HETATM   10  C6  UNL     1      37.204  -4.136 128.387  1.00  0.00     0.292 C 
HETATM   11  O3  UNL     1      38.454  -4.072 128.966  1.00  0.00    -0.351 OA
HETATM   12  C4  UNL     1      39.330  -5.043 128.578  1.00  0.00     0.152 C 
HETATM   13  C3  UNL     1      39.113  -5.587 127.200  1.00  0.00     0.192 C 
HETATM   14  C5  UNL     1      40.741  -4.521 128.723  1.00  0.00     0.042 C 
HETATM   15  C21 UNL     1      38.467  -4.591 126.266  1.00  0.00     0.197 C 
HETATM   16  C20 UNL     1      37.212  -4.049 126.899  1.00  0.00     0.205 C 
BRANCH  13  17
HETATM   17  O2  UNL     1      40.392  -5.886 126.656  1.00  0.00    -0.311 OA
BRANCH  17  18
HETATM   18  C2  UNL     1      40.552  -6.729 125.565  1.00  0.00     0.255 C 
HETATM   19  C1  UNL     1      41.506  -6.454 124.466  1.00  0.00     0.126 C 
HETATM   20  O1  UNL     1      39.842  -7.766 125.535  1.00  0.00    -0.266 OA
ENDBRANCH  17  18
ENDBRANCH  13  17
BRANCH  15  21
HETATM   21  O13 UNL     1      39.324  -3.489 126.030  1.00  0.00    -0.311 OA
BRANCH  21  22
HETATM   22  C22 UNL     1      39.844  -3.179 124.781  1.00  0.00     0.255 C 
HETATM   23  C23 UNL     1      41.031  -2.285 124.629  1.00  0.00     0.126 C 
HETATM   24  O14 UNL     1      39.262  -3.689 123.783  1.00  0.00    -0.266 OA
ENDBRANCH  21  22
ENDBRANCH  15  21
BRANCH  16  25
HETATM   25  O12 UNL     1      36.156  -4.852 126.411  1.00  0.00    -0.388 OA
ATOM     26  H12 UNL     1      35.442  -4.805 127.035  1.00  0.00     0.210 HD
ENDBRANCH  16  25
ENDBRANCH   9  10
ENDBRANCH   1   9
BRANCH   2  27
HETATM   27  O5  UNL     1      35.911  -1.439 131.021  1.00  0.00    -0.311 OA
BRANCH  27  28
HETATM   28  C9  UNL     1      35.724  -0.869 132.268  1.00  0.00     0.255 C 
HETATM   29  C10 UNL     1      36.308  -1.410 133.509  1.00  0.00     0.126 C 
HETATM   30  O6  UNL     1      35.005   0.180 132.331  1.00  0.00    -0.266 OA
ENDBRANCH  27  28
ENDBRANCH   2  27
BRANCH   8  31
HETATM   31  O10 UNL     1      35.312  -1.151 127.792  1.00  0.00    -0.310 OA
BRANCH  31  32
HETATM   32  C18 UNL     1      34.948  -1.515 126.524  1.00  0.00     0.255 C 
HETATM   33  C19 UNL     1      35.517  -0.916 125.290  1.00  0.00     0.126 C 
HETATM   34  O11 UNL     1      34.068  -2.420 126.408  1.00  0.00    -0.266 OA
ENDBRANCH  31  32
ENDBRANCH   8  31
BRANCH   3  35
HETATM   35  O7  UNL     1      39.338  -0.594 130.521  1.00  0.00    -0.312 OA
BRANCH  35  36
HETATM   36  C12 UNL     1      40.141  -1.148 131.497  1.00  0.00     0.255 C 
HETATM   37  C13 UNL     1      40.079  -0.677 132.927  1.00  0.00     0.126 C 
HETATM   38  O8  UNL     1      40.931  -2.062 131.154  1.00  0.00    -0.266 OA
ENDBRANCH  35  36
ENDBRANCH   3  35
BRANCH   6  39
HETATM   39  O9  UNL     1      35.309   0.792 129.287  1.00  0.00    -0.386 OA
ATOM     40  H9  UNL     1      34.822  -0.022 129.321  1.00  0.00     0.210 HD
ENDBRANCH   6  39
TORSDOF 14
ENDMDL
