MODEL 1
REMARK VINA RESULT: -10.116451966      0.000      0.000
REMARK  11 active torsions:
REMARK  status: ('A' for Active; 'I' for Inactive)
REMARK    1  A    between atoms: C2_5  and  C3_6 
REMARK    2  A    between atoms: C3_6  and  C4_7 
REMARK    3  A    between atoms: C4_7  and  C5_8 
REMARK    4  A    between atoms: C5_8  and  C6_9 
REMARK    5  A    between atoms: C6_9  and  O2_10 
REMARK    6  A    between atoms: C12_17  and  C13_18 
REMARK    7  A    between atoms: C14_19  and  C15_20 
REMARK    8  A    between atoms: C15_20  and  C16_21 
REMARK    9  A    between atoms: C17_22  and  C18_23 
REMARK   10  A    between atoms: C18_23  and  C19_24 
REMARK   11  A    between atoms: C20_25  and  C21_26 
ROOT
HETATM    1  O1  UNL     1       8.939  -2.561  26.852  1.00  0.00    -0.273 OA
HETATM    2  C1  UNL     1      10.143  -2.857  26.687  1.00  0.00     0.222 C 
HETATM    3  N1  UNL     1      10.866  -2.478  25.526  1.00  0.00    -0.356 N 
ATOM      4  H1  UNL     1      10.406  -2.391  24.619  1.00  0.00     0.162 HD
HETATM    5  C2  UNL     1      12.277  -2.219  25.680  1.00  0.00     0.084 C 
HETATM    6  C7  UNL     1      12.453  -1.732  27.093  1.00  0.00     0.030 C 
HETATM    7  C8  UNL     1      12.168  -2.930  28.015  1.00  0.00     0.001 C 
HETATM    8  C9  UNL     1      12.315  -2.394  29.411  1.00  0.00     0.010 C 
HETATM    9  C10 UNL     1      11.601  -3.270  30.429  1.00  0.00    -0.013 C 
HETATM   10  C11 UNL     1      11.894  -4.728  30.138  1.00  0.00     0.013 C 
HETATM   11  C12 UNL     1      10.708  -5.303  29.476  1.00  0.00     0.013 C 
HETATM   12  C28 UNL     1      10.051  -4.044  28.861  1.00  0.00     0.007 C 
HETATM   13  C29 UNL     1      10.124  -3.129  30.058  1.00  0.00     0.011 C 
HETATM   14  C30 UNL     1      10.907  -3.633  27.707  1.00  0.00     0.086 C 
ENDROOT
BRANCH  11  15
HETATM   15  C13 UNL     1       9.732  -6.025  30.301  1.00  0.00    -0.025 C 
HETATM   16  C14 UNL     1       9.648  -7.323  30.335  1.00  0.00    -0.027 C 
BRANCH  16  17
HETATM   17  C15 UNL     1       8.597  -7.975  31.223  1.00  0.00     0.053 C 
BRANCH  17  18
HETATM   18  C16 UNL     1       8.098  -9.171  30.572  1.00  0.00    -0.027 C 
HETATM   19  C17 UNL     1       8.138  -9.654  29.382  1.00  0.00    -0.027 C 
BRANCH  19  20
HETATM   20  C18 UNL     1       8.748  -9.139  28.160  1.00  0.00     0.053 C 
BRANCH  20  21
HETATM   21  C19 UNL     1       9.077 -10.053  27.087  1.00  0.00    -0.027 C 
HETATM   22  C20 UNL     1       9.702  -9.732  25.976  1.00  0.00    -0.026 C 
BRANCH  22  23
HETATM   23  C21 UNL     1      10.169  -8.372  25.660  1.00  0.00     0.008 C 
HETATM   24  C22 UNL     1      11.669  -8.319  25.963  1.00  0.00     0.008 C 
HETATM   25  C23 UNL     1      12.023  -6.935  26.507  1.00  0.00     0.001 C 
HETATM   26  C24 UNL     1      12.195  -5.974  25.337  1.00  0.00     0.000 C 
HETATM   27  C25 UNL     1      10.953  -5.964  24.475  1.00  0.00     0.000 C 
HETATM   28  C26 UNL     1      10.893  -7.174  23.578  1.00  0.00     0.001 C 
HETATM   29  C27 UNL     1       9.965  -8.187  24.150  1.00  0.00     0.008 C 
ENDBRANCH  22  23
ENDBRANCH  20  21
ENDBRANCH  19  20
ENDBRANCH  17  18
ENDBRANCH  16  17
ENDBRANCH  11  15
BRANCH   5  30
HETATM   30  C3  UNL     1      12.789  -1.345  24.635  1.00  0.00     0.025 C 
BRANCH  30  31
HETATM   31  C4  UNL     1      12.539   0.085  24.578  1.00  0.00     0.004 C 
BRANCH  31  32
HETATM   32  C5  UNL     1      11.348   0.498  23.767  1.00  0.00     0.026 C 
BRANCH  32  33
HETATM   33  C6  UNL     1      11.828   1.635  22.826  1.00  0.00     0.164 C 
BRANCH  33  34
HETATM   34  O2  UNL     1      12.811   2.336  23.511  1.00  0.00    -0.401 OA
ATOM     35  H2  UNL     1      12.454   3.195  23.703  1.00  0.00     0.209 HD
ENDBRANCH  33  34
ENDBRANCH  32  33
ENDBRANCH  31  32
ENDBRANCH  30  31
ENDBRANCH   5  30
TORSDOF 11
ENDMDL
MODEL 2
REMARK VINA RESULT: -10.053250609      6.516     10.387
REMARK  11 active torsions:
REMARK  status: ('A' for Active; 'I' for Inactive)
REMARK    1  A    between atoms: C2_5  and  C3_6 
REMARK    2  A    between atoms: C3_6  and  C4_7 
REMARK    3  A    between atoms: C4_7  and  C5_8 
REMARK    4  A    between atoms: C5_8  and  C6_9 
REMARK    5  A    between atoms: C6_9  and  O2_10 
REMARK    6  A    between atoms: C12_17  and  C13_18 
REMARK    7  A    between atoms: C14_19  and  C15_20 
REMARK    8  A    between atoms: C15_20  and  C16_21 
REMARK    9  A    between atoms: C17_22  and  C18_23 
REMARK   10  A    between atoms: C18_23  and  C19_24 
REMARK   11  A    between atoms: C20_25  and  C21_26 
ROOT
HETATM    1  O1  UNL     1      12.223  -6.533  25.742  1.00  0.00    -0.273 OA
HETATM    2  C1  UNL     1      11.668  -7.655  25.716  1.00  0.00     0.222 C 
HETATM    3  N1  UNL     1      10.874  -8.133  26.790  1.00  0.00    -0.356 N 
ATOM      4  H1  UNL     1      11.071  -7.871  27.755  1.00  0.00     0.162 HD
HETATM    5  C2  UNL     1       9.773  -9.007  26.459  1.00  0.00     0.084 C 
HETATM    6  C7  UNL     1       9.336  -8.611  25.074  1.00  0.00     0.030 C 
HETATM    7  C8  UNL     1      10.468  -9.024  24.117  1.00  0.00     0.001 C 
HETATM    8  C9  UNL     1      10.012  -8.578  22.757  1.00  0.00     0.010 C 
HETATM    9  C10 UNL     1      11.176  -8.445  21.788  1.00  0.00    -0.013 C 
HETATM   10  C11 UNL     1      12.093  -9.644  21.929  1.00  0.00     0.013 C 
HETATM   11  C12 UNL     1      13.273  -9.219  22.706  1.00  0.00     0.013 C 
HETATM   12  C28 UNL     1      12.711  -8.013  23.496  1.00  0.00     0.007 C 
HETATM   13  C29 UNL     1      12.006  -7.300  22.369  1.00  0.00     0.011 C 
HETATM   14  C30 UNL     1      11.806  -8.571  24.546  1.00  0.00     0.086 C 
ENDROOT
BRANCH  11  15
HETATM   15  C13 UNL     1      14.482  -8.822  21.976  1.00  0.00    -0.025 C 
HETATM   16  C14 UNL     1      15.685  -9.108  22.377  1.00  0.00    -0.027 C 
BRANCH  16  17
HETATM   17  C15 UNL     1      16.875  -8.645  21.546  1.00  0.00     0.053 C 
BRANCH  17  18
HETATM   18  C16 UNL     1      17.704  -9.790  21.222  1.00  0.00    -0.027 C 
HETATM   19  C17 UNL     1      17.691 -10.710  20.326  1.00  0.00    -0.027 C 
BRANCH  19  20
HETATM   20  C18 UNL     1      16.770 -10.956  19.221  1.00  0.00     0.053 C 
BRANCH  20  21
HETATM   21  C19 UNL     1      15.437 -11.444  19.500  1.00  0.00    -0.027 C 
HETATM   22  C20 UNL     1      14.692 -12.145  18.673  1.00  0.00    -0.026 C 
BRANCH  22  23
HETATM   23  C21 UNL     1      15.118 -12.542  17.322  1.00  0.00     0.008 C 
HETATM   24  C22 UNL     1      15.631 -13.983  17.406  1.00  0.00     0.008 C 
HETATM   25  C23 UNL     1      16.802 -14.157  16.439  1.00  0.00     0.001 C 
HETATM   26  C24 UNL     1      16.252 -14.403  15.039  1.00  0.00     0.000 C 
HETATM   27  C25 UNL     1      15.319 -13.286  14.633  1.00  0.00     0.000 C 
HETATM   28  C26 UNL     1      13.965 -13.434  15.279  1.00  0.00     0.001 C 
HETATM   29  C27 UNL     1      13.855 -12.521  16.449  1.00  0.00     0.008 C 
ENDBRANCH  22  23
ENDBRANCH  20  21
ENDBRANCH  19  20
ENDBRANCH  17  18
ENDBRANCH  16  17
ENDBRANCH  11  15
BRANCH   5  30
HETATM   30  C3  UNL     1       8.739  -8.992  27.484  1.00  0.00     0.025 C 
BRANCH  30  31
HETATM   31  C4  UNL     1       8.974  -8.622  28.869  1.00  0.00     0.004 C 
BRANCH  31  32
HETATM   32  C5  UNL     1       8.167  -9.379  29.882  1.00  0.00     0.026 C 
BRANCH  32  33
HETATM   33  C6  UNL     1       8.320  -8.617  31.226  1.00  0.00     0.164 C 
BRANCH  33  34
HETATM   34  O2  UNL     1       7.235  -8.974  32.015  1.00  0.00    -0.401 OA
ATOM     35  H2  UNL     1       7.586  -9.395  32.791  1.00  0.00     0.209 HD
ENDBRANCH  33  34
ENDBRANCH  32  33
ENDBRANCH  31  32
ENDBRANCH  30  31
ENDBRANCH   5  30
TORSDOF 11
ENDMDL
MODEL 3
REMARK VINA RESULT: -9.863351221      6.662      9.050
REMARK  11 active torsions:
REMARK  status: ('A' for Active; 'I' for Inactive)
REMARK    1  A    between atoms: C2_5  and  C3_6 
REMARK    2  A    between atoms: C3_6  and  C4_7 
REMARK    3  A    between atoms: C4_7  and  C5_8 
REMARK    4  A    between atoms: C5_8  and  C6_9 
REMARK    5  A    between atoms: C6_9  and  O2_10 
REMARK    6  A    between atoms: C12_17  and  C13_18 
REMARK    7  A    between atoms: C14_19  and  C15_20 
REMARK    8  A    between atoms: C15_20  and  C16_21 
REMARK    9  A    between atoms: C17_22  and  C18_23 
REMARK   10  A    between atoms: C18_23  and  C19_24 
REMARK   11  A    between atoms: C20_25  and  C21_26 
ROOT
HETATM    1  O1  UNL     1      11.591  -4.697  21.084  1.00  0.00    -0.273 OA
HETATM    2  C1  UNL     1      11.908  -4.508  22.279  1.00  0.00     0.222 C 
HETATM    3  N1  UNL     1      11.811  -3.235  22.898  1.00  0.00    -0.356 N 
ATOM      4  H1  UNL     1      11.947  -2.375  22.367  1.00  0.00     0.162 HD
HETATM    5  C2  UNL     1      11.512  -3.207  24.310  1.00  0.00     0.084 C 
HETATM    6  C7  UNL     1      10.700  -4.445  24.582  1.00  0.00     0.030 C 
HETATM    7  C8  UNL     1      11.646  -5.645  24.403  1.00  0.00     0.001 C 
HETATM    8  C9  UNL     1      10.791  -6.857  24.643  1.00  0.00     0.010 C 
HETATM    9  C10 UNL     1      11.404  -8.109  24.036  1.00  0.00    -0.013 C 
HETATM   10  C11 UNL     1      12.887  -8.149  24.345  1.00  0.00     0.013 C 
HETATM   11  C12 UNL     1      13.612  -7.742  23.126  1.00  0.00     0.013 C 
HETATM   12  C28 UNL     1      12.542  -6.902  22.390  1.00  0.00     0.007 C 
HETATM   13  C29 UNL     1      11.367  -7.838  22.531  1.00  0.00     0.011 C 
HETATM   14  C30 UNL     1      12.411  -5.618  23.141  1.00  0.00     0.086 C 
ENDROOT
BRANCH  11  15
HETATM   15  C13 UNL     1      14.125  -8.792  22.238  1.00  0.00    -0.025 C 
HETATM   16  C14 UNL     1      15.380  -8.905  21.916  1.00  0.00    -0.027 C 
BRANCH  16  17
HETATM   17  C15 UNL     1      15.809 -10.029  20.984  1.00  0.00     0.053 C 
BRANCH  17  18
HETATM   18  C16 UNL     1      17.252 -10.002  20.835  1.00  0.00    -0.027 C 
HETATM   19  C17 UNL     1      18.107 -10.578  20.070  1.00  0.00    -0.027 C 
BRANCH  19  20
HETATM   20  C18 UNL     1      17.928 -11.540  18.987  1.00  0.00     0.053 C 
BRANCH  20  21
HETATM   21  C19 UNL     1      17.770 -12.944  19.299  1.00  0.00    -0.027 C 
HETATM   22  C20 UNL     1      17.114 -13.819  18.569  1.00  0.00    -0.026 C 
BRANCH  22  23
HETATM   23  C21 UNL     1      16.435 -13.489  17.306  1.00  0.00     0.008 C 
HETATM   24  C22 UNL     1      16.027 -14.809  16.645  1.00  0.00     0.008 C 
HETATM   25  C23 UNL     1      16.156 -14.672  15.128  1.00  0.00     0.001 C 
HETATM   26  C24 UNL     1      14.909 -13.982  14.587  1.00  0.00     0.000 C 
HETATM   27  C25 UNL     1      14.698 -12.655  15.278  1.00  0.00     0.000 C 
HETATM   28  C26 UNL     1      14.102 -12.836  16.651  1.00  0.00     0.001 C 
HETATM   29  C27 UNL     1      15.164 -12.718  17.688  1.00  0.00     0.008 C 
ENDBRANCH  22  23
ENDBRANCH  20  21
ENDBRANCH  19  20
ENDBRANCH  17  18
ENDBRANCH  16  17
ENDBRANCH  11  15
BRANCH   5  30
HETATM   30  C3  UNL     1      10.908  -1.946  24.715  1.00  0.00     0.025 C 
BRANCH  30  31
HETATM   31  C4  UNL     1      11.271  -0.656  24.154  1.00  0.00     0.004 C 
BRANCH  31  32
HETATM   32  C5  UNL     1      10.159   0.086  23.474  1.00  0.00     0.026 C 
BRANCH  32  33
HETATM   33  C6  UNL     1      10.413  -0.041  21.948  1.00  0.00     0.164 C 
BRANCH  33  34
HETATM   34  O2  UNL     1       9.813  -1.224  21.537  1.00  0.00    -0.401 OA
ATOM     35  H2  UNL     1       9.111  -1.405  22.152  1.00  0.00     0.209 HD
ENDBRANCH  33  34
ENDBRANCH  32  33
ENDBRANCH  31  32
ENDBRANCH  30  31
ENDBRANCH   5  30
TORSDOF 11
ENDMDL
MODEL 4
REMARK VINA RESULT: -9.796444657      6.278     10.233
REMARK  11 active torsions:
REMARK  status: ('A' for Active; 'I' for Inactive)
REMARK    1  A    between atoms: C2_5  and  C3_6 
REMARK    2  A    between atoms: C3_6  and  C4_7 
REMARK    3  A    between atoms: C4_7  and  C5_8 
REMARK    4  A    between atoms: C5_8  and  C6_9 
REMARK    5  A    between atoms: C6_9  and  O2_10 
REMARK    6  A    between atoms: C12_17  and  C13_18 
REMARK    7  A    between atoms: C14_19  and  C15_20 
REMARK    8  A    between atoms: C15_20  and  C16_21 
REMARK    9  A    between atoms: C17_22  and  C18_23 
REMARK   10  A    between atoms: C18_23  and  C19_24 
REMARK   11  A    between atoms: C20_25  and  C21_26 
ROOT
HETATM    1  O1  UNL     1      12.265  -6.528  25.169  1.00  0.00    -0.273 OA
HETATM    2  C1  UNL     1      11.696  -7.628  25.344  1.00  0.00     0.222 C 
HETATM    3  N1  UNL     1      11.010  -7.946  26.545  1.00  0.00    -0.356 N 
ATOM      4  H1  UNL     1      11.311  -7.570  27.444  1.00  0.00     0.162 HD
HETATM    5  C2  UNL     1       9.870  -8.825  26.442  1.00  0.00     0.084 C 
HETATM    6  C7  UNL     1       9.296  -8.595  25.069  1.00  0.00     0.030 C 
HETATM    7  C8  UNL     1      10.317  -9.155  24.062  1.00  0.00     0.001 C 
HETATM    8  C9  UNL     1       9.729  -8.871  22.710  1.00  0.00     0.010 C 
HETATM    9  C10 UNL     1      10.787  -8.893  21.619  1.00  0.00    -0.013 C 
HETATM   10  C11 UNL     1      11.697 -10.089  21.819  1.00  0.00     0.013 C 
HETATM   11  C12 UNL     1      12.957  -9.602  22.412  1.00  0.00     0.013 C 
HETATM   12  C28 UNL     1      12.497  -8.291  23.093  1.00  0.00     0.007 C 
HETATM   13  C29 UNL     1      11.688  -7.706  21.962  1.00  0.00     0.011 C 
HETATM   14  C30 UNL     1      11.698  -8.687  24.292  1.00  0.00     0.086 C 
ENDROOT
BRANCH  11  15
HETATM   15  C13 UNL     1      14.089  -9.332  21.517  1.00  0.00    -0.025 C 
HETATM   16  C14 UNL     1      15.331  -9.486  21.871  1.00  0.00    -0.027 C 
BRANCH  16  17
HETATM   17  C15 UNL     1      16.433  -9.175  20.867  1.00  0.00     0.053 C 
BRANCH  17  18
HETATM   18  C16 UNL     1      17.711  -9.575  21.423  1.00  0.00    -0.027 C 
HETATM   19  C17 UNL     1      18.698 -10.298  21.031  1.00  0.00    -0.027 C 
BRANCH  19  20
HETATM   20  C18 UNL     1      18.911 -11.034  19.788  1.00  0.00     0.053 C 
BRANCH  20  21
HETATM   21  C19 UNL     1      18.889 -12.481  19.803  1.00  0.00    -0.027 C 
HETATM   22  C20 UNL     1      18.005 -13.237  19.192  1.00  0.00    -0.026 C 
BRANCH  22  23
HETATM   23  C21 UNL     1      16.890 -12.711  18.388  1.00  0.00     0.008 C 
HETATM   24  C22 UNL     1      16.364 -13.860  17.524  1.00  0.00     0.008 C 
HETATM   25  C23 UNL     1      15.920 -13.307  16.169  1.00  0.00     0.001 C 
HETATM   26  C24 UNL     1      14.516 -12.729  16.308  1.00  0.00     0.000 C 
HETATM   27  C25 UNL     1      14.479 -11.690  17.405  1.00  0.00     0.000 C 
HETATM   28  C26 UNL     1      14.440 -12.328  18.770  1.00  0.00     0.001 C 
HETATM   29  C27 UNL     1      15.795 -12.303  19.384  1.00  0.00     0.008 C 
ENDBRANCH  22  23
ENDBRANCH  20  21
ENDBRANCH  19  20
ENDBRANCH  17  18
ENDBRANCH  16  17
ENDBRANCH  11  15
BRANCH   5  30
HETATM   30  C3  UNL     1       8.947  -8.654  27.556  1.00  0.00     0.025 C 
BRANCH  30  31
HETATM   31  C4  UNL     1       8.584  -9.715  28.478  1.00  0.00     0.004 C 
BRANCH  31  32
HETATM   32  C5  UNL     1       8.218  -9.267  29.862  1.00  0.00     0.026 C 
BRANCH  32  33
HETATM   33  C6  UNL     1       9.195  -8.116  30.225  1.00  0.00     0.164 C 
BRANCH  33  34
HETATM   34  O2  UNL     1       8.499  -7.245  31.054  1.00  0.00    -0.401 OA
ATOM     35  H2  UNL     1       8.841  -7.368  31.932  1.00  0.00     0.209 HD
ENDBRANCH  33  34
ENDBRANCH  32  33
ENDBRANCH  31  32
ENDBRANCH  30  31
ENDBRANCH   5  30
TORSDOF 11
ENDMDL
MODEL 5
REMARK VINA RESULT: -9.712314378      1.630      1.865
REMARK  11 active torsions:
REMARK  status: ('A' for Active; 'I' for Inactive)
REMARK    1  A    between atoms: C2_5  and  C3_6 
REMARK    2  A    between atoms: C3_6  and  C4_7 
REMARK    3  A    between atoms: C4_7  and  C5_8 
REMARK    4  A    between atoms: C5_8  and  C6_9 
REMARK    5  A    between atoms: C6_9  and  O2_10 
REMARK    6  A    between atoms: C12_17  and  C13_18 
REMARK    7  A    between atoms: C14_19  and  C15_20 
REMARK    8  A    between atoms: C15_20  and  C16_21 
REMARK    9  A    between atoms: C17_22  and  C18_23 
REMARK   10  A    between atoms: C18_23  and  C19_24 
REMARK   11  A    between atoms: C20_25  and  C21_26 
ROOT
HETATM    1  O1  UNL     1       8.619  -2.583  26.653  1.00  0.00    -0.273 OA
HETATM    2  C1  UNL     1       9.771  -2.910  26.292  1.00  0.00     0.222 C 
HETATM    3  N1  UNL     1      10.258  -2.656  24.984  1.00  0.00    -0.356 N 
ATOM      4  H1  UNL     1       9.634  -2.652  24.177  1.00  0.00     0.162 HD
HETATM    5  C2  UNL     1      11.671  -2.404  24.842  1.00  0.00     0.084 C 
HETATM    6  C7  UNL     1      12.111  -1.783  26.141  1.00  0.00     0.030 C 
HETATM    7  C8  UNL     1      12.013  -2.882  27.213  1.00  0.00     0.001 C 
HETATM    8  C9  UNL     1      12.420  -2.215  28.496  1.00  0.00     0.010 C 
HETATM    9  C10 UNL     1      11.917  -2.977  29.712  1.00  0.00    -0.013 C 
HETATM   10  C11 UNL     1      12.156  -4.460  29.515  1.00  0.00     0.013 C 
HETATM   11  C12 UNL     1      10.868  -5.080  29.151  1.00  0.00     0.013 C 
HETATM   12  C28 UNL     1      10.101  -3.878  28.551  1.00  0.00     0.007 C 
HETATM   13  C29 UNL     1      10.396  -2.852  29.616  1.00  0.00     0.011 C 
HETATM   14  C30 UNL     1      10.719  -3.594  27.221  1.00  0.00     0.086 C 
ENDROOT
BRANCH  11  15
HETATM   15  C13 UNL     1      10.071  -5.706  30.213  1.00  0.00    -0.025 C 
HETATM   16  C14 UNL     1       9.730  -6.961  30.204  1.00  0.00    -0.027 C 
BRANCH  16  17
HETATM   17  C15 UNL     1       8.898  -7.511  31.354  1.00  0.00     0.053 C 
BRANCH  17  18
HETATM   18  C16 UNL     1       8.292  -8.765  30.948  1.00  0.00    -0.027 C 
HETATM   19  C17 UNL     1       8.139  -9.394  29.839  1.00  0.00    -0.027 C 
BRANCH  19  20
HETATM   20  C18 UNL     1       8.552  -9.053  28.480  1.00  0.00     0.053 C 
BRANCH  20  21
HETATM   21  C19 UNL     1       8.893 -10.110  27.553  1.00  0.00    -0.027 C 
HETATM   22  C20 UNL     1       9.506  -9.947  26.401  1.00  0.00    -0.026 C 
BRANCH  22  23
HETATM   23  C21 UNL     1       9.944  -8.641  25.883  1.00  0.00     0.008 C 
HETATM   24  C22 UNL     1      11.454  -8.536  26.117  1.00  0.00     0.008 C 
HETATM   25  C23 UNL     1      11.810  -7.087  26.451  1.00  0.00     0.001 C 
HETATM   26  C24 UNL     1      11.927  -6.296  25.153  1.00  0.00     0.000 C 
HETATM   27  C25 UNL     1      10.655  -6.414  24.347  1.00  0.00     0.000 C 
HETATM   28  C26 UNL     1      10.576  -7.737  23.629  1.00  0.00     0.001 C 
HETATM   29  C27 UNL     1       9.682  -8.668  24.370  1.00  0.00     0.008 C 
ENDBRANCH  22  23
ENDBRANCH  20  21
ENDBRANCH  19  20
ENDBRANCH  17  18
ENDBRANCH  16  17
ENDBRANCH  11  15
BRANCH   5  30
HETATM   30  C3  UNL     1      11.971  -1.643  23.637  1.00  0.00     0.025 C 
BRANCH  30  31
HETATM   31  C4  UNL     1      10.990  -1.322  22.615  1.00  0.00     0.004 C 
BRANCH  31  32
HETATM   32  C5  UNL     1      10.870  -2.321  21.503  1.00  0.00     0.026 C 
BRANCH  32  33
HETATM   33  C6  UNL     1      11.987  -3.375  21.735  1.00  0.00     0.164 C 
BRANCH  33  34
HETATM   34  O2  UNL     1      11.614  -4.516  21.036  1.00  0.00    -0.401 OA
ATOM     35  H2  UNL     1      10.782  -4.799  21.395  1.00  0.00     0.209 HD
ENDBRANCH  33  34
ENDBRANCH  32  33
ENDBRANCH  31  32
ENDBRANCH  30  31
ENDBRANCH   5  30
TORSDOF 11
ENDMDL
