MODEL 1
REMARK VINA RESULT: -9.134380500      0.000      0.000
REMARK  12 active torsions:
REMARK  status: ('A' for Active; 'I' for Inactive)
REMARK    1  A    between atoms: C2_2  and  C4_4 
REMARK    2  A    between atoms: C11_11  and  N1_12 
REMARK    3  A    between atoms: N1_12  and  C12_14 
REMARK    4  A    between atoms: C12_14  and  C13_15 
REMARK    5  A    between atoms: C12_14  and  C17_19 
REMARK    6  A    between atoms: C13_15  and  C14_16 
REMARK       I    between atoms: C17_19  and  N2_21 
REMARK    7  A    between atoms: N2_21  and  C18_23 
REMARK    8  A    between atoms: C18_23  and  C19_24 
REMARK    9  A    between atoms: C19_24  and  C20_25 
REMARK   10  A    between atoms: C20_25  and  C21_26 
REMARK   11  A    between atoms: C21_26  and  C22_27 
REMARK   12  A    between atoms: C23_28  and  C24_29 
ROOT
HETATM    1  N1  UNL     1      10.126  -7.604  26.373  1.00  0.00    -0.404 N 
ATOM      2  H1  UNL     1       9.376  -6.912  26.389  1.00  0.00     0.154 HD
ENDROOT
BRANCH   1   3
HETATM    3  C11 UNL     1      11.405  -7.231  26.709  1.00  0.00     0.085 C 
HETATM    4  C10 UNL     1      12.605  -7.886  26.087  1.00  0.00     0.026 C 
HETATM    5  C9  UNL     1      13.489  -6.721  25.565  1.00  0.00     0.008 C 
HETATM    6  C8  UNL     1      12.411  -5.783  25.212  1.00  0.00     0.001 C 
HETATM    7  C7  UNL     1      12.657  -4.557  24.510  1.00  0.00    -0.001 C 
HETATM    8  C26 UNL     1      11.673  -5.717  26.538  1.00  0.00    -0.020 C 
HETATM    9  C6  UNL     1      13.918  -3.835  24.429  1.00  0.00     0.006 C 
HETATM   10  C30 UNL     1      11.679  -3.421  24.861  1.00  0.00    -0.033 C 
HETATM   11  C5  UNL     1      13.474  -2.506  23.786  1.00  0.00     0.010 C 
HETATM   12  C4  UNL     1      11.968  -2.562  23.678  1.00  0.00     0.022 C 
HETATM   13  C29 UNL     1      10.400  -4.073  25.057  1.00  0.00     0.011 C 
HETATM   14  C31 UNL     1      12.087  -2.550  26.016  1.00  0.00     0.016 C 
HETATM   15  C28 UNL     1      10.460  -4.905  26.350  1.00  0.00     0.012 C 
HETATM   16  C27 UNL     1      12.555  -5.380  27.697  1.00  0.00     0.018 C 
BRANCH  12  17
HETATM   17  C2  UNL     1      11.453  -2.925  22.384  1.00  0.00    -0.088 C 
HETATM   18  C1  UNL     1      10.644  -2.146  21.697  1.00  0.00     0.014 C 
HETATM   19  C3  UNL     1      11.806  -4.239  21.755  1.00  0.00     0.043 C 
ENDBRANCH  12  17
ENDBRANCH   1   3
BRANCH   1  20
HETATM   20  C12 UNL     1       9.841  -8.950  26.002  1.00  0.00     0.170 C 
BRANCH  20  21
HETATM   21  C13 UNL     1       9.014  -9.081  24.796  1.00  0.00     0.038 C 
BRANCH  21  22
HETATM   22  C14 UNL     1       9.668  -9.106  23.451  1.00  0.00    -0.020 C 
HETATM   23  C15 UNL     1       8.834  -9.699  22.351  1.00  0.00     0.009 C 
HETATM   24  C16 UNL     1      10.407  -7.899  23.022  1.00  0.00     0.009 C 
ENDBRANCH  21  22
ENDBRANCH  20  21
BRANCH  20  25
HETATM   25  C17 UNL     1       9.221  -9.663  27.170  1.00  0.00     0.240 C 
HETATM   26  O1  UNL     1       9.167 -10.917  27.132  1.00  0.00    -0.271 OA
HETATM   27  N2  UNL     1       8.704  -8.966  28.281  1.00  0.00    -0.359 N 
ATOM     28  H2  UNL     1       8.753  -7.947  28.288  1.00  0.00     0.162 HD
BRANCH  27  29
HETATM   29  C18 UNL     1       8.105  -9.644  29.413  1.00  0.00     0.122 C 
BRANCH  29  30
HETATM   30  C19 UNL     1       8.354  -8.888  30.712  1.00  0.00     0.021 C 
BRANCH  30  31
HETATM   31  C20 UNL     1       9.353  -7.776  30.485  1.00  0.00     0.014 C 
BRANCH  31  32
HETATM   32  C21 UNL     1       8.923  -6.584  31.296  1.00  0.00     0.094 C 
BRANCH  32  33
HETATM   33  C22 UNL     1       9.462  -5.367  30.713  1.00  0.00    -0.107 C 
HETATM   34  C23 UNL     1       9.899  -4.341  30.240  1.00  0.00    -0.107 C 
BRANCH  34  35
HETATM   35  C24 UNL     1      10.411  -3.091  29.689  1.00  0.00     0.089 C 
HETATM   36  C25 UNL     1      11.773  -2.805  30.277  1.00  0.00     0.018 C 
ENDBRANCH  34  35
ENDBRANCH  32  33
ENDBRANCH  31  32
ENDBRANCH  30  31
ENDBRANCH  29  30
ENDBRANCH  27  29
ENDBRANCH  20  25
ENDBRANCH   1  20
TORSDOF 12
ENDMDL
MODEL 2
REMARK VINA RESULT: -8.946993795      3.264      5.936
REMARK  12 active torsions:
REMARK  status: ('A' for Active; 'I' for Inactive)
REMARK    1  A    between atoms: C2_2  and  C4_4 
REMARK    2  A    between atoms: C11_11  and  N1_12 
REMARK    3  A    between atoms: N1_12  and  C12_14 
REMARK    4  A    between atoms: C12_14  and  C13_15 
REMARK    5  A    between atoms: C12_14  and  C17_19 
REMARK    6  A    between atoms: C13_15  and  C14_16 
REMARK       I    between atoms: C17_19  and  N2_21 
REMARK    7  A    between atoms: N2_21  and  C18_23 
REMARK    8  A    between atoms: C18_23  and  C19_24 
REMARK    9  A    between atoms: C19_24  and  C20_25 
REMARK   10  A    between atoms: C20_25  and  C21_26 
REMARK   11  A    between atoms: C21_26  and  C22_27 
REMARK   12  A    between atoms: C23_28  and  C24_29 
ROOT
HETATM    1  N1  UNL     1      14.131  -8.123  22.857  1.00  0.00    -0.404 N 
ATOM      2  H1  UNL     1      13.749  -7.370  22.283  1.00  0.00     0.154 HD
ENDROOT
BRANCH   1   3
HETATM    3  C11 UNL     1      14.144  -7.999  24.225  1.00  0.00     0.085 C 
HETATM    4  C10 UNL     1      15.302  -7.374  24.948  1.00  0.00     0.026 C 
HETATM    5  C9  UNL     1      14.678  -6.292  25.872  1.00  0.00     0.008 C 
HETATM    6  C8  UNL     1      13.550  -5.905  25.008  1.00  0.00     0.001 C 
HETATM    7  C7  UNL     1      12.700  -4.790  25.307  1.00  0.00    -0.001 C 
HETATM    8  C26 UNL     1      12.906  -7.263  24.790  1.00  0.00    -0.020 C 
HETATM    9  C6  UNL     1      12.496  -4.171  26.608  1.00  0.00     0.006 C 
HETATM   10  C30 UNL     1      11.250  -4.952  24.816  1.00  0.00    -0.033 C 
HETATM   11  C5  UNL     1      11.302  -3.237  26.323  1.00  0.00     0.010 C 
HETATM   12  C4  UNL     1      10.868  -3.514  24.903  1.00  0.00     0.022 C 
HETATM   13  C29 UNL     1      11.356  -5.655  23.554  1.00  0.00     0.011 C 
HETATM   14  C31 UNL     1      10.309  -5.609  25.787  1.00  0.00     0.016 C 
HETATM   15  C28 UNL     1      11.805  -7.101  23.828  1.00  0.00     0.012 C 
HETATM   16  C27 UNL     1      12.609  -7.994  26.060  1.00  0.00     0.018 C 
BRANCH  12  17
HETATM   17  C2  UNL     1      11.347  -2.583  23.916  1.00  0.00    -0.088 C 
HETATM   18  C1  UNL     1      11.214  -2.786  22.623  1.00  0.00     0.014 C 
HETATM   19  C3  UNL     1      12.051  -1.324  24.322  1.00  0.00     0.043 C 
ENDBRANCH  12  17
ENDBRANCH   1   3
BRANCH   1  20
HETATM   20  C12 UNL     1      14.647  -9.296  22.235  1.00  0.00     0.170 C 
BRANCH  20  21
HETATM   21  C13 UNL     1      15.806  -9.058  21.365  1.00  0.00     0.038 C 
BRANCH  21  22
HETATM   22  C14 UNL     1      17.116  -9.704  21.686  1.00  0.00    -0.020 C 
HETATM   23  C15 UNL     1      17.813 -10.340  20.516  1.00  0.00     0.009 C 
HETATM   24  C16 UNL     1      18.043  -8.977  22.579  1.00  0.00     0.009 C 
ENDBRANCH  21  22
ENDBRANCH  20  21
BRANCH  20  25
HETATM   25  C17 UNL     1      13.540  -9.990  21.492  1.00  0.00     0.240 C 
HETATM   26  O1  UNL     1      13.836 -10.996  20.802  1.00  0.00    -0.271 OA
HETATM   27  N2  UNL     1      12.206  -9.537  21.548  1.00  0.00    -0.359 N 
ATOM     28  H2  UNL     1      11.990  -8.713  22.110  1.00  0.00     0.162 HD
BRANCH  27  29
HETATM   29  C18 UNL     1      11.131 -10.199  20.837  1.00  0.00     0.122 C 
BRANCH  29  30
HETATM   30  C19 UNL     1      10.015  -9.225  20.482  1.00  0.00     0.021 C 
BRANCH  30  31
HETATM   31  C20 UNL     1       9.450  -8.600  21.737  1.00  0.00     0.014 C 
BRANCH  31  32
HETATM   32  C21 UNL     1       8.657  -9.648  22.470  1.00  0.00     0.094 C 
BRANCH  32  33
HETATM   33  C22 UNL     1       9.033  -9.662  23.873  1.00  0.00    -0.107 C 
HETATM   34  C23 UNL     1       9.328  -9.687  25.047  1.00  0.00    -0.107 C 
BRANCH  34  35
HETATM   35  C24 UNL     1       9.665  -9.736  26.466  1.00  0.00     0.089 C 
HETATM   36  C25 UNL     1       9.023  -8.566  27.175  1.00  0.00     0.018 C 
ENDBRANCH  34  35
ENDBRANCH  32  33
ENDBRANCH  31  32
ENDBRANCH  30  31
ENDBRANCH  29  30
ENDBRANCH  27  29
ENDBRANCH  20  25
ENDBRANCH   1  20
TORSDOF 12
ENDMDL
MODEL 3
REMARK VINA RESULT: -8.767557295      1.056      1.803
REMARK  12 active torsions:
REMARK  status: ('A' for Active; 'I' for Inactive)
REMARK    1  A    between atoms: C2_2  and  C4_4 
REMARK    2  A    between atoms: C11_11  and  N1_12 
REMARK    3  A    between atoms: N1_12  and  C12_14 
REMARK    4  A    between atoms: C12_14  and  C13_15 
REMARK    5  A    between atoms: C12_14  and  C17_19 
REMARK    6  A    between atoms: C13_15  and  C14_16 
REMARK       I    between atoms: C17_19  and  N2_21 
REMARK    7  A    between atoms: N2_21  and  C18_23 
REMARK    8  A    between atoms: C18_23  and  C19_24 
REMARK    9  A    between atoms: C19_24  and  C20_25 
REMARK   10  A    between atoms: C20_25  and  C21_26 
REMARK   11  A    between atoms: C21_26  and  C22_27 
REMARK   12  A    between atoms: C23_28  and  C24_29 
ROOT
HETATM    1  N1  UNL     1      10.337  -7.846  25.496  1.00  0.00    -0.404 N 
ATOM      2  H1  UNL     1       9.648  -7.175  25.154  1.00  0.00     0.154 HD
ENDROOT
BRANCH   1   3
HETATM    3  C11 UNL     1      11.557  -7.403  25.948  1.00  0.00     0.085 C 
HETATM    4  C10 UNL     1      12.839  -7.821  25.289  1.00  0.00     0.026 C 
HETATM    5  C9  UNL     1      13.606  -6.501  25.002  1.00  0.00     0.008 C 
HETATM    6  C8  UNL     1      12.443  -5.634  24.751  1.00  0.00     0.001 C 
HETATM    7  C7  UNL     1      12.575  -4.292  24.266  1.00  0.00    -0.001 C 
HETATM    8  C26 UNL     1      11.661  -5.862  26.034  1.00  0.00    -0.020 C 
HETATM    9  C6  UNL     1      13.751  -3.440  24.361  1.00  0.00     0.006 C 
HETATM   10  C30 UNL     1      11.467  -3.335  24.745  1.00  0.00    -0.033 C 
HETATM   11  C5  UNL     1      13.183  -2.076  23.917  1.00  0.00     0.010 C 
HETATM   12  C4  UNL     1      11.696  -2.269  23.729  1.00  0.00     0.022 C 
HETATM   13  C29 UNL     1      10.262  -4.138  24.774  1.00  0.00     0.011 C 
HETATM   14  C31 UNL     1      11.742  -2.627  26.043  1.00  0.00     0.016 C 
HETATM   15  C28 UNL     1      10.373  -5.160  25.919  1.00  0.00     0.012 C 
HETATM   16  C27 UNL     1      12.465  -5.629  27.272  1.00  0.00     0.018 C 
BRANCH  12  17
HETATM   17  C2  UNL     1      11.264  -2.467  22.371  1.00  0.00    -0.088 C 
HETATM   18  C1  UNL     1      10.414  -1.661  21.771  1.00  0.00     0.014 C 
HETATM   19  C3  UNL     1      11.757  -3.633  21.568  1.00  0.00     0.043 C 
ENDBRANCH  12  17
ENDBRANCH   1   3
BRANCH   1  20
HETATM   20  C12 UNL     1      10.028  -9.237  25.503  1.00  0.00     0.170 C 
BRANCH  20  21
HETATM   21  C13 UNL     1       9.146  -9.664  24.409  1.00  0.00     0.038 C 
BRANCH  21  22
HETATM   22  C14 UNL     1       9.544  -9.400  22.992  1.00  0.00    -0.020 C 
HETATM   23  C15 UNL     1      10.917  -9.883  22.619  1.00  0.00     0.009 C 
HETATM   24  C16 UNL     1       8.541  -9.651  21.935  1.00  0.00     0.009 C 
ENDBRANCH  21  22
ENDBRANCH  20  21
BRANCH  20  25
HETATM   25  C17 UNL     1       9.458  -9.611  26.842  1.00  0.00     0.240 C 
HETATM   26  O1  UNL     1       9.378 -10.831  27.127  1.00  0.00    -0.271 OA
HETATM   27  N2  UNL     1       9.014  -8.639  27.761  1.00  0.00    -0.359 N 
ATOM     28  H2  UNL     1       9.082  -7.653  27.506  1.00  0.00     0.162 HD
BRANCH  27  29
HETATM   29  C18 UNL     1       8.464  -8.988  29.056  1.00  0.00     0.122 C 
BRANCH  29  30
HETATM   30  C19 UNL     1       9.091  -8.160  30.170  1.00  0.00     0.021 C 
BRANCH  30  31
HETATM   31  C20 UNL     1      10.056  -7.151  29.590  1.00  0.00     0.014 C 
BRANCH  31  32
HETATM   32  C21 UNL     1       9.709  -5.795  30.145  1.00  0.00     0.094 C 
BRANCH  32  33
HETATM   33  C22 UNL     1       8.891  -5.942  31.337  1.00  0.00    -0.107 C 
HETATM   34  C23 UNL     1       8.227  -6.059  32.343  1.00  0.00    -0.107 C 
BRANCH  34  35
HETATM   35  C24 UNL     1       7.446  -6.188  33.569  1.00  0.00     0.089 C 
HETATM   36  C25 UNL     1       7.205  -4.817  34.156  1.00  0.00     0.018 C 
ENDBRANCH  34  35
ENDBRANCH  32  33
ENDBRANCH  31  32
ENDBRANCH  30  31
ENDBRANCH  29  30
ENDBRANCH  27  29
ENDBRANCH  20  25
ENDBRANCH   1  20
TORSDOF 12
ENDMDL
MODEL 4
REMARK VINA RESULT: -8.759369496      3.070      5.489
REMARK  12 active torsions:
REMARK  status: ('A' for Active; 'I' for Inactive)
REMARK    1  A    between atoms: C2_2  and  C4_4 
REMARK    2  A    between atoms: C11_11  and  N1_12 
REMARK    3  A    between atoms: N1_12  and  C12_14 
REMARK    4  A    between atoms: C12_14  and  C13_15 
REMARK    5  A    between atoms: C12_14  and  C17_19 
REMARK    6  A    between atoms: C13_15  and  C14_16 
REMARK       I    between atoms: C17_19  and  N2_21 
REMARK    7  A    between atoms: N2_21  and  C18_23 
REMARK    8  A    between atoms: C18_23  and  C19_24 
REMARK    9  A    between atoms: C19_24  and  C20_25 
REMARK   10  A    between atoms: C20_25  and  C21_26 
REMARK   11  A    between atoms: C21_26  and  C22_27 
REMARK   12  A    between atoms: C23_28  and  C24_29 
ROOT
HETATM    1  N1  UNL     1      13.548  -7.727  22.853  1.00  0.00    -0.404 N 
ATOM      2  H1  UNL     1      12.663  -7.416  22.453  1.00  0.00     0.154 HD
ENDROOT
BRANCH   1   3
HETATM    3  C11 UNL     1      14.156  -6.979  23.832  1.00  0.00     0.085 C 
HETATM    4  C10 UNL     1      15.438  -6.240  23.576  1.00  0.00     0.026 C 
HETATM    5  C9  UNL     1      15.176  -4.782  24.046  1.00  0.00     0.008 C 
HETATM    6  C8  UNL     1      13.745  -4.707  23.703  1.00  0.00     0.001 C 
HETATM    7  C7  UNL     1      13.000  -3.485  23.780  1.00  0.00    -0.001 C 
HETATM    8  C26 UNL     1      13.227  -5.916  24.463  1.00  0.00    -0.020 C 
HETATM    9  C6  UNL     1      13.330  -2.309  24.570  1.00  0.00     0.006 C 
HETATM   10  C30 UNL     1      11.511  -3.674  24.123  1.00  0.00    -0.033 C 
HETATM   11  C5  UNL     1      12.039  -1.475  24.440  1.00  0.00     0.010 C 
HETATM   12  C4  UNL     1      11.050  -2.328  23.680  1.00  0.00     0.022 C 
HETATM   13  C29 UNL     1      11.120  -4.894  23.446  1.00  0.00     0.011 C 
HETATM   14  C31 UNL     1      11.181  -3.676  25.590  1.00  0.00     0.016 C 
HETATM   15  C28 UNL     1      11.802  -6.086  24.139  1.00  0.00     0.012 C 
HETATM   16  C27 UNL     1      13.611  -5.922  25.908  1.00  0.00     0.018 C 
BRANCH  12  17
HETATM   17  C2  UNL     1      10.933  -2.037  22.276  1.00  0.00    -0.088 C 
HETATM   18  C1  UNL     1      10.413  -0.915  21.824  1.00  0.00     0.014 C 
HETATM   19  C3  UNL     1      11.388  -3.022  21.243  1.00  0.00     0.043 C 
ENDBRANCH  12  17
ENDBRANCH   1   3
BRANCH   1  20
HETATM   20  C12 UNL     1      14.148  -8.936  22.393  1.00  0.00     0.170 C 
BRANCH  20  21
HETATM   21  C13 UNL     1      15.334  -8.737  21.550  1.00  0.00     0.038 C 
BRANCH  21  22
HETATM   22  C14 UNL     1      16.535  -9.606  21.749  1.00  0.00    -0.020 C 
HETATM   23  C15 UNL     1      17.020 -10.310  20.513  1.00  0.00     0.009 C 
HETATM   24  C16 UNL     1      17.639  -9.077  22.578  1.00  0.00     0.009 C 
ENDBRANCH  21  22
ENDBRANCH  20  21
BRANCH  20  25
HETATM   25  C17 UNL     1      13.110  -9.765  21.690  1.00  0.00     0.240 C 
HETATM   26  O1  UNL     1      13.359 -10.982  21.503  1.00  0.00    -0.271 OA
HETATM   27  N2  UNL     1      11.893  -9.214  21.240  1.00  0.00    -0.359 N 
ATOM     28  H2  UNL     1      11.716  -8.221  21.397  1.00  0.00     0.162 HD
BRANCH  27  29
HETATM   29  C18 UNL     1      10.886 -10.005  20.562  1.00  0.00     0.122 C 
BRANCH  29  30
HETATM   30  C19 UNL     1       9.486  -9.461  20.816  1.00  0.00     0.021 C 
BRANCH  30  31
HETATM   31  C20 UNL     1       9.447  -8.711  22.128  1.00  0.00     0.014 C 
BRANCH  31  32
HETATM   32  C21 UNL     1       9.182  -9.702  23.229  1.00  0.00     0.094 C 
BRANCH  32  33
HETATM   33  C22 UNL     1       9.330  -9.057  24.522  1.00  0.00    -0.107 C 
HETATM   34  C23 UNL     1       9.433  -8.511  25.598  1.00  0.00    -0.107 C 
BRANCH  34  35
HETATM   35  C24 UNL     1       9.530  -7.847  26.894  1.00  0.00     0.089 C 
HETATM   36  C25 UNL     1       8.940  -8.740  27.960  1.00  0.00     0.018 C 
ENDBRANCH  34  35
ENDBRANCH  32  33
ENDBRANCH  31  32
ENDBRANCH  30  31
ENDBRANCH  29  30
ENDBRANCH  27  29
ENDBRANCH  20  25
ENDBRANCH   1  20
TORSDOF 12
ENDMDL
MODEL 5
REMARK VINA RESULT: -8.746463187      1.899      4.553
REMARK  12 active torsions:
REMARK  status: ('A' for Active; 'I' for Inactive)
REMARK    1  A    between atoms: C2_2  and  C4_4 
REMARK    2  A    between atoms: C11_11  and  N1_12 
REMARK    3  A    between atoms: N1_12  and  C12_14 
REMARK    4  A    between atoms: C12_14  and  C13_15 
REMARK    5  A    between atoms: C12_14  and  C17_19 
REMARK    6  A    between atoms: C13_15  and  C14_16 
REMARK       I    between atoms: C17_19  and  N2_21 
REMARK    7  A    between atoms: N2_21  and  C18_23 
REMARK    8  A    between atoms: C18_23  and  C19_24 
REMARK    9  A    between atoms: C19_24  and  C20_25 
REMARK   10  A    between atoms: C20_25  and  C21_26 
REMARK   11  A    between atoms: C21_26  and  C22_27 
REMARK   12  A    between atoms: C23_28  and  C24_29 
ROOT
HETATM    1  N1  UNL     1       9.945  -7.215  26.667  1.00  0.00    -0.404 N 
ATOM      2  H1  UNL     1       9.244  -6.925  27.351  1.00  0.00     0.154 HD
ENDROOT
BRANCH   1   3
HETATM    3  C11 UNL     1      10.891  -6.315  26.237  1.00  0.00     0.085 C 
HETATM    4  C10 UNL     1      10.530  -5.154  25.356  1.00  0.00     0.026 C 
HETATM    5  C9  UNL     1      11.128  -3.903  26.054  1.00  0.00     0.008 C 
HETATM    6  C8  UNL     1      10.971  -4.348  27.449  1.00  0.00     0.001 C 
HETATM    7  C7  UNL     1      11.225  -3.484  28.565  1.00  0.00    -0.001 C 
HETATM    8  C26 UNL     1      11.705  -5.677  27.387  1.00  0.00    -0.020 C 
HETATM    9  C6  UNL     1      12.048  -2.284  28.572  1.00  0.00     0.006 C 
HETATM   10  C30 UNL     1      11.736  -4.210  29.822  1.00  0.00    -0.033 C 
HETATM   11  C5  UNL     1      12.137  -1.977  30.080  1.00  0.00     0.010 C 
HETATM   12  C4  UNL     1      11.448  -3.117  30.793  1.00  0.00     0.022 C 
HETATM   13  C29 UNL     1      11.030  -5.475  29.841  1.00  0.00     0.011 C 
HETATM   14  C31 UNL     1      13.229  -4.361  29.920  1.00  0.00     0.016 C 
HETATM   15  C28 UNL     1      11.549  -6.350  28.686  1.00  0.00     0.012 C 
HETATM   16  C27 UNL     1      13.086  -5.571  26.827  1.00  0.00     0.018 C 
BRANCH  12  17
HETATM   17  C2  UNL     1      10.093  -2.861  31.204  1.00  0.00    -0.088 C 
HETATM   18  C1  UNL     1       9.586  -1.648  31.265  1.00  0.00     0.014 C 
HETATM   19  C3  UNL     1       9.184  -3.983  31.607  1.00  0.00     0.043 C 
ENDBRANCH  12  17
ENDBRANCH   1   3
BRANCH   1  20
HETATM   20  C12 UNL     1       9.937  -8.548  26.164  1.00  0.00     0.170 C 
BRANCH  20  21
HETATM   21  C13 UNL     1       9.275  -8.697  24.862  1.00  0.00     0.038 C 
BRANCH  21  22
HETATM   22  C14 UNL     1      10.094  -8.998  23.648  1.00  0.00    -0.020 C 
HETATM   23  C15 UNL     1       9.734 -10.274  22.940  1.00  0.00     0.009 C 
HETATM   24  C16 UNL     1      10.379  -7.887  22.715  1.00  0.00     0.009 C 
ENDBRANCH  21  22
ENDBRANCH  20  21
BRANCH  20  25
HETATM   25  C17 UNL     1       9.330  -9.460  27.193  1.00  0.00     0.240 C 
HETATM   26  O1  UNL     1       9.295 -10.690  26.940  1.00  0.00    -0.271 OA
HETATM   27  N2  UNL     1       8.804  -8.972  28.407  1.00  0.00    -0.359 N 
ATOM     28  H2  UNL     1       8.838  -7.968  28.588  1.00  0.00     0.162 HD
BRANCH  27  29
HETATM   29  C18 UNL     1       8.218  -9.842  29.405  1.00  0.00     0.122 C 
BRANCH  29  30
HETATM   30  C19 UNL     1       7.843  -9.073  30.665  1.00  0.00     0.021 C 
BRANCH  30  31
HETATM   31  C20 UNL     1       8.781  -7.904  30.862  1.00  0.00     0.014 C 
BRANCH  31  32
HETATM   32  C21 UNL     1       9.010  -7.728  32.339  1.00  0.00     0.094 C 
BRANCH  32  33
HETATM   33  C22 UNL     1       7.842  -7.121  32.952  1.00  0.00    -0.107 C 
HETATM   34  C23 UNL     1       6.860  -6.635  33.470  1.00  0.00    -0.107 C 
BRANCH  34  35
HETATM   35  C24 UNL     1       5.673  -6.074  34.106  1.00  0.00     0.089 C 
HETATM   36  C25 UNL     1       4.483  -6.958  33.816  1.00  0.00     0.018 C 
ENDBRANCH  34  35
ENDBRANCH  32  33
ENDBRANCH  31  32
ENDBRANCH  30  31
ENDBRANCH  29  30
ENDBRANCH  27  29
ENDBRANCH  20  25
ENDBRANCH   1  20
TORSDOF 12
ENDMDL
