MODEL 1
REMARK VINA RESULT: -9.027975978      0.000      0.000
REMARK  10 active torsions:
REMARK  status: ('A' for Active; 'I' for Inactive)
REMARK    1  A    between atoms: C11_11  and  C12_12 
REMARK    2  A    between atoms: C12_12  and  C13_13 
REMARK    3  A    between atoms: C12_12  and  C17_20 
REMARK    4  A    between atoms: C13_13  and  C14_14 
REMARK    5  A    between atoms: C14_14  and  C15_15 
REMARK    6  A    between atoms: C15_15  and  N1_16 
REMARK       I    between atoms: C17_20  and  N2_22 
REMARK    7  A    between atoms: N2_22  and  C18_24 
REMARK    8  A    between atoms: C18_24  and  C19_25 
REMARK    9  A    between atoms: C19_25  and  C20_26 
REMARK   10  A    between atoms: C20_26  and  C21_27 
ROOT
HETATM    1  C1  UNL     1      12.465   0.165  24.708  1.00  0.00     0.015 C 
HETATM    2  C2  UNL     1      12.373  -0.863  25.544  1.00  0.00    -0.081 C 
HETATM    3  C3  UNL     1      12.952  -0.946  26.884  1.00  0.00     0.034 C 
HETATM    4  C4  UNL     1      12.291  -2.113  27.517  1.00  0.00     0.010 C 
HETATM    5  C5  UNL     1      11.444  -2.792  26.461  1.00  0.00     0.002 C 
HETATM    6  C6  UNL     1      11.630  -4.303  26.471  1.00  0.00    -0.005 C 
HETATM    7  C7  UNL     1      10.300  -4.987  26.277  1.00  0.00     0.006 C 
HETATM    8  C8  UNL     1      10.121  -5.587  24.926  1.00  0.00     0.010 C 
HETATM    9  C9  UNL     1      11.217  -6.525  24.529  1.00  0.00    -0.036 C 
HETATM   10  C10 UNL     1      11.105  -6.693  23.038  1.00  0.00     0.016 C 
HETATM   11  C11 UNL     1      11.074  -7.795  25.305  1.00  0.00     0.007 C 
HETATM   12  C23 UNL     1      12.427  -8.428  25.076  1.00  0.00     0.007 C 
HETATM   13  C24 UNL     1      13.276  -7.253  25.592  1.00  0.00     0.006 C 
HETATM   14  C25 UNL     1      12.593  -6.077  24.901  1.00  0.00    -0.002 C 
HETATM   15  C26 UNL     1      12.750  -4.808  25.671  1.00  0.00    -0.005 C 
HETATM   16  C27 UNL     1      13.431  -3.722  24.815  1.00  0.00     0.006 C 
HETATM   17  C28 UNL     1      12.443  -2.821  24.149  1.00  0.00     0.014 C 
HETATM   18  C29 UNL     1      11.631  -2.108  25.189  1.00  0.00    -0.017 C 
HETATM   19  C30 UNL     1      10.333  -1.631  24.534  1.00  0.00     0.020 C 
ENDROOT
BRANCH  11  20
HETATM   20  C12 UNL     1       9.899  -8.623  25.225  1.00  0.00     0.083 C 
BRANCH  20  21
HETATM   21  C13 UNL     1       9.686  -9.660  24.229  1.00  0.00     0.016 C 
BRANCH  21  22
HETATM   22  C14 UNL     1       8.886  -9.404  23.009  1.00  0.00     0.028 C 
BRANCH  22  23
HETATM   23  C15 UNL     1       9.626 -10.072  21.816  1.00  0.00     0.231 C 
BRANCH  23  24
HETATM   24  N1  UNL     1      10.883 -10.626  22.297  1.00  0.00    -0.079 N 
HETATM   25  C16 UNL     1      11.991 -10.156  21.516  1.00  0.00     0.266 C 
ATOM     26  H12 UNL     1      11.020 -10.438  23.290  1.00  0.00     0.276 HD
ATOM     27  H11 UNL     1      10.855 -11.645  22.331  1.00  0.00     0.276 HD
ENDBRANCH  23  24
ENDBRANCH  22  23
ENDBRANCH  21  22
ENDBRANCH  20  21
BRANCH  20  28
HETATM   28  C17 UNL     1       9.610  -9.177  26.611  1.00  0.00     0.222 C 
HETATM   29  O1  UNL     1       9.692 -10.410  26.744  1.00  0.00    -0.273 OA
HETATM   30  N2  UNL     1       9.269  -8.308  27.671  1.00  0.00    -0.361 N 
ATOM     31  H2  UNL     1       9.253  -7.317  27.432  1.00  0.00     0.162 HD
BRANCH  30  32
HETATM   32  C18 UNL     1       8.949  -8.610  29.010  1.00  0.00     0.122 C 
BRANCH  32  33
HETATM   33  C19 UNL     1       9.346  -7.735  30.118  1.00  0.00     0.020 C 
BRANCH  33  34
HETATM   34  C20 UNL     1       9.890  -6.391  29.880  1.00  0.00     0.001 C 
BRANCH  34  35
HETATM   35  C21 UNL     1       9.309  -5.415  30.916  1.00  0.00    -0.004 C 
HETATM   36  C22 UNL     1       8.545  -6.164  31.981  1.00  0.00     0.005 C 
ENDBRANCH  34  35
ENDBRANCH  33  34
ENDBRANCH  32  33
ENDBRANCH  30  32
ENDBRANCH  20  28
ENDBRANCH  11  20
TORSDOF 10
ENDMDL
MODEL 2
REMARK VINA RESULT: -8.936401020      0.749      1.108
REMARK  10 active torsions:
REMARK  status: ('A' for Active; 'I' for Inactive)
REMARK    1  A    between atoms: C11_11  and  C12_12 
REMARK    2  A    between atoms: C12_12  and  C13_13 
REMARK    3  A    between atoms: C12_12  and  C17_20 
REMARK    4  A    between atoms: C13_13  and  C14_14 
REMARK    5  A    between atoms: C14_14  and  C15_15 
REMARK    6  A    between atoms: C15_15  and  N1_16 
REMARK       I    between atoms: C17_20  and  N2_22 
REMARK    7  A    between atoms: N2_22  and  C18_24 
REMARK    8  A    between atoms: C18_24  and  C19_25 
REMARK    9  A    between atoms: C19_25  and  C20_26 
REMARK   10  A    between atoms: C20_26  and  C21_27 
ROOT
HETATM    1  C1  UNL     1      12.314   0.415  24.367  1.00  0.00     0.015 C 
HETATM    2  C2  UNL     1      12.288  -0.611  25.211  1.00  0.00    -0.081 C 
HETATM    3  C3  UNL     1      12.912  -0.663  26.532  1.00  0.00     0.034 C 
HETATM    4  C4  UNL     1      12.316  -1.851  27.191  1.00  0.00     0.010 C 
HETATM    5  C5  UNL     1      11.462  -2.568  26.166  1.00  0.00     0.002 C 
HETATM    6  C6  UNL     1      11.705  -4.071  26.179  1.00  0.00    -0.005 C 
HETATM    7  C7  UNL     1      10.398  -4.806  26.030  1.00  0.00     0.006 C 
HETATM    8  C8  UNL     1      10.199  -5.420  24.689  1.00  0.00     0.010 C 
HETATM    9  C9  UNL     1      11.316  -6.319  24.262  1.00  0.00    -0.036 C 
HETATM   10  C10 UNL     1      11.164  -6.500  22.776  1.00  0.00     0.016 C 
HETATM   11  C11 UNL     1      11.246  -7.588  25.049  1.00  0.00     0.007 C 
HETATM   12  C23 UNL     1      12.614  -8.172  24.779  1.00  0.00     0.007 C 
HETATM   13  C24 UNL     1      13.434  -6.962  25.263  1.00  0.00     0.006 C 
HETATM   14  C25 UNL     1      12.686  -5.817  24.587  1.00  0.00    -0.002 C 
HETATM   15  C26 UNL     1      12.818  -4.538  25.345  1.00  0.00    -0.005 C 
HETATM   16  C27 UNL     1      13.430  -3.432  24.463  1.00  0.00     0.006 C 
HETATM   17  C28 UNL     1      12.388  -2.574  23.824  1.00  0.00     0.014 C 
HETATM   18  C29 UNL     1      11.583  -1.886  24.886  1.00  0.00    -0.017 C 
HETATM   19  C30 UNL     1      10.248  -1.462  24.270  1.00  0.00     0.020 C 
ENDROOT
BRANCH  11  20
HETATM   20  C12 UNL     1      10.102  -8.460  25.010  1.00  0.00     0.083 C 
BRANCH  20  21
HETATM   21  C13 UNL     1       9.935  -9.565  24.079  1.00  0.00     0.016 C 
BRANCH  21  22
HETATM   22  C14 UNL     1       8.909  -9.524  23.012  1.00  0.00     0.028 C 
BRANCH  22  23
HETATM   23  C15 UNL     1       9.613  -9.882  21.673  1.00  0.00     0.231 C 
BRANCH  23  24
HETATM   24  N1  UNL     1       8.791 -10.846  20.955  1.00  0.00    -0.079 N 
HETATM   25  C16 UNL     1       7.431 -10.811  21.411  1.00  0.00     0.266 C 
ATOM     26  H12 UNL     1       8.851 -10.712  19.946  1.00  0.00     0.276 HD
ATOM     27  H11 UNL     1       9.181 -11.786  21.013  1.00  0.00     0.276 HD
ENDBRANCH  23  24
ENDBRANCH  22  23
ENDBRANCH  21  22
ENDBRANCH  20  21
BRANCH  20  28
HETATM   28  C17 UNL     1       9.817  -8.938  26.425  1.00  0.00     0.222 C 
HETATM   29  O1  UNL     1       9.950 -10.155  26.638  1.00  0.00    -0.273 OA
HETATM   30  N2  UNL     1       9.424  -8.019  27.423  1.00  0.00    -0.361 N 
ATOM     31  H2  UNL     1       9.368  -7.046  27.122  1.00  0.00     0.162 HD
BRANCH  30  32
HETATM   32  C18 UNL     1       9.098  -8.249  28.776  1.00  0.00     0.122 C 
BRANCH  32  33
HETATM   33  C19 UNL     1       9.597  -7.385  29.850  1.00  0.00     0.020 C 
BRANCH  33  34
HETATM   34  C20 UNL     1       8.855  -7.212  31.106  1.00  0.00     0.001 C 
BRANCH  34  35
HETATM   35  C21 UNL     1       8.895  -5.732  31.524  1.00  0.00    -0.004 C 
HETATM   36  C22 UNL     1       9.714  -4.927  30.545  1.00  0.00     0.005 C 
ENDBRANCH  34  35
ENDBRANCH  33  34
ENDBRANCH  32  33
ENDBRANCH  30  32
ENDBRANCH  20  28
ENDBRANCH  11  20
TORSDOF 10
ENDMDL
MODEL 3
REMARK VINA RESULT: -8.681227894      1.319      1.842
REMARK  10 active torsions:
REMARK  status: ('A' for Active; 'I' for Inactive)
REMARK    1  A    between atoms: C11_11  and  C12_12 
REMARK    2  A    between atoms: C12_12  and  C13_13 
REMARK    3  A    between atoms: C12_12  and  C17_20 
REMARK    4  A    between atoms: C13_13  and  C14_14 
REMARK    5  A    between atoms: C14_14  and  C15_15 
REMARK    6  A    between atoms: C15_15  and  N1_16 
REMARK       I    between atoms: C17_20  and  N2_22 
REMARK    7  A    between atoms: N2_22  and  C18_24 
REMARK    8  A    between atoms: C18_24  and  C19_25 
REMARK    9  A    between atoms: C19_25  and  C20_26 
REMARK   10  A    between atoms: C20_26  and  C21_27 
ROOT
HETATM    1  C1  UNL     1      12.829   0.262  24.660  1.00  0.00     0.015 C 
HETATM    2  C2  UNL     1      12.524  -0.856  25.308  1.00  0.00    -0.081 C 
HETATM    3  C3  UNL     1      12.719  -1.114  26.734  1.00  0.00     0.034 C 
HETATM    4  C4  UNL     1      11.923  -2.333  27.017  1.00  0.00     0.010 C 
HETATM    5  C5  UNL     1      11.401  -2.860  25.697  1.00  0.00     0.002 C 
HETATM    6  C6  UNL     1      11.591  -4.365  25.572  1.00  0.00    -0.005 C 
HETATM    7  C7  UNL     1      10.371  -4.988  24.944  1.00  0.00     0.006 C 
HETATM    8  C8  UNL     1      10.570  -5.417  23.532  1.00  0.00     0.010 C 
HETATM    9  C9  UNL     1      11.741  -6.326  23.334  1.00  0.00    -0.036 C 
HETATM   10  C10 UNL     1      12.039  -6.310  21.859  1.00  0.00     0.016 C 
HETATM   11  C11 UNL     1      11.406  -7.676  23.882  1.00  0.00     0.007 C 
HETATM   12  C23 UNL     1      12.777  -8.310  23.950  1.00  0.00     0.007 C 
HETATM   13  C24 UNL     1      13.443  -7.226  24.816  1.00  0.00     0.006 C 
HETATM   14  C25 UNL     1      12.961  -5.959  24.115  1.00  0.00    -0.002 C 
HETATM   15  C26 UNL     1      12.891  -4.796  25.048  1.00  0.00    -0.005 C 
HETATM   16  C27 UNL     1      13.768  -3.631  24.547  1.00  0.00     0.006 C 
HETATM   17  C28 UNL     1      12.988  -2.634  23.755  1.00  0.00     0.014 C 
HETATM   18  C29 UNL     1      11.918  -2.032  24.617  1.00  0.00    -0.017 C 
HETATM   19  C30 UNL     1      10.841  -1.449  23.699  1.00  0.00     0.020 C 
ENDROOT
BRANCH  11  20
HETATM   20  C12 UNL     1      10.305  -8.460  23.387  1.00  0.00     0.083 C 
BRANCH  20  21
HETATM   21  C13 UNL     1      10.325  -9.225  22.150  1.00  0.00     0.016 C 
BRANCH  21  22
HETATM   22  C14 UNL     1       9.417  -8.897  21.027  1.00  0.00     0.028 C 
BRANCH  22  23
HETATM   23  C15 UNL     1       8.879 -10.238  20.454  1.00  0.00     0.231 C 
BRANCH  23  24
HETATM   24  N1  UNL     1       8.041 -10.874  21.461  1.00  0.00    -0.079 N 
HETATM   25  C16 UNL     1       6.650 -10.750  21.133  1.00  0.00     0.266 C 
ATOM     26  H12 UNL     1       8.306 -11.848  21.608  1.00  0.00     0.276 HD
ATOM     27  H11 UNL     1       8.239 -10.514  22.394  1.00  0.00     0.276 HD
ENDBRANCH  23  24
ENDBRANCH  22  23
ENDBRANCH  21  22
ENDBRANCH  20  21
BRANCH  20  28
HETATM   28  C17 UNL     1       9.794  -9.335  24.520  1.00  0.00     0.222 C 
HETATM   29  O1  UNL     1       9.363 -10.457  24.204  1.00  0.00    -0.273 OA
HETATM   30  N2  UNL     1       9.822  -8.866  25.852  1.00  0.00    -0.361 N 
ATOM     31  H2  UNL     1      10.216  -7.934  25.977  1.00  0.00     0.162 HD
BRANCH  30  32
HETATM   32  C18 UNL     1       9.386  -9.499  27.035  1.00  0.00     0.122 C 
BRANCH  32  33
HETATM   33  C19 UNL     1       8.866  -8.736  28.174  1.00  0.00     0.020 C 
BRANCH  33  34
HETATM   34  C20 UNL     1       9.604  -7.600  28.742  1.00  0.00     0.001 C 
BRANCH  34  35
HETATM   35  C21 UNL     1       9.509  -7.645  30.276  1.00  0.00    -0.004 C 
HETATM   36  C22 UNL     1       8.496  -8.673  30.715  1.00  0.00     0.005 C 
ENDBRANCH  34  35
ENDBRANCH  33  34
ENDBRANCH  32  33
ENDBRANCH  30  32
ENDBRANCH  20  28
ENDBRANCH  11  20
TORSDOF 10
ENDMDL
MODEL 4
REMARK VINA RESULT: -8.165965518      2.816      6.623
REMARK  10 active torsions:
REMARK  status: ('A' for Active; 'I' for Inactive)
REMARK    1  A    between atoms: C11_11  and  C12_12 
REMARK    2  A    between atoms: C12_12  and  C13_13 
REMARK    3  A    between atoms: C12_12  and  C17_20 
REMARK    4  A    between atoms: C13_13  and  C14_14 
REMARK    5  A    between atoms: C14_14  and  C15_15 
REMARK    6  A    between atoms: C15_15  and  N1_16 
REMARK       I    between atoms: C17_20  and  N2_22 
REMARK    7  A    between atoms: N2_22  and  C18_24 
REMARK    8  A    between atoms: C18_24  and  C19_25 
REMARK    9  A    between atoms: C19_25  and  C20_26 
REMARK   10  A    between atoms: C20_26  and  C21_27 
ROOT
HETATM    1  C1  UNL     1       9.663  -4.925  30.504  1.00  0.00     0.015 C 
HETATM    2  C2  UNL     1      10.665  -4.918  29.632  1.00  0.00    -0.081 C 
HETATM    3  C3  UNL     1      11.724  -3.915  29.536  1.00  0.00     0.034 C 
HETATM    4  C4  UNL     1      12.755  -4.527  28.662  1.00  0.00     0.010 C 
HETATM    5  C5  UNL     1      12.194  -5.831  28.131  1.00  0.00     0.002 C 
HETATM    6  C6  UNL     1      12.436  -5.983  26.636  1.00  0.00    -0.005 C 
HETATM    7  C7  UNL     1      12.832  -7.403  26.320  1.00  0.00     0.006 C 
HETATM    8  C8  UNL     1      11.762  -8.195  25.654  1.00  0.00     0.010 C 
HETATM    9  C9  UNL     1      11.212  -7.554  24.419  1.00  0.00    -0.036 C 
HETATM   10  C10 UNL     1       9.907  -8.245  24.133  1.00  0.00     0.016 C 
HETATM   11  C11 UNL     1      12.223  -7.667  23.322  1.00  0.00     0.007 C 
HETATM   12  C23 UNL     1      11.683  -6.666  22.327  1.00  0.00     0.007 C 
HETATM   13  C24 UNL     1      11.649  -5.455  23.276  1.00  0.00     0.006 C 
HETATM   14  C25 UNL     1      11.010  -6.076  24.515  1.00  0.00    -0.002 C 
HETATM   15  C26 UNL     1      11.422  -5.377  25.767  1.00  0.00    -0.005 C 
HETATM   16  C27 UNL     1      10.194  -4.847  26.534  1.00  0.00     0.006 C 
HETATM   17  C28 UNL     1       9.734  -5.793  27.593  1.00  0.00     0.014 C 
HETATM   18  C29 UNL     1      10.826  -5.987  28.603  1.00  0.00    -0.017 C 
HETATM   19  C30 UNL     1      10.562  -7.300  29.343  1.00  0.00     0.020 C 
ENDROOT
BRANCH  11  20
HETATM   20  C12 UNL     1      12.701  -8.936  22.839  1.00  0.00     0.083 C 
BRANCH  20  21
HETATM   21  C13 UNL     1      12.131  -9.660  21.714  1.00  0.00     0.016 C 
BRANCH  21  22
HETATM   22  C14 UNL     1      10.768 -10.235  21.781  1.00  0.00     0.028 C 
BRANCH  22  23
HETATM   23  C15 UNL     1      10.041  -9.868  20.456  1.00  0.00     0.231 C 
BRANCH  23  24
HETATM   24  N1  UNL     1       8.705  -9.385  20.775  1.00  0.00    -0.079 N 
HETATM   25  C16 UNL     1       7.987 -10.332  21.577  1.00  0.00     0.266 C 
ATOM     26  H12 UNL     1       8.734  -8.466  21.216  1.00  0.00     0.276 HD
ATOM     27  H11 UNL     1       8.185  -9.138  19.932  1.00  0.00     0.276 HD
ENDBRANCH  23  24
ENDBRANCH  22  23
ENDBRANCH  21  22
ENDBRANCH  20  21
BRANCH  20  28
HETATM   28  C17 UNL     1      14.210  -8.847  22.678  1.00  0.00     0.222 C 
HETATM   29  O1  UNL     1      14.867  -8.622  23.709  1.00  0.00    -0.273 OA
HETATM   30  N2  UNL     1      14.804  -9.017  21.408  1.00  0.00    -0.361 N 
ATOM     31  H2  UNL     1      14.154  -9.213  20.646  1.00  0.00     0.162 HD
BRANCH  30  32
HETATM   32  C18 UNL     1      16.164  -8.957  21.038  1.00  0.00     0.122 C 
BRANCH  32  33
HETATM   33  C19 UNL     1      16.915 -10.156  20.653  1.00  0.00     0.020 C 
BRANCH  33  34
HETATM   34  C20 UNL     1      16.921 -10.650  19.270  1.00  0.00     0.001 C 
BRANCH  34  35
HETATM   35  C21 UNL     1      16.232 -12.023  19.215  1.00  0.00    -0.004 C 
HETATM   36  C22 UNL     1      14.733 -11.862  19.158  1.00  0.00     0.005 C 
ENDBRANCH  34  35
ENDBRANCH  33  34
ENDBRANCH  32  33
ENDBRANCH  30  32
ENDBRANCH  20  28
ENDBRANCH  11  20
TORSDOF 10
ENDMDL
MODEL 5
REMARK VINA RESULT: -8.041680195      3.996      7.944
REMARK  10 active torsions:
REMARK  status: ('A' for Active; 'I' for Inactive)
REMARK    1  A    between atoms: C11_11  and  C12_12 
REMARK    2  A    between atoms: C12_12  and  C13_13 
REMARK    3  A    between atoms: C12_12  and  C17_20 
REMARK    4  A    between atoms: C13_13  and  C14_14 
REMARK    5  A    between atoms: C14_14  and  C15_15 
REMARK    6  A    between atoms: C15_15  and  N1_16 
REMARK       I    between atoms: C17_20  and  N2_22 
REMARK    7  A    between atoms: N2_22  and  C18_24 
REMARK    8  A    between atoms: C18_24  and  C19_25 
REMARK    9  A    between atoms: C19_25  and  C20_26 
REMARK   10  A    between atoms: C20_26  and  C21_27 
ROOT
HETATM    1  C1  UNL     1       7.958 -10.899  22.334  1.00  0.00     0.015 C 
HETATM    2  C2  UNL     1       8.744  -9.955  21.829  1.00  0.00    -0.081 C 
HETATM    3  C3  UNL     1       8.789  -9.517  20.435  1.00  0.00     0.034 C 
HETATM    4  C4  UNL     1       9.551  -8.245  20.455  1.00  0.00     0.010 C 
HETATM    5  C5  UNL     1      10.079  -8.046  21.862  1.00  0.00     0.002 C 
HETATM    6  C6  UNL     1      11.542  -7.627  21.864  1.00  0.00    -0.005 C 
HETATM    7  C7  UNL     1      11.771  -6.560  22.904  1.00  0.00     0.006 C 
HETATM    8  C8  UNL     1      12.494  -7.041  24.113  1.00  0.00     0.010 C 
HETATM    9  C9  UNL     1      13.793  -7.720  23.814  1.00  0.00    -0.036 C 
HETATM   10  C10 UNL     1      14.160  -8.489  25.054  1.00  0.00     0.016 C 
HETATM   11  C11 UNL     1      14.797  -6.689  23.407  1.00  0.00     0.007 C 
HETATM   12  C23 UNL     1      15.870  -7.557  22.792  1.00  0.00     0.007 C 
HETATM   13  C24 UNL     1      14.972  -8.265  21.761  1.00  0.00     0.006 C 
HETATM   14  C25 UNL     1      13.769  -8.627  22.626  1.00  0.00    -0.002 C 
HETATM   15  C26 UNL     1      12.513  -8.725  21.825  1.00  0.00    -0.005 C 
HETATM   16  C27 UNL     1      11.871 -10.118  21.972  1.00  0.00     0.006 C 
HETATM   17  C28 UNL     1      10.819 -10.150  23.030  1.00  0.00     0.014 C 
HETATM   18  C29 UNL     1       9.716  -9.199  22.672  1.00  0.00    -0.017 C 
HETATM   19  C30 UNL     1       8.953  -8.853  23.953  1.00  0.00     0.020 C 
ENDROOT
BRANCH  11  20
HETATM   20  C12 UNL     1      15.192  -5.610  24.275  1.00  0.00     0.083 C 
BRANCH  20  21
HETATM   21  C13 UNL     1      16.570  -5.247  24.567  1.00  0.00     0.016 C 
BRANCH  21  22
HETATM   22  C14 UNL     1      17.383  -6.024  25.530  1.00  0.00     0.028 C 
BRANCH  22  23
HETATM   23  C15 UNL     1      18.866  -5.931  25.072  1.00  0.00     0.231 C 
BRANCH  23  24
HETATM   24  N1  UNL     1      19.084  -4.630  24.457  1.00  0.00    -0.079 N 
HETATM   25  C16 UNL     1      20.113  -4.692  23.460  1.00  0.00     0.266 C 
ATOM     26  H12 UNL     1      18.219  -4.245  24.078  1.00  0.00     0.276 HD
ATOM     27  H11 UNL     1      19.282  -3.914  25.155  1.00  0.00     0.276 HD
ENDBRANCH  23  24
ENDBRANCH  22  23
ENDBRANCH  21  22
ENDBRANCH  20  21
BRANCH  20  28
HETATM   28  C17 UNL     1      14.409  -4.368  23.879  1.00  0.00     0.222 C 
HETATM   29  O1  UNL     1      14.554  -3.969  22.710  1.00  0.00    -0.273 OA
HETATM   30  N2  UNL     1      13.569  -3.726  24.815  1.00  0.00    -0.361 N 
ATOM     31  H2  UNL     1      13.527  -4.164  25.735  1.00  0.00     0.162 HD
BRANCH  30  32
HETATM   32  C18 UNL     1      12.780  -2.567  24.664  1.00  0.00     0.122 C 
BRANCH  32  33
HETATM   33  C19 UNL     1      11.532  -2.575  23.893  1.00  0.00     0.020 C 
BRANCH  33  34
HETATM   34  C20 UNL     1      11.143  -1.440  23.045  1.00  0.00     0.001 C 
BRANCH  34  35
HETATM   35  C21 UNL     1      10.753  -1.955  21.650  1.00  0.00    -0.004 C 
HETATM   36  C22 UNL     1      11.520  -3.210  21.314  1.00  0.00     0.005 C 
ENDBRANCH  34  35
ENDBRANCH  33  34
ENDBRANCH  32  33
ENDBRANCH  30  32
ENDBRANCH  20  28
ENDBRANCH  11  20
TORSDOF 10
ENDMDL
