MODEL 1
REMARK VINA RESULT: -8.883780365      0.000      0.000
REMARK  10 active torsions:
REMARK  status: ('A' for Active; 'I' for Inactive)
REMARK    1  A    between atoms: C2_2  and  N1_3 
REMARK    2  A    between atoms: N1_3  and  C3_4 
REMARK    3  A    between atoms: N1_3  and  C5_6 
REMARK    4  A    between atoms: C5_6  and  C6_7 
REMARK    5  A    between atoms: C6_7  and  C7_8 
REMARK    6  A    between atoms: C7_8  and  C8_9 
REMARK    7  A    between atoms: C8_9  and  N2_10 
REMARK       I    between atoms: N2_10  and  C9_12 
REMARK       I    between atoms: C9_12  and  N3_14 
REMARK    8  A    between atoms: N3_14  and  C10_16 
REMARK    9  A    between atoms: C21_27  and  C22_28 
REMARK   10  A    between atoms: C22_28  and  C24_30 
ROOT
HETATM    1  C10 UNL     1      11.109  -6.056  25.808  1.00  0.00     0.096 C 
HETATM    2  C11 UNL     1      12.015  -4.875  26.216  1.00  0.00     0.036 C 
HETATM    3  C12 UNL     1      12.573  -4.954  24.787  1.00  0.00    -0.029 C 
HETATM    4  C13 UNL     1      11.871  -3.895  23.961  1.00  0.00     0.016 C 
HETATM    5  C14 UNL     1      14.019  -4.749  24.809  1.00  0.00    -0.010 C 
HETATM    6  C15 UNL     1      14.519  -4.078  23.540  1.00  0.00     0.011 C 
HETATM    7  C16 UNL     1      14.886  -5.902  25.119  1.00  0.00     0.005 C 
HETATM    8  C17 UNL     1      14.156  -7.133  25.561  1.00  0.00     0.006 C 
HETATM    9  C18 UNL     1      12.948  -7.443  24.692  1.00  0.00    -0.003 C 
HETATM   10  C19 UNL     1      13.403  -7.886  23.326  1.00  0.00     0.006 C 
HETATM   11  C20 UNL     1      12.502  -8.709  22.528  1.00  0.00     0.005 C 
HETATM   12  C21 UNL     1      11.159  -9.016  23.138  1.00  0.00    -0.010 C 
HETATM   13  C27 UNL     1      10.408  -7.795  23.528  1.00  0.00     0.006 C 
HETATM   14  C28 UNL     1      11.154  -6.501  23.387  1.00  0.00     0.013 C 
HETATM   15  C29 UNL     1      12.000  -6.309  24.657  1.00  0.00    -0.009 C 
ENDROOT
BRANCH   1  16
HETATM   16  N3  UNL     1      11.059  -6.960  26.907  1.00  0.00    -0.338 N 
HETATM   17  C9  UNL     1       9.829  -7.605  27.220  1.00  0.00     0.316 C 
HETATM   18  N2  UNL     1       9.697  -8.506  28.294  1.00  0.00    -0.343 N 
HETATM   19  O1  UNL     1       8.831  -7.336  26.489  1.00  0.00    -0.247 OA
ATOM     20  H2  UNL     1      10.526  -8.699  28.856  1.00  0.00     0.164 HD
ATOM     21  H3  UNL     1      11.894  -7.142  27.464  1.00  0.00     0.164 HD
BRANCH  18  22
HETATM   22  C8  UNL     1       8.487  -9.165  28.653  1.00  0.00     0.124 C 
BRANCH  22  23
HETATM   23  C7  UNL     1       8.235  -9.099  30.114  1.00  0.00     0.021 C 
BRANCH  23  24
HETATM   24  C6  UNL     1       9.156  -8.252  30.922  1.00  0.00     0.032 C 
BRANCH  24  25
HETATM   25  C5  UNL     1       8.532  -7.144  31.702  1.00  0.00     0.272 C 
BRANCH  25  26
HETATM   26  N1  UNL     1       8.695  -5.829  31.184  1.00  0.00     0.087 N 
BRANCH  26  27
HETATM   27  C2  UNL     1       9.899  -5.662  30.438  1.00  0.00     0.268 C 
HETATM   28  C1  UNL     1      10.125  -4.249  29.933  1.00  0.00     0.037 C 
ENDBRANCH  26  27
BRANCH  26  29
HETATM   29  C3  UNL     1       8.624  -4.863  32.240  1.00  0.00     0.268 C 
HETATM   30  C4  UNL     1       7.657  -5.274  33.340  1.00  0.00     0.037 C 
ENDBRANCH  26  29
ENDBRANCH  25  26
ENDBRANCH  24  25
ENDBRANCH  23  24
ENDBRANCH  22  23
ENDBRANCH  18  22
ENDBRANCH   1  16
BRANCH  12  31
HETATM   31  C22 UNL     1      10.401  -9.955  22.212  1.00  0.00    -0.011 C 
HETATM   32  C23 UNL     1      11.223 -10.289  20.982  1.00  0.00     0.011 C 
BRANCH  31  33
HETATM   33  C24 UNL     1       9.042  -9.446  21.857  1.00  0.00    -0.010 A 
HETATM   34  C25 UNL     1       7.871 -10.402  21.873  1.00  0.00     0.005 A 
HETATM   35  C26 UNL     1       8.318  -9.720  20.625  1.00  0.00     0.005 A 
ENDBRANCH  31  33
ENDBRANCH  12  31
TORSDOF 10
ENDMDL
MODEL 2
REMARK VINA RESULT: -8.846666026      0.521      1.308
REMARK  10 active torsions:
REMARK  status: ('A' for Active; 'I' for Inactive)
REMARK    1  A    between atoms: C2_2  and  N1_3 
REMARK    2  A    between atoms: N1_3  and  C3_4 
REMARK    3  A    between atoms: N1_3  and  C5_6 
REMARK    4  A    between atoms: C5_6  and  C6_7 
REMARK    5  A    between atoms: C6_7  and  C7_8 
REMARK    6  A    between atoms: C7_8  and  C8_9 
REMARK    7  A    between atoms: C8_9  and  N2_10 
REMARK       I    between atoms: N2_10  and  C9_12 
REMARK       I    between atoms: C9_12  and  N3_14 
REMARK    8  A    between atoms: N3_14  and  C10_16 
REMARK    9  A    between atoms: C21_27  and  C22_28 
REMARK   10  A    between atoms: C22_28  and  C24_30 
ROOT
HETATM    1  C10 UNL     1      11.082  -6.033  25.859  1.00  0.00     0.096 C 
HETATM    2  C11 UNL     1      11.987  -4.853  26.273  1.00  0.00     0.036 C 
HETATM    3  C12 UNL     1      12.559  -4.939  24.850  1.00  0.00    -0.029 C 
HETATM    4  C13 UNL     1      11.870  -3.881  24.013  1.00  0.00     0.016 C 
HETATM    5  C14 UNL     1      14.006  -4.736  24.887  1.00  0.00    -0.010 C 
HETATM    6  C15 UNL     1      14.521  -4.072  23.621  1.00  0.00     0.011 C 
HETATM    7  C16 UNL     1      14.867  -5.891  25.211  1.00  0.00     0.005 C 
HETATM    8  C17 UNL     1      14.129  -7.118  25.649  1.00  0.00     0.006 C 
HETATM    9  C18 UNL     1      12.930  -7.429  24.768  1.00  0.00    -0.003 C 
HETATM   10  C19 UNL     1      13.399  -7.877  23.409  1.00  0.00     0.006 C 
HETATM   11  C20 UNL     1      12.505  -8.701  22.605  1.00  0.00     0.005 C 
HETATM   12  C21 UNL     1      11.155  -9.004  23.201  1.00  0.00    -0.010 C 
HETATM   13  C27 UNL     1      10.402  -7.780  23.579  1.00  0.00     0.006 C 
HETATM   14  C28 UNL     1      11.153  -6.488  23.440  1.00  0.00     0.013 C 
HETATM   15  C29 UNL     1      11.985  -6.292  24.719  1.00  0.00    -0.009 C 
ENDROOT
BRANCH   1  16
HETATM   16  N3  UNL     1      11.018  -6.932  26.961  1.00  0.00    -0.338 N 
HETATM   17  C9  UNL     1       9.803  -7.628  27.219  1.00  0.00     0.316 C 
HETATM   18  N2  UNL     1       9.658  -8.528  28.293  1.00  0.00    -0.343 N 
HETATM   19  O1  UNL     1       8.830  -7.406  26.441  1.00  0.00    -0.247 OA
ATOM     20  H2  UNL     1      10.467  -8.683  28.895  1.00  0.00     0.164 HD
ATOM     21  H3  UNL     1      11.832  -7.076  27.559  1.00  0.00     0.164 HD
BRANCH  18  22
HETATM   22  C8  UNL     1       8.462  -9.237  28.598  1.00  0.00     0.124 C 
BRANCH  22  23
HETATM   23  C7  UNL     1       8.173  -9.230  30.055  1.00  0.00     0.021 C 
BRANCH  23  24
HETATM   24  C6  UNL     1       8.954  -8.281  30.895  1.00  0.00     0.032 C 
BRANCH  24  25
HETATM   25  C5  UNL     1       8.231  -7.651  32.038  1.00  0.00     0.272 C 
BRANCH  25  26
HETATM   26  N1  UNL     1       8.632  -6.335  32.399  1.00  0.00     0.087 N 
BRANCH  26  27
HETATM   27  C2  UNL     1       7.670  -5.654  33.202  1.00  0.00     0.268 C 
HETATM   28  C1  UNL     1       6.639  -6.565  33.842  1.00  0.00     0.037 C 
ENDBRANCH  26  27
BRANCH  26  29
HETATM   29  C3  UNL     1       8.940  -5.567  31.229  1.00  0.00     0.268 C 
HETATM   30  C4  UNL     1       9.233  -4.109  31.551  1.00  0.00     0.037 C 
ENDBRANCH  26  29
ENDBRANCH  25  26
ENDBRANCH  24  25
ENDBRANCH  23  24
ENDBRANCH  22  23
ENDBRANCH  18  22
ENDBRANCH   1  16
BRANCH  12  31
HETATM   31  C22 UNL     1      10.405  -9.945  22.271  1.00  0.00    -0.011 C 
HETATM   32  C23 UNL     1      11.246 -10.298  21.059  1.00  0.00     0.011 C 
BRANCH  31  33
HETATM   33  C24 UNL     1       9.057  -9.427  21.886  1.00  0.00    -0.010 A 
HETATM   34  C25 UNL     1       7.880 -10.376  21.877  1.00  0.00     0.005 A 
HETATM   35  C26 UNL     1       8.357  -9.696  20.639  1.00  0.00     0.005 A 
ENDBRANCH  31  33
ENDBRANCH  12  31
TORSDOF 10
ENDMDL
MODEL 3
REMARK VINA RESULT: -8.495720625      4.545      9.467
REMARK  10 active torsions:
REMARK  status: ('A' for Active; 'I' for Inactive)
REMARK    1  A    between atoms: C2_2  and  N1_3 
REMARK    2  A    between atoms: N1_3  and  C3_4 
REMARK    3  A    between atoms: N1_3  and  C5_6 
REMARK    4  A    between atoms: C5_6  and  C6_7 
REMARK    5  A    between atoms: C6_7  and  C7_8 
REMARK    6  A    between atoms: C7_8  and  C8_9 
REMARK    7  A    between atoms: C8_9  and  N2_10 
REMARK       I    between atoms: N2_10  and  C9_12 
REMARK       I    between atoms: C9_12  and  N3_14 
REMARK    8  A    between atoms: N3_14  and  C10_16 
REMARK    9  A    between atoms: C21_27  and  C22_28 
REMARK   10  A    between atoms: C22_28  and  C24_30 
ROOT
HETATM    1  C10 UNL     1      12.933  -8.345  22.277  1.00  0.00     0.096 C 
HETATM    2  C11 UNL     1      12.230  -9.719  22.292  1.00  0.00     0.036 C 
HETATM    3  C12 UNL     1      10.922  -8.923  22.414  1.00  0.00    -0.029 C 
HETATM    4  C13 UNL     1      10.312  -8.828  21.030  1.00  0.00     0.016 C 
HETATM    5  C14 UNL     1      10.024  -9.591  23.353  1.00  0.00    -0.010 C 
HETATM    6  C15 UNL     1       8.563  -9.376  22.996  1.00  0.00     0.011 C 
HETATM    7  C16 UNL     1      10.209  -9.343  24.797  1.00  0.00     0.005 C 
HETATM    8  C17 UNL     1      11.437  -8.560  25.144  1.00  0.00     0.006 C 
HETATM    9  C18 UNL     1      11.636  -7.350  24.246  1.00  0.00    -0.003 C 
HETATM   10  C19 UNL     1      10.578  -6.319  24.538  1.00  0.00     0.006 C 
HETATM   11  C20 UNL     1      10.857  -4.927  24.208  1.00  0.00     0.005 C 
HETATM   12  C21 UNL     1      12.187  -4.645  23.560  1.00  0.00    -0.010 C 
HETATM   13  C27 UNL     1      12.408  -5.441  22.325  1.00  0.00     0.006 C 
HETATM   14  C28 UNL     1      11.359  -6.470  22.019  1.00  0.00     0.013 C 
HETATM   15  C29 UNL     1      11.702  -7.738  22.821  1.00  0.00    -0.009 C 
ENDROOT
BRANCH   1  16
HETATM   16  N3  UNL     1      14.109  -8.455  23.073  1.00  0.00    -0.338 N 
HETATM   17  C9  UNL     1      15.383  -8.334  22.450  1.00  0.00     0.316 C 
HETATM   18  N2  UNL     1      16.591  -8.437  23.168  1.00  0.00    -0.343 N 
HETATM   19  O1  UNL     1      15.402  -8.130  21.201  1.00  0.00    -0.247 OA
ATOM     20  H2  UNL     1      16.533  -8.597  24.173  1.00  0.00     0.164 HD
ATOM     21  H3  UNL     1      14.039  -8.619  24.078  1.00  0.00     0.164 HD
BRANCH  18  22
HETATM   22  C8  UNL     1      17.887  -8.335  22.588  1.00  0.00     0.124 C 
BRANCH  22  23
HETATM   23  C7  UNL     1      18.428  -9.664  22.209  1.00  0.00     0.021 C 
BRANCH  23  24
HETATM   24  C6  UNL     1      18.352 -10.041  20.770  1.00  0.00     0.032 C 
BRANCH  24  25
HETATM   25  C5  UNL     1      17.136 -10.788  20.340  1.00  0.00     0.272 C 
BRANCH  25  26
HETATM   26  N1  UNL     1      17.118 -11.258  18.997  1.00  0.00     0.087 N 
BRANCH  26  27
HETATM   27  C2  UNL     1      15.881 -11.866  18.630  1.00  0.00     0.268 C 
HETATM   28  C1  UNL     1      14.729 -11.544  19.565  1.00  0.00     0.037 C 
ENDBRANCH  26  27
BRANCH  26  29
HETATM   29  C3  UNL     1      18.206 -12.162  18.769  1.00  0.00     0.268 C 
HETATM   30  C4  UNL     1      17.888 -13.580  19.221  1.00  0.00     0.037 C 
ENDBRANCH  26  29
ENDBRANCH  25  26
ENDBRANCH  24  25
ENDBRANCH  23  24
ENDBRANCH  22  23
ENDBRANCH  18  22
ENDBRANCH   1  16
BRANCH  12  31
HETATM   31  C22 UNL     1      12.339  -3.143  23.378  1.00  0.00    -0.011 C 
HETATM   32  C23 UNL     1      13.016  -2.514  24.581  1.00  0.00     0.011 C 
BRANCH  31  33
HETATM   33  C24 UNL     1      11.049  -2.466  23.045  1.00  0.00    -0.010 A 
HETATM   34  C25 UNL     1      10.790  -2.038  21.618  1.00  0.00     0.005 A 
HETATM   35  C26 UNL     1      10.874  -1.055  22.735  1.00  0.00     0.005 A 
ENDBRANCH  31  33
ENDBRANCH  12  31
TORSDOF 10
ENDMDL
MODEL 4
REMARK VINA RESULT: -8.465737968      3.731      8.671
REMARK  10 active torsions:
REMARK  status: ('A' for Active; 'I' for Inactive)
REMARK    1  A    between atoms: C2_2  and  N1_3 
REMARK    2  A    between atoms: N1_3  and  C3_4 
REMARK    3  A    between atoms: N1_3  and  C5_6 
REMARK    4  A    between atoms: C5_6  and  C6_7 
REMARK    5  A    between atoms: C6_7  and  C7_8 
REMARK    6  A    between atoms: C7_8  and  C8_9 
REMARK    7  A    between atoms: C8_9  and  N2_10 
REMARK       I    between atoms: N2_10  and  C9_12 
REMARK       I    between atoms: C9_12  and  N3_14 
REMARK    8  A    between atoms: N3_14  and  C10_16 
REMARK    9  A    between atoms: C21_27  and  C22_28 
REMARK   10  A    between atoms: C22_28  and  C24_30 
ROOT
HETATM    1  C10 UNL     1      13.321  -6.483  24.592  1.00  0.00     0.096 C 
HETATM    2  C11 UNL     1      12.814  -7.808  25.201  1.00  0.00     0.036 C 
HETATM    3  C12 UNL     1      11.445  -7.115  25.284  1.00  0.00    -0.029 C 
HETATM    4  C13 UNL     1      10.631  -7.564  24.088  1.00  0.00     0.016 C 
HETATM    5  C14 UNL     1      10.792  -7.467  26.543  1.00  0.00    -0.010 C 
HETATM    6  C15 UNL     1       9.278  -7.497  26.410  1.00  0.00     0.011 C 
HETATM    7  C16 UNL     1      11.154  -6.708  27.757  1.00  0.00     0.005 C 
HETATM    8  C17 UNL     1      12.306  -5.767  27.585  1.00  0.00     0.006 C 
HETATM    9  C18 UNL     1      12.209  -4.946  26.310  1.00  0.00    -0.003 C 
HETATM   10  C19 UNL     1      11.080  -3.956  26.425  1.00  0.00     0.006 C 
HETATM   11  C20 UNL     1      11.122  -2.757  25.597  1.00  0.00     0.005 C 
HETATM   12  C21 UNL     1      12.294  -2.632  24.658  1.00  0.00    -0.010 C 
HETATM   13  C27 UNL     1      12.432  -3.798  23.748  1.00  0.00     0.006 C 
HETATM   14  C28 UNL     1      11.494  -4.940  24.009  1.00  0.00     0.013 C 
HETATM   15  C29 UNL     1      12.115  -5.810  25.114  1.00  0.00    -0.009 C 
ENDROOT
BRANCH   1  16
HETATM   16  N3  UNL     1      14.606  -6.218  25.147  1.00  0.00    -0.338 N 
HETATM   17  C9  UNL     1      15.655  -5.781  24.291  1.00  0.00     0.316 C 
HETATM   18  N2  UNL     1      16.954  -5.505  24.762  1.00  0.00    -0.343 N 
HETATM   19  O1  UNL     1      15.384  -5.647  23.061  1.00  0.00    -0.247 OA
ATOM     20  H2  UNL     1      17.130  -5.619  25.760  1.00  0.00     0.164 HD
ATOM     21  H3  UNL     1      14.772  -6.340  26.146  1.00  0.00     0.164 HD
BRANCH  18  22
HETATM   22  C8  UNL     1      18.037  -5.077  23.944  1.00  0.00     0.124 C 
BRANCH  22  23
HETATM   23  C7  UNL     1      18.840  -6.223  23.449  1.00  0.00     0.021 C 
BRANCH  23  24
HETATM   24  C6  UNL     1      18.868  -7.447  24.297  1.00  0.00     0.032 C 
BRANCH  24  25
HETATM   25  C5  UNL     1      18.643  -8.747  23.601  1.00  0.00     0.272 C 
BRANCH  25  26
HETATM   26  N1  UNL     1      17.679  -8.753  22.555  1.00  0.00     0.087 N 
BRANCH  26  27
HETATM   27  C2  UNL     1      16.349  -8.979  23.017  1.00  0.00     0.268 C 
HETATM   28  C1  UNL     1      15.368  -9.354  21.921  1.00  0.00     0.037 C 
ENDBRANCH  26  27
BRANCH  26  29
HETATM   29  C3  UNL     1      18.032  -9.717  21.555  1.00  0.00     0.268 C 
HETATM   30  C4  UNL     1      19.503 -10.097  21.607  1.00  0.00     0.037 C 
ENDBRANCH  26  29
ENDBRANCH  25  26
ENDBRANCH  24  25
ENDBRANCH  23  24
ENDBRANCH  22  23
ENDBRANCH  18  22
ENDBRANCH   1  16
BRANCH  12  31
HETATM   31  C22 UNL     1      12.218  -1.286  23.954  1.00  0.00    -0.011 C 
HETATM   32  C23 UNL     1      12.692  -0.167  24.862  1.00  0.00     0.011 C 
BRANCH  31  33
HETATM   33  C24 UNL     1      10.868  -1.007  23.379  1.00  0.00    -0.010 A 
HETATM   34  C25 UNL     1      10.631  -1.251  21.905  1.00  0.00     0.005 A 
HETATM   35  C26 UNL     1      10.517   0.107  22.511  1.00  0.00     0.005 A 
ENDBRANCH  31  33
ENDBRANCH  12  31
TORSDOF 10
ENDMDL
MODEL 5
REMARK VINA RESULT: -8.460797682      4.578      9.501
REMARK  10 active torsions:
REMARK  status: ('A' for Active; 'I' for Inactive)
REMARK    1  A    between atoms: C2_2  and  N1_3 
REMARK    2  A    between atoms: N1_3  and  C3_4 
REMARK    3  A    between atoms: N1_3  and  C5_6 
REMARK    4  A    between atoms: C5_6  and  C6_7 
REMARK    5  A    between atoms: C6_7  and  C7_8 
REMARK    6  A    between atoms: C7_8  and  C8_9 
REMARK    7  A    between atoms: C8_9  and  N2_10 
REMARK       I    between atoms: N2_10  and  C9_12 
REMARK       I    between atoms: C9_12  and  N3_14 
REMARK    8  A    between atoms: N3_14  and  C10_16 
REMARK    9  A    between atoms: C21_27  and  C22_28 
REMARK   10  A    between atoms: C22_28  and  C24_30 
ROOT
HETATM    1  C10 UNL     1      13.086  -8.284  22.295  1.00  0.00     0.096 C 
HETATM    2  C11 UNL     1      12.402  -9.668  22.272  1.00  0.00     0.036 C 
HETATM    3  C12 UNL     1      11.078  -8.890  22.325  1.00  0.00    -0.029 C 
HETATM    4  C13 UNL     1      10.541  -8.802  20.911  1.00  0.00     0.016 C 
HETATM    5  C14 UNL     1      10.141  -9.570  23.216  1.00  0.00    -0.010 C 
HETATM    6  C15 UNL     1       8.698  -9.375  22.782  1.00  0.00     0.011 C 
HETATM    7  C16 UNL     1      10.247  -9.321  24.667  1.00  0.00     0.005 C 
HETATM    8  C17 UNL     1      11.444  -8.521  25.079  1.00  0.00     0.006 C 
HETATM    9  C18 UNL     1      11.673  -7.308  24.193  1.00  0.00    -0.003 C 
HETATM   10  C19 UNL     1      10.587  -6.291  24.428  1.00  0.00     0.006 C 
HETATM   11  C20 UNL     1      10.864  -4.895  24.113  1.00  0.00     0.005 C 
HETATM   12  C21 UNL     1      12.223  -4.595  23.536  1.00  0.00    -0.010 C 
HETATM   13  C27 UNL     1      12.519  -5.388  22.314  1.00  0.00     0.006 C 
HETATM   14  C28 UNL     1      11.502  -6.430  21.954  1.00  0.00     0.013 C 
HETATM   15  C29 UNL     1      11.819  -7.694  22.773  1.00  0.00    -0.009 C 
ENDROOT
BRANCH   1  16
HETATM   16  N3  UNL     1      14.219  -8.379  23.152  1.00  0.00    -0.338 N 
HETATM   17  C9  UNL     1      15.522  -8.225  22.600  1.00  0.00     0.316 C 
HETATM   18  N2  UNL     1      16.692  -8.312  23.380  1.00  0.00    -0.343 N 
HETATM   19  O1  UNL     1      15.603  -8.008  21.355  1.00  0.00    -0.247 OA
ATOM     20  H2  UNL     1      16.584  -8.483  24.379  1.00  0.00     0.164 HD
ATOM     21  H3  UNL     1      14.099  -8.554  24.150  1.00  0.00     0.164 HD
BRANCH  18  22
HETATM   22  C8  UNL     1      18.015  -8.177  22.872  1.00  0.00     0.124 C 
BRANCH  22  23
HETATM   23  C7  UNL     1      18.689  -9.492  22.735  1.00  0.00     0.021 C 
BRANCH  23  24
HETATM   24  C6  UNL     1      18.970  -9.968  21.352  1.00  0.00     0.032 C 
BRANCH  24  25
HETATM   25  C5  UNL     1      17.792 -10.378  20.534  1.00  0.00     0.272 C 
BRANCH  25  26
HETATM   26  N1  UNL     1      17.941 -11.552  19.746  1.00  0.00     0.087 N 
BRANCH  26  27
HETATM   27  C2  UNL     1      19.002 -11.464  18.797  1.00  0.00     0.268 C 
HETATM   28  C1  UNL     1      18.765 -12.256  17.525  1.00  0.00     0.037 C 
ENDBRANCH  26  27
BRANCH  26  29
HETATM   29  C3  UNL     1      16.708 -11.872  19.087  1.00  0.00     0.268 C 
HETATM   30  C4  UNL     1      15.511 -11.193  19.734  1.00  0.00     0.037 C 
ENDBRANCH  26  29
ENDBRANCH  25  26
ENDBRANCH  24  25
ENDBRANCH  23  24
ENDBRANCH  22  23
ENDBRANCH  18  22
ENDBRANCH   1  16
BRANCH  12  31
HETATM   31  C22 UNL     1      12.364  -3.091  23.363  1.00  0.00    -0.011 C 
HETATM   32  C23 UNL     1      13.043  -2.465  24.565  1.00  0.00     0.011 C 
BRANCH  31  33
HETATM   33  C24 UNL     1      11.068  -2.421  23.039  1.00  0.00    -0.010 A 
HETATM   34  C25 UNL     1      10.786  -2.015  21.611  1.00  0.00     0.005 A 
HETATM   35  C26 UNL     1      10.886  -1.015  22.712  1.00  0.00     0.005 A 
ENDBRANCH  31  33
ENDBRANCH  12  31
TORSDOF 10
ENDMDL
