MODEL 1
REMARK VINA RESULT: -9.481264909      0.000      0.000
REMARK  10 active torsions:
REMARK  status: ('A' for Active; 'I' for Inactive)
REMARK    1  A    between atoms: C2_2  and  C3_3 
REMARK    2  A    between atoms: C3_3  and  C4_4 
REMARK    3  A    between atoms: C4_4  and  C5_5 
REMARK    4  A    between atoms: C5_5  and  N1_6 
REMARK       I    between atoms: N1_6  and  C6_8 
REMARK       I    between atoms: C6_8  and  N2_10 
REMARK    5  A    between atoms: C13_17  and  C14_18 
REMARK    6  A    between atoms: C14_18  and  C15_19 
REMARK    7  A    between atoms: C15_19  and  C16_20 
REMARK       I    between atoms: C16_20  and  N3_22 
REMARK    8  A    between atoms: N3_22  and  C17_23 
REMARK    9  A    between atoms: C17_23  and  C18_24 
REMARK   10  A    between atoms: C18_24  and  C19_25 
ROOT
HETATM    1  N1  UNL     1      10.538  -2.220  22.878  1.00  0.00    -0.343 N 
ATOM      2  H1  UNL     1       9.804  -1.931  23.525  1.00  0.00     0.164 HD
HETATM    3  C6  UNL     1      11.159  -3.453  23.133  1.00  0.00     0.319 C 
HETATM    4  O1  UNL     1      12.077  -3.700  22.246  1.00  0.00    -0.247 OA
HETATM    5  N2  UNL     1      10.936  -4.394  24.139  1.00  0.00    -0.320 N 
HETATM    6  C7  UNL     1      10.120  -4.360  25.289  1.00  0.00     0.094 C 
HETATM    7  C8  UNL     1       9.928  -3.016  25.963  1.00  0.00     0.026 C 
HETATM    8  C9  UNL     1      11.221  -2.355  26.308  1.00  0.00     0.002 C 
HETATM    9  C10 UNL     1      11.990  -3.328  27.186  1.00  0.00     0.001 C 
HETATM   10  C11 UNL     1      11.219  -4.546  27.559  1.00  0.00     0.007 C 
HETATM   11  C12 UNL     1      10.528  -5.256  26.437  1.00  0.00     0.013 C 
HETATM   12  C13 UNL     1      11.222  -6.514  26.116  1.00  0.00    -0.006 C 
HETATM   13  C25 UNL     1      11.054  -6.813  24.676  1.00  0.00     0.035 C 
HETATM   14  C26 UNL     1      11.631  -5.688  23.880  1.00  0.00     0.030 C 
HETATM   15  C27 UNL     1      13.102  -5.584  24.147  1.00  0.00     0.038 C 
HETATM   16  C28 UNL     1      11.438  -6.113  22.419  1.00  0.00     0.038 C 
ENDROOT
BRANCH  12  17
HETATM   17  C14 UNL     1      10.631  -7.657  26.940  1.00  0.00     0.015 C 
BRANCH  17  18
HETATM   18  C15 UNL     1       9.340  -8.135  26.391  1.00  0.00     0.120 C 
BRANCH  18  19
HETATM   19  C16 UNL     1       9.241  -9.656  26.631  1.00  0.00     0.290 C 
HETATM   20  O2  UNL     1       9.552 -10.319  25.618  1.00  0.00    -0.257 OA
HETATM   21  N3  UNL     1       8.865 -10.054  27.821  1.00  0.00    -0.388 NA
BRANCH  21  22
HETATM   22  C17 UNL     1       8.465 -10.486  29.094  1.00  0.00     0.159 C 
BRANCH  22  23
HETATM   23  C18 UNL     1       7.799  -9.413  29.891  1.00  0.00     0.064 C 
BRANCH  23  24
HETATM   24  C19 UNL     1       8.578  -8.929  31.075  1.00  0.00    -0.009 C 
HETATM   25  C20 UNL     1       7.558  -8.152  31.937  1.00  0.00     0.005 C 
HETATM   26  C21 UNL     1       8.329  -7.174  32.787  1.00  0.00     0.000 C 
HETATM   27  C22 UNL     1       8.691  -5.978  31.910  1.00  0.00     0.000 C 
HETATM   28  C23 UNL     1       9.005  -6.512  30.501  1.00  0.00     0.000 C 
HETATM   29  C24 UNL     1       9.612  -7.904  30.636  1.00  0.00     0.005 C 
ENDBRANCH  23  24
ENDBRANCH  22  23
ENDBRANCH  21  22
ENDBRANCH  18  19
ENDBRANCH  17  18
ENDBRANCH  12  17
BRANCH   1  30
HETATM   30  C5  UNL     1      10.841  -1.318  21.783  1.00  0.00     0.124 C 
BRANCH  30  31
HETATM   31  C4  UNL     1      10.374   0.096  22.025  1.00  0.00     0.020 C 
BRANCH  31  32
HETATM   32  C3  UNL     1      10.682   0.385  23.494  1.00  0.00     0.001 C 
BRANCH  32  33
HETATM   33  C2  UNL     1      12.002   1.061  23.685  1.00  0.00    -0.004 C 
HETATM   34  C1  UNL     1      12.818   0.267  24.673  1.00  0.00     0.005 C 
ENDBRANCH  32  33
ENDBRANCH  31  32
ENDBRANCH  30  31
ENDBRANCH   1  30
TORSDOF 10
ENDMDL
MODEL 2
REMARK VINA RESULT: -9.475521116      2.160      7.801
REMARK  10 active torsions:
REMARK  status: ('A' for Active; 'I' for Inactive)
REMARK    1  A    between atoms: C2_2  and  C3_3 
REMARK    2  A    between atoms: C3_3  and  C4_4 
REMARK    3  A    between atoms: C4_4  and  C5_5 
REMARK    4  A    between atoms: C5_5  and  N1_6 
REMARK       I    between atoms: N1_6  and  C6_8 
REMARK       I    between atoms: C6_8  and  N2_10 
REMARK    5  A    between atoms: C13_17  and  C14_18 
REMARK    6  A    between atoms: C14_18  and  C15_19 
REMARK    7  A    between atoms: C15_19  and  C16_20 
REMARK       I    between atoms: C16_20  and  N3_22 
REMARK    8  A    between atoms: N3_22  and  C17_23 
REMARK    9  A    between atoms: C17_23  and  C18_24 
REMARK   10  A    between atoms: C18_24  and  C19_25 
ROOT
HETATM    1  N1  UNL     1      10.249  -5.707  28.724  1.00  0.00    -0.343 N 
ATOM      2  H1  UNL     1       9.317  -5.716  28.308  1.00  0.00     0.164 HD
HETATM    3  C6  UNL     1      11.311  -6.135  27.911  1.00  0.00     0.319 C 
HETATM    4  O1  UNL     1      12.437  -6.085  28.556  1.00  0.00    -0.247 OA
HETATM    5  N2  UNL     1      11.324  -6.573  26.586  1.00  0.00    -0.320 N 
HETATM    6  C7  UNL     1      10.277  -6.852  25.681  1.00  0.00     0.094 C 
HETATM    7  C8  UNL     1       8.988  -7.400  26.261  1.00  0.00     0.026 C 
HETATM    8  C9  UNL     1       9.204  -8.621  27.091  1.00  0.00     0.002 C 
HETATM    9  C10 UNL     1       9.905  -9.635  26.205  1.00  0.00     0.001 C 
HETATM   10  C11 UNL     1      10.046  -9.206  24.786  1.00  0.00     0.007 C 
HETATM   11  C12 UNL     1      10.585  -7.827  24.567  1.00  0.00     0.013 C 
HETATM   12  C13 UNL     1      11.968  -7.887  24.066  1.00  0.00    -0.006 C 
HETATM   13  C25 UNL     1      12.710  -6.694  24.532  1.00  0.00     0.035 C 
HETATM   14  C26 UNL     1      12.703  -6.674  26.026  1.00  0.00     0.030 C 
HETATM   15  C27 UNL     1      13.421  -7.879  26.550  1.00  0.00     0.038 C 
HETATM   16  C28 UNL     1      13.519  -5.430  26.398  1.00  0.00     0.038 C 
ENDROOT
BRANCH  12  17
HETATM   17  C14 UNL     1      11.967  -7.915  22.539  1.00  0.00     0.015 C 
BRANCH  17  18
HETATM   18  C15 UNL     1      10.757  -7.279  21.968  1.00  0.00     0.120 C 
BRANCH  18  19
HETATM   19  C16 UNL     1      11.191  -6.359  20.807  1.00  0.00     0.290 C 
HETATM   20  O2  UNL     1      11.097  -6.921  19.695  1.00  0.00    -0.257 OA
HETATM   21  N3  UNL     1      11.582  -5.147  21.115  1.00  0.00    -0.388 NA
BRANCH  21  22
HETATM   22  C17 UNL     1      12.000  -3.848  21.437  1.00  0.00     0.159 C 
BRANCH  22  23
HETATM   23  C18 UNL     1      12.353  -3.691  22.879  1.00  0.00     0.064 C 
BRANCH  23  24
HETATM   24  C19 UNL     1      11.371  -2.900  23.689  1.00  0.00    -0.009 C 
HETATM   25  C20 UNL     1      11.115  -1.617  22.868  1.00  0.00     0.005 C 
HETATM   26  C21 UNL     1      10.642  -0.550  23.822  1.00  0.00     0.000 C 
HETATM   27  C22 UNL     1      11.866   0.005  24.545  1.00  0.00     0.000 C 
HETATM   28  C23 UNL     1      12.836  -1.166  24.785  1.00  0.00     0.000 C 
HETATM   29  C24 UNL     1      12.018  -2.437  24.985  1.00  0.00     0.005 C 
ENDBRANCH  23  24
ENDBRANCH  22  23
ENDBRANCH  21  22
ENDBRANCH  18  19
ENDBRANCH  17  18
ENDBRANCH  12  17
BRANCH   1  30
HETATM   30  C5  UNL     1      10.352  -5.253  30.098  1.00  0.00     0.124 C 
BRANCH  30  31
HETATM   31  C4  UNL     1       9.378  -5.934  31.027  1.00  0.00     0.020 C 
BRANCH  31  32
HETATM   32  C3  UNL     1       9.396  -7.411  30.632  1.00  0.00     0.001 C 
BRANCH  32  33
HETATM   33  C2  UNL     1       8.402  -8.225  31.397  1.00  0.00    -0.004 C 
HETATM   34  C1  UNL     1       7.917  -9.352  30.521  1.00  0.00     0.005 C 
ENDBRANCH  32  33
ENDBRANCH  31  32
ENDBRANCH  30  31
ENDBRANCH   1  30
TORSDOF 10
ENDMDL
MODEL 3
REMARK VINA RESULT: -9.442203296      2.556      8.303
REMARK  10 active torsions:
REMARK  status: ('A' for Active; 'I' for Inactive)
REMARK    1  A    between atoms: C2_2  and  C3_3 
REMARK    2  A    between atoms: C3_3  and  C4_4 
REMARK    3  A    between atoms: C4_4  and  C5_5 
REMARK    4  A    between atoms: C5_5  and  N1_6 
REMARK       I    between atoms: N1_6  and  C6_8 
REMARK       I    between atoms: C6_8  and  N2_10 
REMARK    5  A    between atoms: C13_17  and  C14_18 
REMARK    6  A    between atoms: C14_18  and  C15_19 
REMARK    7  A    between atoms: C15_19  and  C16_20 
REMARK       I    between atoms: C16_20  and  N3_22 
REMARK    8  A    between atoms: N3_22  and  C17_23 
REMARK    9  A    between atoms: C17_23  and  C18_24 
REMARK   10  A    between atoms: C18_24  and  C19_25 
ROOT
HETATM    1  N1  UNL     1       9.392  -7.609  29.164  1.00  0.00    -0.343 N 
ATOM      2  H1  UNL     1       8.877  -8.088  28.425  1.00  0.00     0.164 HD
HETATM    3  C6  UNL     1      10.150  -6.489  28.788  1.00  0.00     0.319 C 
HETATM    4  O1  UNL     1      10.761  -5.977  29.814  1.00  0.00    -0.247 OA
HETATM    5  N2  UNL     1      10.320  -5.882  27.543  1.00  0.00    -0.320 N 
HETATM    6  C7  UNL     1       9.902  -6.263  26.249  1.00  0.00     0.094 C 
HETATM    7  C8  UNL     1       9.832  -7.748  25.954  1.00  0.00     0.026 C 
HETATM    8  C9  UNL     1      11.117  -8.452  26.238  1.00  0.00     0.002 C 
HETATM    9  C10 UNL     1      12.189  -7.758  25.416  1.00  0.00     0.001 C 
HETATM   10  C11 UNL     1      11.663  -6.715  24.492  1.00  0.00     0.007 C 
HETATM   11  C12 UNL     1      10.711  -5.727  25.090  1.00  0.00     0.013 C 
HETATM   12  C13 UNL     1      11.360  -4.415  25.250  1.00  0.00    -0.006 C 
HETATM   13  C25 UNL     1      10.775  -3.718  26.417  1.00  0.00     0.035 C 
HETATM   14  C26 UNL     1      10.992  -4.554  27.636  1.00  0.00     0.030 C 
HETATM   15  C27 UNL     1      12.461  -4.699  27.893  1.00  0.00     0.038 C 
HETATM   16  C28 UNL     1      10.386  -3.731  28.779  1.00  0.00     0.038 C 
ENDROOT
BRANCH  12  17
HETATM   17  C14 UNL     1      11.140  -3.571  23.996  1.00  0.00     0.015 C 
BRANCH  17  18
HETATM   18  C15 UNL     1      12.242  -3.722  23.018  1.00  0.00     0.120 C 
BRANCH  18  19
HETATM   19  C16 UNL     1      11.628  -4.000  21.629  1.00  0.00     0.290 C 
HETATM   20  O2  UNL     1      11.284  -2.951  21.043  1.00  0.00    -0.257 OA
HETATM   21  N3  UNL     1      11.550  -5.250  21.246  1.00  0.00    -0.388 NA
BRANCH  21  22
HETATM   22  C17 UNL     1      11.465  -6.586  20.828  1.00  0.00     0.159 C 
BRANCH  22  23
HETATM   23  C18 UNL     1      10.418  -7.359  21.560  1.00  0.00     0.064 C 
BRANCH  23  24
HETATM   24  C19 UNL     1      10.340  -8.812  21.205  1.00  0.00    -0.009 C 
HETATM   25  C20 UNL     1       8.990  -8.976  20.474  1.00  0.00     0.005 C 
HETATM   26  C21 UNL     1       8.569 -10.418  20.607  1.00  0.00     0.000 C 
HETATM   27  C22 UNL     1       7.980 -10.604  22.003  1.00  0.00     0.000 C 
HETATM   28  C23 UNL     1       8.792  -9.726  22.972  1.00  0.00     0.000 C 
HETATM   29  C24 UNL     1      10.229  -9.652  22.468  1.00  0.00     0.005 C 
ENDBRANCH  23  24
ENDBRANCH  22  23
ENDBRANCH  21  22
ENDBRANCH  18  19
ENDBRANCH  17  18
ENDBRANCH  12  17
BRANCH   1  30
HETATM   30  C5  UNL     1       9.273  -8.151  30.505  1.00  0.00     0.124 C 
BRANCH  30  31
HETATM   31  C4  UNL     1       8.112  -9.099  30.666  1.00  0.00     0.020 C 
BRANCH  31  32
HETATM   32  C3  UNL     1       7.406  -8.671  31.954  1.00  0.00     0.001 C 
BRANCH  32  33
HETATM   33  C2  UNL     1       7.991  -7.429  32.547  1.00  0.00    -0.004 C 
HETATM   34  C1  UNL     1       6.971  -6.799  33.460  1.00  0.00     0.005 C 
ENDBRANCH  32  33
ENDBRANCH  31  32
ENDBRANCH  30  31
ENDBRANCH   1  30
TORSDOF 10
ENDMDL
MODEL 4
REMARK VINA RESULT: -9.397097579      2.237      7.506
REMARK  10 active torsions:
REMARK  status: ('A' for Active; 'I' for Inactive)
REMARK    1  A    between atoms: C2_2  and  C3_3 
REMARK    2  A    between atoms: C3_3  and  C4_4 
REMARK    3  A    between atoms: C4_4  and  C5_5 
REMARK    4  A    between atoms: C5_5  and  N1_6 
REMARK       I    between atoms: N1_6  and  C6_8 
REMARK       I    between atoms: C6_8  and  N2_10 
REMARK    5  A    between atoms: C13_17  and  C14_18 
REMARK    6  A    between atoms: C14_18  and  C15_19 
REMARK    7  A    between atoms: C15_19  and  C16_20 
REMARK       I    between atoms: C16_20  and  N3_22 
REMARK    8  A    between atoms: N3_22  and  C17_23 
REMARK    9  A    between atoms: C17_23  and  C18_24 
REMARK   10  A    between atoms: C18_24  and  C19_25 
ROOT
HETATM    1  N1  UNL     1      10.389  -5.629  28.691  1.00  0.00    -0.343 N 
ATOM      2  H1  UNL     1       9.443  -5.597  28.310  1.00  0.00     0.164 HD
HETATM    3  C6  UNL     1      11.387  -6.177  27.869  1.00  0.00     0.319 C 
HETATM    4  O1  UNL     1      12.538  -6.167  28.470  1.00  0.00    -0.247 OA
HETATM    5  N2  UNL     1      11.318  -6.693  26.574  1.00  0.00    -0.320 N 
HETATM    6  C7  UNL     1      10.220  -6.953  25.726  1.00  0.00     0.094 C 
HETATM    7  C8  UNL     1       8.921  -7.374  26.384  1.00  0.00     0.026 C 
HETATM    8  C9  UNL     1       9.086  -8.555  27.280  1.00  0.00     0.002 C 
HETATM    9  C10 UNL     1       9.682  -9.667  26.435  1.00  0.00     0.001 C 
HETATM   10  C11 UNL     1       9.795  -9.333  24.988  1.00  0.00     0.007 C 
HETATM   11  C12 UNL     1      10.418  -8.010  24.665  1.00  0.00     0.013 C 
HETATM   12  C13 UNL     1      11.773  -8.196  24.120  1.00  0.00    -0.006 C 
HETATM   13  C25 UNL     1      12.611  -7.032  24.484  1.00  0.00     0.035 C 
HETATM   14  C26 UNL     1      12.664  -6.923  25.974  1.00  0.00     0.030 C 
HETATM   15  C27 UNL     1      13.319  -8.142  26.547  1.00  0.00     0.038 C 
HETATM   16  C28 UNL     1      13.576  -5.719  26.239  1.00  0.00     0.038 C 
ENDROOT
BRANCH  12  17
HETATM   17  C14 UNL     1      11.710  -8.315  22.599  1.00  0.00     0.015 C 
BRANCH  17  18
HETATM   18  C15 UNL     1      12.462  -7.235  21.921  1.00  0.00     0.120 C 
BRANCH  18  19
HETATM   19  C16 UNL     1      11.454  -6.319  21.194  1.00  0.00     0.290 C 
HETATM   20  O2  UNL     1      10.548  -6.966  20.625  1.00  0.00    -0.257 OA
HETATM   21  N3  UNL     1      11.656  -5.027  21.265  1.00  0.00    -0.388 NA
BRANCH  21  22
HETATM   22  C17 UNL     1      11.866  -3.642  21.338  1.00  0.00     0.159 C 
BRANCH  22  23
HETATM   23  C18 UNL     1      11.250  -3.023  22.549  1.00  0.00     0.064 C 
BRANCH  23  24
HETATM   24  C19 UNL     1      11.852  -3.450  23.853  1.00  0.00    -0.009 C 
HETATM   25  C20 UNL     1      10.839  -3.002  24.930  1.00  0.00     0.005 C 
HETATM   26  C21 UNL     1      11.589  -2.851  26.229  1.00  0.00     0.000 C 
HETATM   27  C22 UNL     1      12.329  -1.516  26.187  1.00  0.00     0.000 C 
HETATM   28  C23 UNL     1      12.815  -1.297  24.744  1.00  0.00     0.000 C 
HETATM   29  C24 UNL     1      13.120  -2.657  24.126  1.00  0.00     0.005 C 
ENDBRANCH  23  24
ENDBRANCH  22  23
ENDBRANCH  21  22
ENDBRANCH  18  19
ENDBRANCH  17  18
ENDBRANCH  12  17
BRANCH   1  30
HETATM   30  C5  UNL     1      10.576  -5.102  30.030  1.00  0.00     0.124 C 
BRANCH  30  31
HETATM   31  C4  UNL     1       9.448  -5.445  30.970  1.00  0.00     0.020 C 
BRANCH  31  32
HETATM   32  C3  UNL     1       9.149  -6.925  30.733  1.00  0.00     0.001 C 
BRANCH  32  33
HETATM   33  C2  UNL     1       8.314  -7.526  31.818  1.00  0.00    -0.004 C 
HETATM   34  C1  UNL     1       8.091  -8.985  31.510  1.00  0.00     0.005 C 
ENDBRANCH  32  33
ENDBRANCH  31  32
ENDBRANCH  30  31
ENDBRANCH   1  30
TORSDOF 10
ENDMDL
MODEL 5
REMARK VINA RESULT: -9.379861474      4.053      7.072
REMARK  10 active torsions:
REMARK  status: ('A' for Active; 'I' for Inactive)
REMARK    1  A    between atoms: C2_2  and  C3_3 
REMARK    2  A    between atoms: C3_3  and  C4_4 
REMARK    3  A    between atoms: C4_4  and  C5_5 
REMARK    4  A    between atoms: C5_5  and  N1_6 
REMARK       I    between atoms: N1_6  and  C6_8 
REMARK       I    between atoms: C6_8  and  N2_10 
REMARK    5  A    between atoms: C13_17  and  C14_18 
REMARK    6  A    between atoms: C14_18  and  C15_19 
REMARK    7  A    between atoms: C15_19  and  C16_20 
REMARK       I    between atoms: C16_20  and  N3_22 
REMARK    8  A    between atoms: N3_22  and  C17_23 
REMARK    9  A    between atoms: C17_23  and  C18_24 
REMARK   10  A    between atoms: C18_24  and  C19_25 
ROOT
HETATM    1  N1  UNL     1      14.482  -9.869  21.133  1.00  0.00    -0.343 N 
ATOM      2  H1  UNL     1      13.907 -10.690  20.941  1.00  0.00     0.164 HD
HETATM    3  C6  UNL     1      13.964  -8.927  22.037  1.00  0.00     0.319 C 
HETATM    4  O1  UNL     1      14.784  -7.931  22.187  1.00  0.00    -0.247 OA
HETATM    5  N2  UNL     1      12.768  -8.918  22.756  1.00  0.00    -0.320 N 
HETATM    6  C7  UNL     1      11.644  -9.770  22.715  1.00  0.00     0.094 C 
HETATM    7  C8  UNL     1      11.289 -10.384  21.376  1.00  0.00     0.026 C 
HETATM    8  C9  UNL     1      11.121  -9.364  20.301  1.00  0.00     0.002 C 
HETATM    9  C10 UNL     1      10.056  -8.392  20.781  1.00  0.00     0.001 C 
HETATM   10  C11 UNL     1       9.407  -8.790  22.060  1.00  0.00     0.007 C 
HETATM   11  C12 UNL     1      10.329  -9.180  23.173  1.00  0.00     0.013 C 
HETATM   12  C13 UNL     1      10.367  -8.130  24.205  1.00  0.00    -0.006 C 
HETATM   13  C25 UNL     1      11.699  -8.123  24.849  1.00  0.00     0.035 C 
HETATM   14  C26 UNL     1      12.737  -7.860  23.807  1.00  0.00     0.030 C 
HETATM   15  C27 UNL     1      12.522  -6.502  23.212  1.00  0.00     0.038 C 
HETATM   16  C28 UNL     1      14.061  -7.840  24.580  1.00  0.00     0.038 C 
ENDROOT
BRANCH  12  17
HETATM   17  C14 UNL     1       9.298  -8.402  25.261  1.00  0.00     0.015 C 
BRANCH  17  18
HETATM   18  C15 UNL     1       9.256  -9.828  25.662  1.00  0.00     0.120 C 
BRANCH  18  19
HETATM   19  C16 UNL     1       9.171  -9.900  27.202  1.00  0.00     0.290 C 
HETATM   20  O2  UNL     1       8.932 -11.057  27.611  1.00  0.00    -0.257 OA
HETATM   21  N3  UNL     1       9.359  -8.788  27.866  1.00  0.00    -0.388 NA
BRANCH  21  22
HETATM   22  C17 UNL     1       9.561  -7.600  28.585  1.00  0.00     0.159 C 
BRANCH  22  23
HETATM   23  C18 UNL     1      10.771  -6.848  28.139  1.00  0.00     0.064 C 
BRANCH  23  24
HETATM   24  C19 UNL     1      10.566  -5.378  27.940  1.00  0.00    -0.009 C 
HETATM   25  C20 UNL     1       9.960  -5.244  26.525  1.00  0.00     0.005 C 
HETATM   26  C21 UNL     1      10.264  -3.854  26.027  1.00  0.00     0.000 C 
HETATM   27  C22 UNL     1      11.713  -3.838  25.546  1.00  0.00     0.000 C 
HETATM   28  C23 UNL     1      12.527  -4.742  26.489  1.00  0.00     0.000 C 
HETATM   29  C24 UNL     1      11.909  -4.668  27.881  1.00  0.00     0.005 C 
ENDBRANCH  23  24
ENDBRANCH  22  23
ENDBRANCH  21  22
ENDBRANCH  18  19
ENDBRANCH  17  18
ENDBRANCH  12  17
BRANCH   1  30
HETATM   30  C5  UNL     1      15.757  -9.785  20.446  1.00  0.00     0.124 C 
BRANCH  30  31
HETATM   31  C4  UNL     1      16.096 -11.027  19.660  1.00  0.00     0.020 C 
BRANCH  31  32
HETATM   32  C3  UNL     1      17.614 -10.996  19.475  1.00  0.00     0.001 C 
BRANCH  32  33
HETATM   33  C2  UNL     1      18.323 -10.364  20.630  1.00  0.00    -0.004 C 
HETATM   34  C1  UNL     1      19.787 -10.716  20.554  1.00  0.00     0.005 C 
ENDBRANCH  32  33
ENDBRANCH  31  32
ENDBRANCH  30  31
ENDBRANCH   1  30
TORSDOF 10
ENDMDL
