MODEL 1
REMARK VINA RESULT: -9.013904885      0.000      0.000
REMARK  5 active torsions:
REMARK  status: ('A' for Active; 'I' for Inactive)
REMARK    1  A    between atoms: C2_2  and  O1_5 
REMARK    2  A    between atoms: O1_5  and  C5_6 
REMARK       I    between atoms: C5_6  and  N1_8 
REMARK    3  A    between atoms: N1_8  and  C6_10 
REMARK    4  A    between atoms: C19_35  and  C20_36 
REMARK    5  A    between atoms: C20_36  and  C21_37 
ROOT
HETATM    1  C6  UNL     1      11.643  -8.553  23.067  1.00  0.00     0.212 C 
HETATM    2  C7  UNL     1      12.860  -9.208  22.447  1.00  0.00     0.267 C 
HETATM    3  N2  UNL     1      14.012  -8.351  22.451  1.00  0.00    -0.071 N 
ATOM      4  H21 UNL     1      14.411  -8.232  23.382  1.00  0.00     0.277 HD
ATOM      5  H22 UNL     1      13.778  -7.374  22.276  1.00  0.00     0.277 HD
HETATM    6  C8  UNL     1      14.970  -8.882  21.491  1.00  0.00     0.258 C 
HETATM    7  C9  UNL     1      16.248  -9.318  22.166  1.00  0.00     0.195 C 
HETATM    8  O3  UNL     1      16.536  -8.532  23.275  1.00  0.00    -0.387 OA
HETATM    9  C10 UNL     1      17.921  -8.509  23.431  1.00  0.00     0.193 C 
HETATM   10  C11 UNL     1      18.310  -7.715  24.667  1.00  0.00     0.193 C 
HETATM   11  O4  UNL     1      17.347  -7.843  25.671  1.00  0.00    -0.387 OA
HETATM   12  C12 UNL     1      17.979  -7.413  26.860  1.00  0.00     0.193 C 
HETATM   13  C13 UNL     1      17.023  -7.465  28.029  1.00  0.00     0.193 C 
HETATM   14  O5  UNL     1      16.735  -6.183  28.508  1.00  0.00    -0.387 OA
HETATM   15  C14 UNL     1      16.060  -6.305  29.721  1.00  0.00     0.195 C 
HETATM   16  C15 UNL     1      15.356  -4.995  30.004  1.00  0.00     0.258 C 
HETATM   17  N3  UNL     1      14.798  -4.440  28.786  1.00  0.00    -0.073 N 
ATOM     18  H31 UNL     1      15.460  -4.505  28.013  1.00  0.00     0.277 HD
ATOM     19  H32 UNL     1      14.718  -3.425  28.846  1.00  0.00     0.277 HD
HETATM   20  C16 UNL     1      13.532  -5.044  28.442  1.00  0.00     0.234 C 
HETATM   21  C17 UNL     1      13.506  -5.260  26.951  1.00  0.00     0.055 C 
HETATM   22  C18 UNL     1      12.374  -6.200  26.542  1.00  0.00     0.237 C 
HETATM   23  N4  UNL     1      12.272  -6.239  25.118  1.00  0.00    -0.048 N 
ATOM     24  H41 UNL     1      12.551  -7.154  24.763  1.00  0.00     0.280 HD
ATOM     25  H42 UNL     1      12.996  -5.661  24.690  1.00  0.00     0.280 HD
HETATM   26  C19 UNL     1      10.980  -5.879  24.621  1.00  0.00     0.330 C 
HETATM   27  O6  UNL     1      10.771  -6.265  23.295  1.00  0.00    -0.286 OA
HETATM   28  C24 UNL     1      11.429  -7.184  22.550  1.00  0.00     0.285 C 
HETATM   29  O7  UNL     1      11.876  -6.923  21.412  1.00  0.00    -0.263 OA
ENDROOT
BRANCH   1  30
HETATM   30  N1  UNL     1      10.509  -9.339  22.634  1.00  0.00    -0.321 N 
HETATM   31  C5  UNL     1      10.608 -10.075  21.428  1.00  0.00     0.362 C 
HETATM   32  O2  UNL     1      11.665 -10.040  20.753  1.00  0.00    -0.238 OA
ATOM     33  H1  UNL     1       9.652  -9.364  23.188  1.00  0.00     0.165 HD
BRANCH  31  34
HETATM   34  O1  UNL     1       9.573 -10.846  20.953  1.00  0.00    -0.294 OA
BRANCH  34  35
HETATM   35  C2  UNL     1       8.240 -10.465  20.826  1.00  0.00     0.061 C 
HETATM   36  C1  UNL     1       7.497 -10.430  22.141  1.00  0.00     0.046 C 
HETATM   37  C3  UNL     1       7.512 -11.435  19.908  1.00  0.00     0.046 C 
HETATM   38  C4  UNL     1       8.198  -9.060  20.263  1.00  0.00     0.046 C 
ENDBRANCH  34  35
ENDBRANCH  31  34
ENDBRANCH   1  30
BRANCH  26  39
HETATM   39  C20 UNL     1      10.737  -4.380  24.683  1.00  0.00     0.066 C 
BRANCH  39  40
HETATM   40  C21 UNL     1      11.697  -3.632  23.788  1.00  0.00    -0.010 A 
HETATM   41  C22 UNL     1      11.168  -2.788  22.683  1.00  0.00     0.005 A 
HETATM   42  C23 UNL     1      11.662  -2.119  23.912  1.00  0.00     0.005 A 
ENDBRANCH  39  40
ENDBRANCH  26  39
TORSDOF 5
ENDMDL
MODEL 2
REMARK VINA RESULT: -8.937529323      7.373     11.858
REMARK  5 active torsions:
REMARK  status: ('A' for Active; 'I' for Inactive)
REMARK    1  A    between atoms: C2_2  and  O1_5 
REMARK    2  A    between atoms: O1_5  and  C5_6 
REMARK       I    between atoms: C5_6  and  N1_8 
REMARK    3  A    between atoms: N1_8  and  C6_10 
REMARK    4  A    between atoms: C19_35  and  C20_36 
REMARK    5  A    between atoms: C20_36  and  C21_37 
ROOT
HETATM    1  C6  UNL     1      20.806 -12.427  17.121  1.00  0.00     0.212 C 
HETATM    2  C7  UNL     1      19.387 -12.479  16.593  1.00  0.00     0.267 C 
HETATM    3  N2  UNL     1      18.434 -12.839  17.604  1.00  0.00    -0.071 N 
ATOM      4  H21 UNL     1      18.275 -12.092  18.279  1.00  0.00     0.277 HD
ATOM      5  H22 UNL     1      18.793 -13.538  18.255  1.00  0.00     0.277 HD
HETATM    6  C8  UNL     1      17.211 -13.267  16.938  1.00  0.00     0.258 C 
HETATM    7  C9  UNL     1      16.054 -12.352  17.261  1.00  0.00     0.195 C 
HETATM    8  O3  UNL     1      16.159 -11.828  18.544  1.00  0.00    -0.387 OA
HETATM    9  C10 UNL     1      14.867 -11.587  19.010  1.00  0.00     0.193 C 
HETATM   10  C11 UNL     1      14.903 -10.953  20.390  1.00  0.00     0.193 C 
HETATM   11  O4  UNL     1      16.023 -10.131  20.537  1.00  0.00    -0.387 OA
HETATM   12  C12 UNL     1      15.752  -9.316  21.660  1.00  0.00     0.193 C 
HETATM   13  C13 UNL     1      16.914  -8.398  21.955  1.00  0.00     0.193 C 
HETATM   14  O5  UNL     1      17.522  -8.721  23.173  1.00  0.00    -0.387 OA
HETATM   15  C14 UNL     1      18.412  -7.702  23.507  1.00  0.00     0.195 C 
HETATM   16  C15 UNL     1      19.381  -8.241  24.538  1.00  0.00     0.258 C 
HETATM   17  N3  UNL     1      19.750  -9.609  24.229  1.00  0.00    -0.073 N 
ATOM     18  H31 UNL     1      18.934 -10.160  23.960  1.00  0.00     0.277 HD
ATOM     19  H32 UNL     1      20.018 -10.118  25.071  1.00  0.00     0.277 HD
HETATM   20  C16 UNL     1      20.783  -9.680  23.222  1.00  0.00     0.234 C 
HETATM   21  C17 UNL     1      20.445 -10.810  22.284  1.00  0.00     0.055 C 
HETATM   22  C18 UNL     1      21.277 -10.740  21.005  1.00  0.00     0.237 C 
HETATM   23  N4  UNL     1      21.057 -11.917  20.225  1.00  0.00    -0.048 N 
ATOM     24  H41 UNL     1      20.551 -11.691  19.369  1.00  0.00     0.280 HD
ATOM     25  H42 UNL     1      20.372 -12.524  20.675  1.00  0.00     0.280 HD
HETATM   26  C19 UNL     1      22.253 -12.643  19.925  1.00  0.00     0.330 C 
HETATM   27  O6  UNL     1      22.097 -13.558  18.882  1.00  0.00    -0.286 OA
HETATM   28  C24 UNL     1      21.141 -13.622  17.925  1.00  0.00     0.285 C 
HETATM   29  O7  UNL     1      20.510 -14.673  17.683  1.00  0.00    -0.263 OA
ENDROOT
BRANCH   1  30
HETATM   30  N1  UNL     1      21.662 -12.461  15.955  1.00  0.00    -0.321 N 
HETATM   31  C5  UNL     1      22.873 -11.728  15.974  1.00  0.00     0.362 C 
HETATM   32  O2  UNL     1      23.191 -11.063  16.988  1.00  0.00    -0.238 OA
ATOM     33  H1  UNL     1      21.396 -13.005  15.133  1.00  0.00     0.165 HD
BRANCH  31  34
HETATM   34  O1  UNL     1      23.737 -11.714  14.904  1.00  0.00    -0.294 OA
BRANCH  34  35
HETATM   35  C2  UNL     1      23.821 -10.739  13.913  1.00  0.00     0.061 C 
HETATM   36  C1  UNL     1      23.313  -9.387  14.356  1.00  0.00     0.046 C 
HETATM   37  C3  UNL     1      23.007 -11.166  12.701  1.00  0.00     0.046 C 
HETATM   38  C4  UNL     1      25.278 -10.560  13.544  1.00  0.00     0.046 C 
ENDBRANCH  34  35
ENDBRANCH  31  34
ENDBRANCH   1  30
BRANCH  26  39
HETATM   39  C20 UNL     1      22.765 -13.428  21.122  1.00  0.00     0.066 C 
BRANCH  39  40
HETATM   40  C21 UNL     1      21.704 -14.359  21.660  1.00  0.00    -0.010 A 
HETATM   41  C22 UNL     1      22.084 -15.433  22.617  1.00  0.00     0.005 A 
HETATM   42  C23 UNL     1      21.405 -14.223  23.142  1.00  0.00     0.005 A 
ENDBRANCH  39  40
ENDBRANCH  26  39
TORSDOF 5
ENDMDL
MODEL 3
REMARK VINA RESULT: -8.901098474      8.445     11.469
REMARK  5 active torsions:
REMARK  status: ('A' for Active; 'I' for Inactive)
REMARK    1  A    between atoms: C2_2  and  O1_5 
REMARK    2  A    between atoms: O1_5  and  C5_6 
REMARK       I    between atoms: C5_6  and  N1_8 
REMARK    3  A    between atoms: N1_8  and  C6_10 
REMARK    4  A    between atoms: C19_35  and  C20_36 
REMARK    5  A    between atoms: C20_36  and  C21_37 
ROOT
HETATM    1  C6  UNL     1      19.701 -13.096  18.014  1.00  0.00     0.212 C 
HETATM    2  C7  UNL     1      20.466 -13.969  17.039  1.00  0.00     0.267 C 
HETATM    3  N2  UNL     1      21.867 -14.037  17.340  1.00  0.00    -0.071 N 
ATOM      4  H21 UNL     1      22.066 -14.595  18.170  1.00  0.00     0.277 HD
ATOM      5  H22 UNL     1      22.242 -13.150  17.678  1.00  0.00     0.277 HD
HETATM    6  C8  UNL     1      22.559 -14.525  16.154  1.00  0.00     0.258 C 
HETATM    7  C9  UNL     1      23.224 -15.856  16.409  1.00  0.00     0.195 C 
HETATM    8  O3  UNL     1      23.656 -15.969  17.725  1.00  0.00    -0.387 OA
HETATM    9  C10 UNL     1      24.765 -16.814  17.736  1.00  0.00     0.193 C 
HETATM   10  C11 UNL     1      25.258 -17.036  19.156  1.00  0.00     0.193 C 
HETATM   11  O4  UNL     1      24.198 -17.019  20.064  1.00  0.00    -0.387 OA
HETATM   12  C12 UNL     1      24.701 -17.611  21.246  1.00  0.00     0.193 C 
HETATM   13  C13 UNL     1      23.654 -17.618  22.335  1.00  0.00     0.193 C 
HETATM   14  O5  UNL     1      24.015 -16.780  23.395  1.00  0.00    -0.387 OA
HETATM   15  C14 UNL     1      23.149 -17.017  24.461  1.00  0.00     0.195 C 
HETATM   16  C15 UNL     1      23.228 -15.835  25.404  1.00  0.00     0.258 C 
HETATM   17  N3  UNL     1      23.324 -14.593  24.662  1.00  0.00    -0.073 N 
ATOM     18  H31 UNL     1      23.988 -14.674  23.891  1.00  0.00     0.277 HD
ATOM     19  H32 UNL     1      23.797 -13.873  25.208  1.00  0.00     0.277 HD
HETATM   20  C16 UNL     1      22.036 -14.135  24.197  1.00  0.00     0.234 C 
HETATM   21  C17 UNL     1      22.205 -13.608  22.796  1.00  0.00     0.055 C 
HETATM   22  C18 UNL     1      20.857 -13.429  22.100  1.00  0.00     0.237 C 
HETATM   23  N4  UNL     1      21.046 -12.767  20.849  1.00  0.00    -0.048 N 
ATOM     24  H41 UNL     1      20.851 -13.400  20.074  1.00  0.00     0.280 HD
ATOM     25  H42 UNL     1      22.037 -12.591  20.681  1.00  0.00     0.280 HD
HETATM   26  C19 UNL     1      20.291 -11.559  20.714  1.00  0.00     0.330 C 
HETATM   27  O6  UNL     1      20.184 -11.119  19.394  1.00  0.00    -0.286 OA
HETATM   28  C24 UNL     1      20.375 -11.799  18.239  1.00  0.00     0.285 C 
HETATM   29  O7  UNL     1      21.115 -11.370  17.328  1.00  0.00    -0.263 OA
ENDROOT
BRANCH   1  30
HETATM   30  N1  UNL     1      18.440 -12.799  17.371  1.00  0.00    -0.321 N 
HETATM   31  C5  UNL     1      17.243 -12.942  18.114  1.00  0.00     0.362 C 
HETATM   32  O2  UNL     1      17.286 -13.321  19.309  1.00  0.00    -0.238 OA
ATOM     33  H1  UNL     1      18.413 -12.492  16.398  1.00  0.00     0.165 HD
BRANCH  31  34
HETATM   34  O1  UNL     1      16.008 -12.678  17.571  1.00  0.00    -0.294 OA
BRANCH  34  35
HETATM   35  C2  UNL     1      15.398 -13.354  16.518  1.00  0.00     0.061 C 
HETATM   36  C1  UNL     1      15.762 -14.820  16.454  1.00  0.00     0.046 C 
HETATM   37  C3  UNL     1      15.800 -12.718  15.196  1.00  0.00     0.046 C 
HETATM   38  C4  UNL     1      13.898 -13.284  16.712  1.00  0.00     0.046 C 
ENDBRANCH  34  35
ENDBRANCH  31  34
ENDBRANCH   1  30
BRANCH  26  39
HETATM   39  C20 UNL     1      20.893 -10.413  21.511  1.00  0.00     0.066 C 
BRANCH  39  40
HETATM   40  C21 UNL     1      20.073 -10.112  22.742  1.00  0.00    -0.010 A 
HETATM   41  C22 UNL     1      20.740 -10.022  24.069  1.00  0.00     0.005 A 
HETATM   42  C23 UNL     1      20.338  -8.765  23.391  1.00  0.00     0.005 A 
ENDBRANCH  39  40
ENDBRANCH  26  39
TORSDOF 5
ENDMDL
MODEL 4
REMARK VINA RESULT: -8.677850466      2.905      7.267
REMARK  5 active torsions:
REMARK  status: ('A' for Active; 'I' for Inactive)
REMARK    1  A    between atoms: C2_2  and  O1_5 
REMARK    2  A    between atoms: O1_5  and  C5_6 
REMARK       I    between atoms: C5_6  and  N1_8 
REMARK    3  A    between atoms: N1_8  and  C6_10 
REMARK    4  A    between atoms: C19_35  and  C20_36 
REMARK    5  A    between atoms: C20_36  and  C21_37 
ROOT
HETATM    1  C6  UNL     1      14.249  -5.788  23.494  1.00  0.00     0.212 C 
HETATM    2  C7  UNL     1      15.668  -5.562  23.973  1.00  0.00     0.267 C 
HETATM    3  N2  UNL     1      16.332  -6.782  24.332  1.00  0.00    -0.071 N 
ATOM      4  H21 UNL     1      16.577  -7.351  23.522  1.00  0.00     0.277 HD
ATOM      5  H22 UNL     1      15.711  -7.451  24.786  1.00  0.00     0.277 HD
HETATM    6  C8  UNL     1      17.488  -6.441  25.151  1.00  0.00     0.258 C 
HETATM    7  C9  UNL     1      18.781  -6.836  24.479  1.00  0.00     0.195 C 
HETATM    8  O3  UNL     1      18.625  -7.977  23.700  1.00  0.00    -0.387 OA
HETATM    9  C10 UNL     1      19.850  -8.642  23.672  1.00  0.00     0.193 C 
HETATM   10  C11 UNL     1      19.773  -9.873  22.785  1.00  0.00     0.193 C 
HETATM   11  O4  UNL     1      18.896  -9.670  21.717  1.00  0.00    -0.387 OA
HETATM   12  C12 UNL     1      19.199 -10.683  20.779  1.00  0.00     0.193 C 
HETATM   13  C13 UNL     1      18.284 -10.600  19.580  1.00  0.00     0.193 C 
HETATM   14  O5  UNL     1      17.438 -11.711  19.507  1.00  0.00    -0.387 OA
HETATM   15  C14 UNL     1      16.803 -11.703  18.266  1.00  0.00     0.195 C 
HETATM   16  C15 UNL     1      15.584 -12.598  18.354  1.00  0.00     0.258 C 
HETATM   17  N3  UNL     1      14.923 -12.439  19.635  1.00  0.00    -0.073 N 
ATOM     18  H31 UNL     1      15.599 -12.423  20.400  1.00  0.00     0.277 HD
ATOM     19  H32 UNL     1      14.409 -13.281  19.891  1.00  0.00     0.277 HD
HETATM   20  C16 UNL     1      14.070 -11.274  19.667  1.00  0.00     0.234 C 
HETATM   21  C17 UNL     1      14.240 -10.608  21.007  1.00  0.00     0.055 C 
HETATM   22  C18 UNL     1      13.656  -9.196  21.006  1.00  0.00     0.237 C 
HETATM   23  N4  UNL     1      13.677  -8.666  22.333  1.00  0.00    -0.048 N 
ATOM     24  H41 UNL     1      14.347  -7.901  22.404  1.00  0.00     0.280 HD
ATOM     25  H42 UNL     1      14.105  -9.330  22.978  1.00  0.00     0.280 HD
HETATM   26  C19 UNL     1      12.392  -8.257  22.812  1.00  0.00     0.330 C 
HETATM   27  O6  UNL     1      12.460  -7.419  23.927  1.00  0.00    -0.286 OA
HETATM   28  C24 UNL     1      13.499  -6.688  24.396  1.00  0.00     0.285 C 
HETATM   29  O7  UNL     1      13.864  -6.740  25.590  1.00  0.00    -0.263 OA
ENDROOT
BRANCH   1  30
HETATM   30  N1  UNL     1      13.598  -4.498  23.564  1.00  0.00    -0.321 N 
HETATM   31  C5  UNL     1      12.678  -4.141  22.549  1.00  0.00     0.362 C 
HETATM   32  O2  UNL     1      12.437  -4.936  21.608  1.00  0.00    -0.238 OA
ATOM     33  H1  UNL     1      13.800  -3.857  24.331  1.00  0.00     0.165 HD
BRANCH  31  34
HETATM   34  O1  UNL     1      12.021  -2.933  22.548  1.00  0.00    -0.294 OA
BRANCH  34  35
HETATM   35  C2  UNL     1      11.203  -2.428  23.555  1.00  0.00     0.061 C 
HETATM   36  C1  UNL     1      11.957  -1.649  24.607  1.00  0.00     0.046 C 
HETATM   37  C3  UNL     1      10.480  -3.570  24.253  1.00  0.00     0.046 C 
HETATM   38  C4  UNL     1      10.212  -1.470  22.928  1.00  0.00     0.046 C 
ENDBRANCH  34  35
ENDBRANCH  31  34
ENDBRANCH   1  30
BRANCH  26  39
HETATM   39  C20 UNL     1      11.521  -9.439  23.205  1.00  0.00     0.066 C 
BRANCH  39  40
HETATM   40  C21 UNL     1      10.155  -8.985  23.660  1.00  0.00    -0.010 A 
HETATM   41  C22 UNL     1       9.039  -8.905  22.679  1.00  0.00     0.005 A 
HETATM   42  C23 UNL     1       9.069 -10.045  23.628  1.00  0.00     0.005 A 
ENDBRANCH  39  40
ENDBRANCH  26  39
TORSDOF 5
ENDMDL
MODEL 5
REMARK VINA RESULT: -8.657449366     10.699     14.688
REMARK  5 active torsions:
REMARK  status: ('A' for Active; 'I' for Inactive)
REMARK    1  A    between atoms: C2_2  and  O1_5 
REMARK    2  A    between atoms: O1_5  and  C5_6 
REMARK       I    between atoms: C5_6  and  N1_8 
REMARK    3  A    between atoms: N1_8  and  C6_10 
REMARK    4  A    between atoms: C19_35  and  C20_36 
REMARK    5  A    between atoms: C20_36  and  C21_37 
ROOT
HETATM    1  C6  UNL     1      20.237 -12.657  16.986  1.00  0.00     0.212 C 
HETATM    2  C7  UNL     1      20.820 -11.669  15.996  1.00  0.00     0.267 C 
HETATM    3  N2  UNL     1      22.255 -11.663  16.000  1.00  0.00    -0.071 N 
ATOM      4  H21 UNL     1      22.654 -12.499  15.573  1.00  0.00     0.277 HD
ATOM      5  H22 UNL     1      22.648 -11.786  16.934  1.00  0.00     0.277 HD
HETATM    6  C8  UNL     1      22.702 -10.434  15.359  1.00  0.00     0.258 C 
HETATM    7  C9  UNL     1      23.473 -10.718  14.092  1.00  0.00     0.195 C 
HETATM    8  O3  UNL     1      24.181 -11.910  14.180  1.00  0.00    -0.387 OA
HETATM    9  C10 UNL     1      25.308 -11.795  13.368  1.00  0.00     0.193 C 
HETATM   10  C11 UNL     1      26.103 -13.090  13.365  1.00  0.00     0.193 C 
HETATM   11  O4  UNL     1      25.261 -14.197  13.492  1.00  0.00    -0.387 OA
HETATM   12  C12 UNL     1      26.034 -15.311  13.089  1.00  0.00     0.193 C 
HETATM   13  C13 UNL     1      25.245 -16.592  13.219  1.00  0.00     0.193 C 
HETATM   14  O5  UNL     1      25.781 -17.422  14.209  1.00  0.00    -0.387 OA
HETATM   15  C14 UNL     1      25.175 -18.673  14.112  1.00  0.00     0.195 C 
HETATM   16  C15 UNL     1      25.393 -19.405  15.420  1.00  0.00     0.258 C 
HETATM   17  N3  UNL     1      25.266 -18.497  16.543  1.00  0.00    -0.073 N 
ATOM     18  H31 UNL     1      25.753 -17.618  16.364  1.00  0.00     0.277 HD
ATOM     19  H32 UNL     1      25.807 -18.822  17.344  1.00  0.00     0.277 HD
HETATM   20  C16 UNL     1      23.886 -18.265  16.903  1.00  0.00     0.234 C 
HETATM   21  C17 UNL     1      23.726 -16.802  17.224  1.00  0.00     0.055 C 
HETATM   22  C18 UNL     1      22.253 -16.399  17.273  1.00  0.00     0.237 C 
HETATM   23  N4  UNL     1      22.137 -15.058  17.750  1.00  0.00    -0.048 N 
ATOM     24  H41 UNL     1      21.814 -14.439  17.007  1.00  0.00     0.280 HD
ATOM     25  H42 UNL     1      23.059 -14.656  17.919  1.00  0.00     0.280 HD
HETATM   26  C19 UNL     1      21.310 -14.927  18.910  1.00  0.00     0.330 C 
HETATM   27  O6  UNL     1      20.902 -13.614  19.152  1.00  0.00    -0.286 OA
HETATM   28  C24 UNL     1      20.877 -12.549  18.315  1.00  0.00     0.285 C 
HETATM   29  O7  UNL     1      21.383 -11.449  18.621  1.00  0.00    -0.263 OA
ENDROOT
BRANCH   1  30
HETATM   30  N1  UNL     1      18.855 -12.271  17.161  1.00  0.00    -0.321 N 
HETATM   31  C5  UNL     1      17.863 -13.281  17.214  1.00  0.00     0.362 C 
HETATM   32  O2  UNL     1      18.188 -14.488  17.110  1.00  0.00    -0.238 OA
ATOM     33  H1  UNL     1      18.598 -11.287  17.244  1.00  0.00     0.165 HD
BRANCH  31  34
HETATM   34  O1  UNL     1      16.530 -12.990  17.379  1.00  0.00    -0.294 OA
BRANCH  34  35
HETATM   35  C2  UNL     1      15.522 -13.134  16.430  1.00  0.00     0.061 C 
HETATM   36  C1  UNL     1      15.035 -14.556  16.281  1.00  0.00     0.046 C 
HETATM   37  C3  UNL     1      16.024 -12.671  15.070  1.00  0.00     0.046 C 
HETATM   38  C4  UNL     1      14.331 -12.309  16.870  1.00  0.00     0.046 C 
ENDBRANCH  34  35
ENDBRANCH  31  34
ENDBRANCH   1  30
BRANCH  26  39
HETATM   39  C20 UNL     1      22.009 -15.407  20.172  1.00  0.00     0.066 C 
BRANCH  39  40
HETATM   40  C21 UNL     1      21.903 -14.386  21.279  1.00  0.00    -0.010 A 
HETATM   41  C22 UNL     1      21.970 -14.827  22.698  1.00  0.00     0.005 A 
HETATM   42  C23 UNL     1      23.163 -14.178  22.100  1.00  0.00     0.005 A 
ENDBRANCH  39  40
ENDBRANCH  26  39
TORSDOF 5
ENDMDL
