MODEL 1
REMARK VINA RESULT: -8.334255239      0.000      0.000
REMARK  5 active torsions:
REMARK  status: ('A' for Active; 'I' for Inactive)
REMARK       I    between atoms: N1_2  and  C2_4 
REMARK    1  A    between atoms: C2_4  and  C3_6 
REMARK    2  A    between atoms: C3_6  and  C4_7 
REMARK    3  A    between atoms: C3_6  and  O3_40 
REMARK    4  A    between atoms: C4_7  and  N2_8 
REMARK    5  A    between atoms: O3_40  and  C23_41 
ROOT
HETATM    1  N2  UNL     1      17.842  -7.867  23.570  1.00  0.00     0.094 N 
HETATM    2  C5  UNL     1      17.339  -7.566  24.871  1.00  0.00     0.300 C 
HETATM    3  C6  UNL     1      17.098  -6.075  24.969  1.00  0.00     0.262 C 
HETATM    4  N3  UNL     1      15.831  -5.794  25.646  1.00  0.00    -0.072 N 
ATOM      5  H31 UNL     1      15.044  -6.301  25.241  1.00  0.00     0.277 HD
ATOM      6  H32 UNL     1      15.487  -4.850  25.470  1.00  0.00     0.277 HD
HETATM    7  C7  UNL     1      16.018  -6.071  27.044  1.00  0.00     0.259 C 
HETATM    8  C8  UNL     1      14.745  -6.180  27.817  1.00  0.00     0.260 C 
HETATM    9  N4  UNL     1      13.775  -5.196  27.435  1.00  0.00    -0.070 N 
ATOM     10  H41 UNL     1      13.716  -5.108  26.420  1.00  0.00     0.277 HD
ATOM     11  H42 UNL     1      14.095  -4.254  27.660  1.00  0.00     0.277 HD
HETATM   12  C9  UNL     1      12.474  -5.462  28.015  1.00  0.00     0.270 C 
HETATM   13  C10 UNL     1      11.633  -6.461  27.253  1.00  0.00    -0.033 A 
HETATM   14  C11 UNL     1      10.763  -6.046  26.279  1.00  0.00     0.009 A 
HETATM   15  C12 UNL     1       9.950  -6.945  25.536  1.00  0.00     0.009 A 
HETATM   16  C13 UNL     1       9.990  -8.304  25.751  1.00  0.00    -0.033 A 
HETATM   17  C14 UNL     1      10.867  -8.705  26.730  1.00  0.00     0.009 A 
HETATM   18  C15 UNL     1      11.686  -7.813  27.480  1.00  0.00     0.009 A 
HETATM   19  C16 UNL     1       9.147  -9.294  24.989  1.00  0.00     0.270 C 
HETATM   20  N5  UNL     1       9.165  -9.227  23.542  1.00  0.00    -0.069 N 
ATOM     21  H51 UNL     1       9.188  -8.261  23.218  1.00  0.00     0.277 HD
ATOM     22  H52 UNL     1       8.266  -9.509  23.149  1.00  0.00     0.277 HD
HETATM   23  C17 UNL     1      10.250  -9.998  22.971  1.00  0.00     0.258 C 
HETATM   24  C18 UNL     1      10.819  -9.325  21.762  1.00  0.00     0.195 C 
HETATM   25  O2  UNL     1      12.187  -9.082  21.887  1.00  0.00    -0.388 OA
HETATM   26  C19 UNL     1      12.874 -10.261  21.532  1.00  0.00     0.195 C 
HETATM   27  C20 UNL     1      14.274  -9.824  21.103  1.00  0.00     0.258 C 
HETATM   28  N6  UNL     1      14.683  -8.749  21.985  1.00  0.00    -0.071 N 
ATOM     29  H61 UNL     1      14.008  -8.566  22.728  1.00  0.00     0.277 HD
ATOM     30  H62 UNL     1      14.645  -7.833  21.539  1.00  0.00     0.277 HD
HETATM   31  C21 UNL     1      16.001  -9.072  22.492  1.00  0.00     0.262 C 
HETATM   32  C22 UNL     1      16.767  -7.767  22.605  1.00  0.00     0.300 C 
ENDROOT
BRANCH   1  33
HETATM   33  C4  UNL     1      18.539  -9.068  23.393  1.00  0.00     0.314 C 
BRANCH  33  34
HETATM   34  C3  UNL     1      19.990  -9.131  23.748  1.00  0.00     0.242 C 
BRANCH  34  35
HETATM   35  C2  UNL     1      20.643  -9.996  22.675  1.00  0.00     0.248 C 
HETATM   36  N1  UNL     1      19.994 -10.372  21.490  1.00  0.00    -0.363 N 
HETATM   37  C1  UNL     1      20.697 -11.192  20.530  1.00  0.00     0.149 C 
ATOM     38  H1  UNL     1      19.037 -10.070  21.308  1.00  0.00     0.162 HD
HETATM   39  O1  UNL     1      21.816 -10.385  22.869  1.00  0.00    -0.271 OA
ENDBRANCH  34  35
BRANCH  34  40
HETATM   40  O3  UNL     1      20.642  -8.010  23.987  1.00  0.00    -0.365 OA
BRANCH  40  41
HETATM   41  C23 UNL     1      21.194  -7.590  25.108  1.00  0.00     0.051 C 
HETATM   42  C24 UNL     1      20.644  -8.198  26.388  1.00  0.00     0.045 C 
HETATM   43  C25 UNL     1      22.702  -7.631  25.234  1.00  0.00     0.045 C 
HETATM   44  C26 UNL     1      20.872  -6.086  25.247  1.00  0.00     0.045 C 
ENDBRANCH  40  41
ENDBRANCH  34  40
ENDBRANCH  33  34
ENDBRANCH   1  33
TORSDOF 5
ENDMDL
MODEL 2
REMARK VINA RESULT: -8.009255735      1.860      2.161
REMARK  5 active torsions:
REMARK  status: ('A' for Active; 'I' for Inactive)
REMARK       I    between atoms: N1_2  and  C2_4 
REMARK    1  A    between atoms: C2_4  and  C3_6 
REMARK    2  A    between atoms: C3_6  and  C4_7 
REMARK    3  A    between atoms: C3_6  and  O3_40 
REMARK    4  A    between atoms: C4_7  and  N2_8 
REMARK    5  A    between atoms: O3_40  and  C23_41 
ROOT
HETATM    1  N2  UNL     1      17.628  -7.270  25.342  1.00  0.00     0.094 N 
HETATM    2  C5  UNL     1      16.855  -7.207  26.539  1.00  0.00     0.300 C 
HETATM    3  C6  UNL     1      16.459  -5.769  26.793  1.00  0.00     0.262 C 
HETATM    4  N3  UNL     1      15.065  -5.679  27.226  1.00  0.00    -0.072 N 
ATOM      5  H31 UNL     1      14.423  -6.166  26.601  1.00  0.00     0.277 HD
ATOM      6  H32 UNL     1      14.673  -4.743  27.116  1.00  0.00     0.277 HD
HETATM    7  C7  UNL     1      15.001  -6.158  28.580  1.00  0.00     0.259 C 
HETATM    8  C8  UNL     1      13.618  -6.468  29.050  1.00  0.00     0.260 C 
HETATM    9  N4  UNL     1      12.652  -5.501  28.617  1.00  0.00    -0.070 N 
ATOM     10  H41 UNL     1      12.784  -5.260  27.634  1.00  0.00     0.277 HD
ATOM     11  H42 UNL     1      12.831  -4.587  29.032  1.00  0.00     0.277 HD
HETATM   12  C9  UNL     1      11.294  -5.938  28.873  1.00  0.00     0.270 C 
HETATM   13  C10 UNL     1      10.716  -6.857  27.821  1.00  0.00    -0.033 A 
HETATM   14  C11 UNL     1      10.017  -6.352  26.756  1.00  0.00     0.009 A 
HETATM   15  C12 UNL     1       9.453  -7.176  25.743  1.00  0.00     0.009 A 
HETATM   16  C13 UNL     1       9.579  -8.546  25.770  1.00  0.00    -0.033 A 
HETATM   17  C14 UNL     1      10.283  -9.038  26.843  1.00  0.00     0.009 A 
HETATM   18  C15 UNL     1      10.852  -8.222  27.863  1.00  0.00     0.009 A 
HETATM   19  C16 UNL     1       8.998  -9.457  24.720  1.00  0.00     0.270 C 
HETATM   20  N5  UNL     1       9.290  -9.165  23.331  1.00  0.00    -0.069 N 
ATOM     21  H51 UNL     1       9.284  -8.160  23.157  1.00  0.00     0.277 HD
ATOM     22  H52 UNL     1       8.516  -9.439  22.726  1.00  0.00     0.277 HD
HETATM   23  C17 UNL     1      10.534  -9.765  22.895  1.00  0.00     0.258 C 
HETATM   24  C18 UNL     1      11.261  -8.877  21.936  1.00  0.00     0.195 C 
HETATM   25  O2  UNL     1      12.550  -8.569  22.374  1.00  0.00    -0.388 OA
HETATM   26  C19 UNL     1      13.401  -9.631  22.007  1.00  0.00     0.195 C 
HETATM   27  C20 UNL     1      14.810  -9.044  21.942  1.00  0.00     0.258 C 
HETATM   28  N6  UNL     1      14.936  -8.095  23.031  1.00  0.00    -0.071 N 
ATOM     29  H61 UNL     1      14.115  -8.074  23.636  1.00  0.00     0.277 HD
ATOM     30  H62 UNL     1      14.899  -7.125  22.718  1.00  0.00     0.277 HD
HETATM   31  C21 UNL     1      16.155  -8.408  23.749  1.00  0.00     0.262 C 
HETATM   32  C22 UNL     1      16.757  -7.090  24.198  1.00  0.00     0.300 C 
ENDROOT
BRANCH   1  33
HETATM   33  C4  UNL     1      18.456  -8.380  25.146  1.00  0.00     0.314 C 
BRANCH  33  34
HETATM   34  C3  UNL     1      19.777  -8.440  25.844  1.00  0.00     0.242 C 
BRANCH  34  35
HETATM   35  C2  UNL     1      19.923  -9.877  26.334  1.00  0.00     0.248 C 
HETATM   36  N1  UNL     1      20.877 -10.771  25.824  1.00  0.00    -0.363 N 
HETATM   37  C1  UNL     1      20.940 -12.113  26.354  1.00  0.00     0.149 C 
ATOM     38  H1  UNL     1      21.517 -10.476  25.088  1.00  0.00     0.162 HD
HETATM   39  O1  UNL     1      19.150 -10.271  27.236  1.00  0.00    -0.271 OA
ENDBRANCH  34  35
BRANCH  34  40
HETATM   40  O3  UNL     1      20.850  -7.984  25.228  1.00  0.00    -0.365 OA
BRANCH  40  41
HETATM   41  C23 UNL     1      21.356  -6.767  25.229  1.00  0.00     0.051 C 
HETATM   42  C24 UNL     1      22.873  -6.678  25.220  1.00  0.00     0.045 C 
HETATM   43  C25 UNL     1      20.868  -5.777  24.193  1.00  0.00     0.045 C 
HETATM   44  C26 UNL     1      20.956  -6.101  26.565  1.00  0.00     0.045 C 
ENDBRANCH  40  41
ENDBRANCH  34  40
ENDBRANCH  33  34
ENDBRANCH   1  33
TORSDOF 5
ENDMDL
MODEL 3
REMARK VINA RESULT: -7.938410460      3.440      9.582
REMARK  5 active torsions:
REMARK  status: ('A' for Active; 'I' for Inactive)
REMARK       I    between atoms: N1_2  and  C2_4 
REMARK    1  A    between atoms: C2_4  and  C3_6 
REMARK    2  A    between atoms: C3_6  and  C4_7 
REMARK    3  A    between atoms: C3_6  and  O3_40 
REMARK    4  A    between atoms: C4_7  and  N2_8 
REMARK    5  A    between atoms: O3_40  and  C23_41 
ROOT
HETATM    1  N2  UNL     1      11.291  -6.501  24.724  1.00  0.00     0.094 N 
HETATM    2  C5  UNL     1      12.413  -7.316  24.389  1.00  0.00     0.300 C 
HETATM    3  C6  UNL     1      13.141  -6.692  23.218  1.00  0.00     0.262 C 
HETATM    4  N3  UNL     1      14.589  -6.743  23.416  1.00  0.00    -0.072 N 
ATOM      5  H31 UNL     1      14.881  -6.364  24.317  1.00  0.00     0.277 HD
ATOM      6  H32 UNL     1      15.096  -6.085  22.823  1.00  0.00     0.277 HD
HETATM    7  C7  UNL     1      15.004  -8.106  23.221  1.00  0.00     0.259 C 
HETATM    8  C8  UNL     1      16.377  -8.402  23.728  1.00  0.00     0.260 C 
HETATM    9  N4  UNL     1      17.313  -7.351  23.449  1.00  0.00    -0.070 N 
ATOM     10  H41 UNL     1      16.912  -6.435  23.649  1.00  0.00     0.277 HD
ATOM     11  H42 UNL     1      17.462  -7.246  22.445  1.00  0.00     0.277 HD
HETATM   12  C9  UNL     1      18.567  -7.542  24.149  1.00  0.00     0.270 C 
HETATM   13  C10 UNL     1      18.575  -7.049  25.578  1.00  0.00    -0.033 A 
HETATM   14  C11 UNL     1      18.966  -5.770  25.877  1.00  0.00     0.009 A 
HETATM   15  C12 UNL     1      18.992  -5.261  27.205  1.00  0.00     0.009 A 
HETATM   16  C13 UNL     1      18.620  -6.031  28.283  1.00  0.00    -0.033 A 
HETATM   17  C14 UNL     1      18.230  -7.311  27.968  1.00  0.00     0.009 A 
HETATM   18  C15 UNL     1      18.200  -7.831  26.642  1.00  0.00     0.009 A 
HETATM   19  C16 UNL     1      18.632  -5.535  29.705  1.00  0.00     0.270 C 
HETATM   20  N5  UNL     1      17.959  -4.285  29.994  1.00  0.00    -0.069 N 
ATOM     21  H51 UNL     1      18.101  -3.609  29.244  1.00  0.00     0.277 HD
ATOM     22  H52 UNL     1      18.420  -3.784  30.754  1.00  0.00     0.277 HD
HETATM   23  C17 UNL     1      16.549  -4.472  30.270  1.00  0.00     0.258 C 
HETATM   24  C18 UNL     1      15.732  -3.344  29.726  1.00  0.00     0.195 C 
HETATM   25  O2  UNL     1      14.747  -3.784  28.841  1.00  0.00    -0.388 OA
HETATM   26  C19 UNL     1      13.634  -4.201  29.600  1.00  0.00     0.195 C 
HETATM   27  C20 UNL     1      12.424  -4.098  28.672  1.00  0.00     0.258 C 
HETATM   28  N6  UNL     1      12.852  -4.522  27.353  1.00  0.00    -0.071 N 
ATOM     29  H61 UNL     1      13.815  -4.859  27.337  1.00  0.00     0.277 HD
ATOM     30  H62 UNL     1      12.971  -3.744  26.705  1.00  0.00     0.277 HD
HETATM   31  C21 UNL     1      11.904  -5.509  26.878  1.00  0.00     0.262 C 
HETATM   32  C22 UNL     1      11.751  -5.297  25.384  1.00  0.00     0.300 C 
ENDROOT
BRANCH   1  33
HETATM   33  C4  UNL     1      10.246  -7.081  25.452  1.00  0.00     0.314 C 
BRANCH  33  34
HETATM   34  C3  UNL     1       9.792  -8.463  25.107  1.00  0.00     0.242 C 
BRANCH  34  35
HETATM   35  C2  UNL     1       9.257  -9.060  26.404  1.00  0.00     0.248 C 
HETATM   36  N1  UNL     1       9.084  -8.316  27.581  1.00  0.00    -0.363 N 
HETATM   37  C1  UNL     1       8.569  -8.971  28.760  1.00  0.00     0.149 C 
ATOM     38  H1  UNL     1       9.320  -7.325  27.602  1.00  0.00     0.162 HD
HETATM   39  O1  UNL     1       8.961 -10.277  26.412  1.00  0.00    -0.271 OA
ENDBRANCH  34  35
BRANCH  34  40
HETATM   40  O3  UNL     1       8.984  -8.635  24.079  1.00  0.00    -0.365 OA
BRANCH  40  41
HETATM   41  C23 UNL     1       9.260  -9.076  22.868  1.00  0.00     0.051 C 
HETATM   42  C24 UNL     1       8.166  -9.880  22.187  1.00  0.00     0.045 C 
HETATM   43  C25 UNL     1       9.766  -8.091  21.835  1.00  0.00     0.045 C 
HETATM   44  C26 UNL     1      10.429 -10.078  22.996  1.00  0.00     0.045 C 
ENDBRANCH  40  41
ENDBRANCH  34  40
ENDBRANCH  33  34
ENDBRANCH   1  33
TORSDOF 5
ENDMDL
MODEL 4
REMARK VINA RESULT: -7.885306554      1.051      2.501
REMARK  5 active torsions:
REMARK  status: ('A' for Active; 'I' for Inactive)
REMARK       I    between atoms: N1_2  and  C2_4 
REMARK    1  A    between atoms: C2_4  and  C3_6 
REMARK    2  A    between atoms: C3_6  and  C4_7 
REMARK    3  A    between atoms: C3_6  and  O3_40 
REMARK    4  A    between atoms: C4_7  and  N2_8 
REMARK    5  A    between atoms: O3_40  and  C23_41 
ROOT
HETATM    1  N2  UNL     1      17.927  -7.708  24.108  1.00  0.00     0.094 N 
HETATM    2  C5  UNL     1      17.314  -7.441  25.367  1.00  0.00     0.300 C 
HETATM    3  C6  UNL     1      17.042  -5.956  25.474  1.00  0.00     0.262 C 
HETATM    4  N3  UNL     1      15.719  -5.707  26.048  1.00  0.00    -0.072 N 
ATOM      5  H31 UNL     1      14.976  -6.216  25.569  1.00  0.00     0.277 HD
ATOM      6  H32 UNL     1      15.376  -4.764  25.863  1.00  0.00     0.277 HD
HETATM    7  C7  UNL     1      15.793  -6.011  27.452  1.00  0.00     0.259 C 
HETATM    8  C8  UNL     1      14.462  -6.153  28.113  1.00  0.00     0.260 C 
HETATM    9  N4  UNL     1      13.511  -5.175  27.670  1.00  0.00    -0.070 N 
ATOM     10  H41 UNL     1      13.536  -5.067  26.656  1.00  0.00     0.277 HD
ATOM     11  H42 UNL     1      13.797  -4.233  27.940  1.00  0.00     0.277 HD
HETATM   12  C9  UNL     1      12.171  -5.471  28.134  1.00  0.00     0.270 C 
HETATM   13  C10 UNL     1      11.412  -6.465  27.284  1.00  0.00    -0.033 A 
HETATM   14  C11 UNL     1      10.620  -6.041  26.249  1.00  0.00     0.009 A 
HETATM   15  C12 UNL     1       9.886  -6.937  25.423  1.00  0.00     0.009 A 
HETATM   16  C13 UNL     1       9.929  -8.299  25.614  1.00  0.00    -0.033 A 
HETATM   17  C14 UNL     1      10.727  -8.709  26.655  1.00  0.00     0.009 A 
HETATM   18  C15 UNL     1      11.467  -7.821  27.489  1.00  0.00     0.009 A 
HETATM   19  C16 UNL     1       9.168  -9.284  24.765  1.00  0.00     0.270 C 
HETATM   20  N5  UNL     1       9.305  -9.187  23.326  1.00  0.00    -0.069 N 
ATOM     21  H51 UNL     1       9.340  -8.213  23.025  1.00  0.00     0.277 HD
ATOM     22  H52 UNL     1       8.446  -9.472  22.854  1.00  0.00     0.277 HD
HETATM   23  C17 UNL     1      10.446  -9.930  22.833  1.00  0.00     0.258 C 
HETATM   24  C18 UNL     1      11.103  -9.224  21.690  1.00  0.00     0.195 C 
HETATM   25  O2  UNL     1      12.453  -8.965  21.934  1.00  0.00    -0.388 OA
HETATM   26  C19 UNL     1      13.185 -10.127  21.614  1.00  0.00     0.195 C 
HETATM   27  C20 UNL     1      14.609  -9.662  21.312  1.00  0.00     0.258 C 
HETATM   28  N6  UNL     1      14.926  -8.600  22.247  1.00  0.00    -0.071 N 
ATOM     29  H61 UNL     1      14.188  -8.442  22.933  1.00  0.00     0.277 HD
ATOM     30  H62 UNL     1      14.911  -7.675  21.817  1.00  0.00     0.277 HD
HETATM   31  C21 UNL     1      16.202  -8.915  22.856  1.00  0.00     0.262 C 
HETATM   32  C22 UNL     1      16.935  -7.603  23.058  1.00  0.00     0.300 C 
ENDROOT
BRANCH   1  33
HETATM   33  C4  UNL     1      18.655  -8.895  23.966  1.00  0.00     0.314 C 
BRANCH  33  34
HETATM   34  C3  UNL     1      20.115  -8.825  23.649  1.00  0.00     0.242 C 
BRANCH  34  35
HETATM   35  C2  UNL     1      20.653  -7.633  24.434  1.00  0.00     0.248 C 
HETATM   36  N1  UNL     1      21.048  -7.710  25.777  1.00  0.00    -0.363 N 
HETATM   37  C1  UNL     1      21.548  -6.525  26.435  1.00  0.00     0.149 C 
ATOM     38  H1  UNL     1      20.984  -8.593  26.283  1.00  0.00     0.162 HD
HETATM   39  O1  UNL     1      20.742  -6.533  23.842  1.00  0.00    -0.271 OA
ENDBRANCH  34  35
BRANCH  34  40
HETATM   40  O3  UNL     1      20.852  -9.911  23.776  1.00  0.00    -0.365 OA
BRANCH  40  41
HETATM   41  C23 UNL     1      21.322 -10.711  22.840  1.00  0.00     0.051 C 
HETATM   42  C24 UNL     1      20.586 -10.684  21.511  1.00  0.00     0.045 C 
HETATM   43  C25 UNL     1      22.798 -10.651  22.508  1.00  0.00     0.045 C 
HETATM   44  C26 UNL     1      21.134 -12.163  23.335  1.00  0.00     0.045 C 
ENDBRANCH  40  41
ENDBRANCH  34  40
ENDBRANCH  33  34
ENDBRANCH   1  33
TORSDOF 5
ENDMDL
MODEL 5
REMARK VINA RESULT: -7.851979459      1.454      2.385
REMARK  5 active torsions:
REMARK  status: ('A' for Active; 'I' for Inactive)
REMARK       I    between atoms: N1_2  and  C2_4 
REMARK    1  A    between atoms: C2_4  and  C3_6 
REMARK    2  A    between atoms: C3_6  and  C4_7 
REMARK    3  A    between atoms: C3_6  and  O3_40 
REMARK    4  A    between atoms: C4_7  and  N2_8 
REMARK    5  A    between atoms: O3_40  and  C23_41 
ROOT
HETATM    1  N2  UNL     1      17.655  -7.431  24.770  1.00  0.00     0.094 N 
HETATM    2  C5  UNL     1      16.976  -7.322  26.019  1.00  0.00     0.300 C 
HETATM    3  C6  UNL     1      16.613  -5.871  26.254  1.00  0.00     0.262 C 
HETATM    4  N3  UNL     1      15.256  -5.752  26.787  1.00  0.00    -0.072 N 
ATOM      5  H31 UNL     1      14.564  -6.252  26.228  1.00  0.00     0.277 HD
ATOM      6  H32 UNL     1      14.866  -4.816  26.677  1.00  0.00     0.277 HD
HETATM    7  C7  UNL     1      15.290  -6.186  28.157  1.00  0.00     0.259 C 
HETATM    8  C8  UNL     1      13.944  -6.465  28.739  1.00  0.00     0.260 C 
HETATM    9  N4  UNL     1      12.956  -5.501  28.348  1.00  0.00    -0.070 N 
ATOM     10  H41 UNL     1      13.016  -5.294  27.351  1.00  0.00     0.277 HD
ATOM     11  H42 UNL     1      13.175  -4.577  28.719  1.00  0.00     0.277 HD
HETATM   12  C9  UNL     1      11.618  -5.914  28.720  1.00  0.00     0.270 C 
HETATM   13  C10 UNL     1      10.954  -6.861  27.745  1.00  0.00    -0.033 A 
HETATM   14  C11 UNL     1      10.181  -6.382  26.719  1.00  0.00     0.009 A 
HETATM   15  C12 UNL     1       9.535  -7.232  25.779  1.00  0.00     0.009 A 
HETATM   16  C13 UNL     1       9.651  -8.601  25.842  1.00  0.00    -0.033 A 
HETATM   17  C14 UNL     1      10.429  -9.066  26.875  1.00  0.00     0.009 A 
HETATM   18  C15 UNL     1      11.080  -8.225  27.822  1.00  0.00     0.009 A 
HETATM   19  C16 UNL     1       8.984  -9.539  24.868  1.00  0.00     0.270 C 
HETATM   20  N5  UNL     1       9.174  -9.295  23.453  1.00  0.00    -0.069 N 
ATOM     21  H51 UNL     1       9.164  -8.296  23.247  1.00  0.00     0.277 HD
ATOM     22  H52 UNL     1       8.354  -9.580  22.917  1.00  0.00     0.277 HD
HETATM   23  C17 UNL     1      10.376  -9.923  22.945  1.00  0.00     0.258 C 
HETATM   24  C18 UNL     1      11.037  -9.075  21.905  1.00  0.00     0.195 C 
HETATM   25  O2  UNL     1      12.357  -8.767  22.235  1.00  0.00    -0.388 OA
HETATM   26  C19 UNL     1      13.169  -9.851  21.841  1.00  0.00     0.195 C 
HETATM   27  C20 UNL     1      14.574  -9.281  21.651  1.00  0.00     0.258 C 
HETATM   28  N6  UNL     1      14.790  -8.300  22.696  1.00  0.00    -0.071 N 
ATOM     29  H61 UNL     1      14.017  -8.250  23.359  1.00  0.00     0.277 HD
ATOM     30  H62 UNL     1      14.738  -7.340  22.355  1.00  0.00     0.277 HD
HETATM   31  C21 UNL     1      16.057  -8.603  23.330  1.00  0.00     0.262 C 
HETATM   32  C22 UNL     1      16.703  -7.278  23.689  1.00  0.00     0.300 C 
ENDROOT
BRANCH   1  33
HETATM   33  C4  UNL     1      18.457  -8.557  24.549  1.00  0.00     0.314 C 
BRANCH  33  34
HETATM   34  C3  UNL     1      19.865  -8.372  24.082  1.00  0.00     0.242 C 
BRANCH  34  35
HETATM   35  C2  UNL     1      20.162  -6.884  24.236  1.00  0.00     0.248 C 
HETATM   36  N1  UNL     1      19.962  -5.949  23.210  1.00  0.00    -0.363 N 
HETATM   37  C1  UNL     1      20.270  -4.559  23.452  1.00  0.00     0.149 C 
ATOM     38  H1  UNL     1      19.603  -6.248  22.303  1.00  0.00     0.162 HD
HETATM   39  O1  UNL     1      20.606  -6.486  25.336  1.00  0.00    -0.271 OA
ENDBRANCH  34  35
BRANCH  34  40
HETATM   40  O3  UNL     1      20.811  -9.149  24.572  1.00  0.00    -0.365 OA
BRANCH  40  41
HETATM   41  C23 UNL     1      21.473 -10.126  23.985  1.00  0.00     0.051 C 
HETATM   42  C24 UNL     1      21.030 -10.476  22.575  1.00  0.00     0.045 C 
HETATM   43  C25 UNL     1      22.986 -10.058  23.949  1.00  0.00     0.045 C 
HETATM   44  C26 UNL     1      21.201 -11.417  24.788  1.00  0.00     0.045 C 
ENDBRANCH  40  41
ENDBRANCH  34  40
ENDBRANCH  33  34
ENDBRANCH   1  33
TORSDOF 5
ENDMDL
