MODEL 1
REMARK VINA RESULT: -11.502286785      0.000      0.000
REMARK  6 active torsions:
REMARK  status: ('A' for Active; 'I' for Inactive)
REMARK    1  A    between atoms: N2_5  and  C4_6 
REMARK    2  A    between atoms: C5_11  and  N5_12 
REMARK    3  A    between atoms: N5_12  and  C6_14 
REMARK    4  A    between atoms: C9_19  and  N7_20 
REMARK    5  A    between atoms: N7_20  and  C10_22 
REMARK    6  A    between atoms: C22_42  and  N12_43 
ROOT
HETATM    1  C6  UNL     1      16.292  -6.775  24.925  1.00  0.00     0.698 A 
HETATM    2  N6  UNL     1      16.603  -5.532  24.525  1.00  0.00    -0.201 N 
ATOM      3  H6  UNL     1      15.950  -4.774  24.723  1.00  0.00     0.183 HD
HETATM    4  C7  UNL     1      17.742  -5.249  23.873  1.00  0.00     0.110 A 
HETATM    5  C8  UNL     1      18.645  -6.243  23.590  1.00  0.00     0.066 A 
HETATM    6  C9  UNL     1      18.323  -7.541  24.006  1.00  0.00     0.122 A 
HETATM    7  N10 UNL     1      17.166  -7.754  24.655  1.00  0.00    -0.176 N 
ATOM      8  H10 UNL     1      16.943  -8.702  24.955  1.00  0.00     0.186 HD
ENDROOT
BRANCH   1   9
HETATM    9  N5  UNL     1      15.186  -7.069  25.543  1.00  0.00    -0.021 N 
ATOM     10  H5  UNL     1      15.089  -6.980  26.555  1.00  0.00     0.203 HD
BRANCH   9  11
HETATM   11  C5  UNL     1      14.116  -7.524  24.712  1.00  0.00     0.713 A 
HETATM   12  N4  UNL     1      12.838  -7.348  25.077  1.00  0.00    -0.130 N 
HETATM   13  N3  UNL     1      11.828  -7.741  24.287  1.00  0.00    -0.268 N 
ATOM     14  H4  UNL     1      12.630  -6.906  25.973  1.00  0.00     0.205 HD
HETATM   15  C4  UNL     1      12.070  -8.324  23.100  1.00  0.00     0.163 A 
ATOM     16  H3  UNL     1      10.864  -7.595  24.590  1.00  0.00     0.189 HD
HETATM   17  C22 UNL     1      13.344  -8.520  22.696  1.00  0.00     0.160 A 
HETATM   18  N11 UNL     1      14.344  -8.106  23.533  1.00  0.00    -0.171 N 
ATOM     19  H11 UNL     1      15.311  -8.248  23.241  1.00  0.00     0.186 HD
BRANCH  15  20
HETATM   20  N2  UNL     1      10.966  -8.714  22.334  1.00  0.00    -0.360 N 
HETATM   21  C3  UNL     1      10.386 -10.028  22.460  1.00  0.00     0.154 C 
HETATM   22  C2  UNL     1       8.879  -9.797  22.588  1.00  0.00     0.291 C 
HETATM   23  N1  UNL     1       8.362  -9.216  21.385  1.00  0.00     0.087 N 
HETATM   24  C1  UNL     1       7.599 -10.230  20.681  1.00  0.00     0.310 C 
HETATM   25  C24 UNL     1       9.371  -8.640  20.549  1.00  0.00     0.291 C 
HETATM   26  C23 UNL     1      10.315  -7.819  21.383  1.00  0.00     0.154 C 
ENDBRANCH  15  20
BRANCH  17  27
HETATM   27  N12 UNL     1      13.677  -9.013  21.598  1.00  0.00    -0.382 N 
ATOM     28 2H12 UNL     1      13.551 -10.018  21.474  1.00  0.00     0.157 HD
ATOM     29 1H12 UNL     1      14.097  -8.492  20.828  1.00  0.00     0.157 HD
ENDBRANCH  17  27
ENDBRANCH   9  11
ENDBRANCH   1   9
BRANCH   6  30
HETATM   30  N7  UNL     1      19.181  -8.483  23.723  1.00  0.00    -0.342 N 
ATOM     31  H7  UNL     1      19.972  -8.650  24.345  1.00  0.00     0.167 HD
BRANCH  30  32
HETATM   32  C10 UNL     1      19.023  -9.278  22.556  1.00  0.00     0.034 A 
HETATM   33  C11 UNL     1      20.097 -10.028  22.128  1.00  0.00     0.032 A 
HETATM   34  C12 UNL     1      20.008 -10.841  21.009  1.00  0.00     0.033 A 
HETATM   35  C13 UNL     1      18.810 -10.888  20.315  1.00  0.00     0.045 A 
HETATM   36  C14 UNL     1      17.721 -10.146  20.721  1.00  0.00    -0.005 A 
HETATM   37  N8  UNL     1      18.437 -11.588  19.199  1.00  0.00    -0.341 N 
HETATM   38  C15 UNL     1      17.828  -9.339  21.848  1.00  0.00     0.043 A 
HETATM   39  C16 UNL     1      16.691 -10.402  19.847  1.00  0.00     0.039 A 
HETATM   40  C17 UNL     1      17.161 -11.294  18.919  1.00  0.00     0.015 A 
HETATM   41  C21 UNL     1      16.353 -11.819  17.814  1.00  0.00     0.077 C 
HETATM   42  C20 UNL     1      16.121 -13.308  17.953  1.00  0.00     0.128 C 
HETATM   43  N9  UNL     1      17.321 -14.063  18.076  1.00  0.00    -0.359 N 
HETATM   44  C19 UNL     1      18.683 -13.684  18.011  1.00  0.00     0.235 C 
ATOM     45  H9  UNL     1      17.172 -15.059  18.241  1.00  0.00     0.162 HD
HETATM   46  C18 UNL     1      19.355 -12.459  18.525  1.00  0.00     0.231 C 
HETATM   47  O1  UNL     1      19.438 -14.526  17.422  1.00  0.00    -0.272 OA
ENDBRANCH  30  32
ENDBRANCH   6  30
TORSDOF 6
ENDMDL
MODEL 2
REMARK VINA RESULT: -11.229429566      0.450      1.114
REMARK  6 active torsions:
REMARK  status: ('A' for Active; 'I' for Inactive)
REMARK    1  A    between atoms: N2_5  and  C4_6 
REMARK    2  A    between atoms: C5_11  and  N5_12 
REMARK    3  A    between atoms: N5_12  and  C6_14 
REMARK    4  A    between atoms: C9_19  and  N7_20 
REMARK    5  A    between atoms: N7_20  and  C10_22 
REMARK    6  A    between atoms: C22_42  and  N12_43 
ROOT
HETATM    1  C6  UNL     1      16.207  -6.758  24.937  1.00  0.00     0.698 A 
HETATM    2  N6  UNL     1      16.496  -5.529  24.483  1.00  0.00    -0.201 N 
ATOM      3  H6  UNL     1      15.841  -4.769  24.669  1.00  0.00     0.183 HD
HETATM    4  C7  UNL     1      17.616  -5.261  23.792  1.00  0.00     0.110 A 
HETATM    5  C8  UNL     1      18.521  -6.257  23.524  1.00  0.00     0.066 A 
HETATM    6  C9  UNL     1      18.221  -7.542  23.996  1.00  0.00     0.122 A 
HETATM    7  N10 UNL     1      17.083  -7.739  24.682  1.00  0.00    -0.176 N 
ATOM      8  H10 UNL     1      16.876  -8.678  25.023  1.00  0.00     0.186 HD
ENDROOT
BRANCH   1   9
HETATM    9  N5  UNL     1      15.120  -7.037  25.593  1.00  0.00    -0.021 N 
ATOM     10  H5  UNL     1      15.069  -6.982  26.611  1.00  0.00     0.203 HD
BRANCH   9  11
HETATM   11  C5  UNL     1      13.999  -7.427  24.796  1.00  0.00     0.713 A 
HETATM   12  N4  UNL     1      14.168  -8.129  23.666  1.00  0.00    -0.130 N 
HETATM   13  N3  UNL     1      13.120  -8.529  22.931  1.00  0.00    -0.268 N 
ATOM     14  H4  UNL     1      15.113  -8.364  23.360  1.00  0.00     0.205 HD
HETATM   15  C4  UNL     1      11.864  -8.237  23.309  1.00  0.00     0.163 A 
ATOM     16  H3  UNL     1      13.278  -9.062  22.076  1.00  0.00     0.189 HD
HETATM   17  C22 UNL     1      11.651  -7.531  24.441  1.00  0.00     0.160 A 
HETATM   18  N11 UNL     1      12.747  -7.142  25.161  1.00  0.00    -0.171 N 
ATOM     19  H11 UNL     1      12.602  -6.607  26.017  1.00  0.00     0.186 HD
BRANCH  15  20
HETATM   20  N2  UNL     1      10.821  -8.681  22.488  1.00  0.00    -0.360 N 
HETATM   21  C3  UNL     1      10.261 -10.002  22.629  1.00  0.00     0.154 C 
HETATM   22  C2  UNL     1       8.744  -9.801  22.649  1.00  0.00     0.291 C 
HETATM   23  N1  UNL     1       8.297  -9.278  21.393  1.00  0.00     0.087 N 
HETATM   24  C1  UNL     1       7.602 -10.335  20.681  1.00  0.00     0.310 C 
HETATM   25  C24 UNL     1       9.347  -8.712  20.602  1.00  0.00     0.291 C 
HETATM   26  C23 UNL     1      10.217  -7.838  21.462  1.00  0.00     0.154 C 
ENDBRANCH  15  20
BRANCH  17  27
HETATM   27  N12 UNL     1      10.526  -7.243  24.903  1.00  0.00    -0.382 N 
ATOM     28 2H12 UNL     1       9.754  -7.876  24.692  1.00  0.00     0.157 HD
ATOM     29 1H12 UNL     1      10.315  -6.406  25.446  1.00  0.00     0.157 HD
ENDBRANCH  17  27
ENDBRANCH   9  11
ENDBRANCH   1   9
BRANCH   6  30
HETATM   30  N7  UNL     1      19.081  -8.486  23.727  1.00  0.00    -0.342 N 
ATOM     31  H7  UNL     1      19.859  -8.658  24.364  1.00  0.00     0.167 HD
BRANCH  30  32
HETATM   32  C10 UNL     1      18.941  -9.278  22.556  1.00  0.00     0.034 A 
HETATM   33  C11 UNL     1      20.024 -10.022  22.140  1.00  0.00     0.032 A 
HETATM   34  C12 UNL     1      19.953 -10.832  21.017  1.00  0.00     0.033 A 
HETATM   35  C13 UNL     1      18.764 -10.881  20.307  1.00  0.00     0.045 A 
HETATM   36  C14 UNL     1      17.667 -10.145  20.701  1.00  0.00    -0.005 A 
HETATM   37  N8  UNL     1      18.409 -11.579  19.184  1.00  0.00    -0.341 N 
HETATM   38  C15 UNL     1      17.756  -9.341  21.831  1.00  0.00     0.043 A 
HETATM   39  C16 UNL     1      16.650 -10.402  19.813  1.00  0.00     0.039 A 
HETATM   40  C17 UNL     1      17.137 -11.289  18.888  1.00  0.00     0.015 A 
HETATM   41  C21 UNL     1      16.345 -11.814  17.771  1.00  0.00     0.077 C 
HETATM   42  C20 UNL     1      16.117 -13.303  17.901  1.00  0.00     0.128 C 
HETATM   43  N9  UNL     1      17.319 -14.054  18.038  1.00  0.00    -0.359 N 
HETATM   44  C19 UNL     1      18.680 -13.670  17.993  1.00  0.00     0.235 C 
ATOM     45  H9  UNL     1      17.171 -15.051  18.197  1.00  0.00     0.162 HD
HETATM   46  C18 UNL     1      19.340 -12.444  18.519  1.00  0.00     0.231 C 
HETATM   47  O1  UNL     1      19.446 -14.507  17.411  1.00  0.00    -0.272 OA
ENDBRANCH  30  32
ENDBRANCH   6  30
TORSDOF 6
ENDMDL
MODEL 3
REMARK VINA RESULT: -11.126464944      5.282     10.892
REMARK  6 active torsions:
REMARK  status: ('A' for Active; 'I' for Inactive)
REMARK    1  A    between atoms: N2_5  and  C4_6 
REMARK    2  A    between atoms: C5_11  and  N5_12 
REMARK    3  A    between atoms: N5_12  and  C6_14 
REMARK    4  A    between atoms: C9_19  and  N7_20 
REMARK    5  A    between atoms: N7_20  and  C10_22 
REMARK    6  A    between atoms: C22_42  and  N12_43 
ROOT
HETATM    1  C6  UNL     1      12.130  -8.666  22.253  1.00  0.00     0.698 A 
HETATM    2  N6  UNL     1      11.515  -8.225  21.145  1.00  0.00    -0.201 N 
ATOM      3  H6  UNL     1      12.076  -8.023  20.318  1.00  0.00     0.183 HD
HETATM    4  C7  UNL     1      10.187  -8.039  21.086  1.00  0.00     0.110 A 
HETATM    5  C8  UNL     1       9.399  -8.301  22.178  1.00  0.00     0.066 A 
HETATM    6  C9  UNL     1      10.039  -8.761  23.336  1.00  0.00     0.122 A 
HETATM    7  N10 UNL     1      11.372  -8.926  23.327  1.00  0.00    -0.176 N 
ATOM      8  H10 UNL     1      11.828  -9.264  24.174  1.00  0.00     0.186 HD
ENDROOT
BRANCH   1   9
HETATM    9  N5  UNL     1      13.417  -8.836  22.333  1.00  0.00    -0.021 N 
ATOM     10  H5  UNL     1      13.989  -8.346  23.021  1.00  0.00     0.203 HD
BRANCH   9  11
HETATM   11  C5  UNL     1      13.979  -9.756  21.393  1.00  0.00     0.713 A 
HETATM   12  N4  UNL     1      13.268 -10.800  20.942  1.00  0.00    -0.130 N 
HETATM   13  N3  UNL     1      13.775 -11.646  20.034  1.00  0.00    -0.268 N 
ATOM     14  H4  UNL     1      12.324 -10.952  21.296  1.00  0.00     0.205 HD
HETATM   15  C4  UNL     1      15.016 -11.471  19.547  1.00  0.00     0.163 A 
ATOM     16  H3  UNL     1      13.213 -12.433  19.708  1.00  0.00     0.189 HD
HETATM   17  C22 UNL     1      15.764 -10.432  19.977  1.00  0.00     0.160 A 
HETATM   18  N11 UNL     1      15.210  -9.592  20.904  1.00  0.00    -0.171 N 
ATOM     19  H11 UNL     1      15.764  -8.804  21.238  1.00  0.00     0.186 HD
BRANCH  15  20
HETATM   20  N2  UNL     1      15.480 -12.399  18.608  1.00  0.00    -0.360 N 
HETATM   21  C3  UNL     1      14.721 -12.719  17.426  1.00  0.00     0.154 C 
HETATM   22  C2  UNL     1      15.719 -12.639  16.268  1.00  0.00     0.291 C 
HETATM   23  N1  UNL     1      16.728 -13.645  16.413  1.00  0.00     0.087 N 
HETATM   24  C1  UNL     1      16.488 -14.676  15.421  1.00  0.00     0.310 C 
HETATM   25  C24 UNL     1      16.806 -14.191  17.734  1.00  0.00     0.291 C 
HETATM   26  C23 UNL     1      16.763 -13.081  18.747  1.00  0.00     0.154 C 
ENDBRANCH  15  20
BRANCH  17  27
HETATM   27  N12 UNL     1      16.909 -10.155  19.560  1.00  0.00    -0.382 N 
ATOM     28 2H12 UNL     1      17.250 -10.665  18.745  1.00  0.00     0.157 HD
ATOM     29 1H12 UNL     1      17.541  -9.482  19.993  1.00  0.00     0.157 HD
ENDBRANCH  17  27
ENDBRANCH   9  11
ENDBRANCH   1   9
BRANCH   6  30
HETATM   30  N7  UNL     1       9.285  -8.997  24.375  1.00  0.00    -0.342 N 
ATOM     31  H7  UNL     1       8.542  -9.694  24.313  1.00  0.00     0.167 HD
BRANCH  30  32
HETATM   32  C10 UNL     1       9.488  -8.291  25.591  1.00  0.00     0.034 A 
HETATM   33  C11 UNL     1      10.000  -7.013  25.525  1.00  0.00     0.032 A 
HETATM   34  C12 UNL     1      10.207  -6.260  26.669  1.00  0.00     0.033 A 
HETATM   35  C13 UNL     1       9.891  -6.816  27.898  1.00  0.00     0.045 A 
HETATM   36  C14 UNL     1       9.379  -8.093  27.992  1.00  0.00    -0.005 A 
HETATM   37  N8  UNL     1       9.985  -6.317  29.169  1.00  0.00    -0.341 N 
HETATM   38  C15 UNL     1       9.176  -8.833  26.833  1.00  0.00     0.043 A 
HETATM   39  C16 UNL     1       9.164  -8.361  29.323  1.00  0.00     0.039 A 
HETATM   40  C17 UNL     1       9.548  -7.248  30.025  1.00  0.00     0.015 A 
HETATM   41  C21 UNL     1       9.466  -7.141  31.485  1.00  0.00     0.077 C 
HETATM   42  C20 UNL     1       8.468  -6.087  31.911  1.00  0.00     0.128 C 
HETATM   43  N9  UNL     1       8.716  -4.805  31.345  1.00  0.00    -0.359 N 
HETATM   44  C19 UNL     1       9.766  -4.323  30.527  1.00  0.00     0.235 C 
ATOM     45  H9  UNL     1       8.008  -4.106  31.570  1.00  0.00     0.162 HD
HETATM   46  C18 UNL     1      10.491  -4.998  29.416  1.00  0.00     0.231 C 
HETATM   47  O1  UNL     1      10.138  -3.133  30.791  1.00  0.00    -0.272 OA
ENDBRANCH  30  32
ENDBRANCH   6  30
TORSDOF 6
ENDMDL
MODEL 4
REMARK VINA RESULT: -10.977021249      4.643     10.573
REMARK  6 active torsions:
REMARK  status: ('A' for Active; 'I' for Inactive)
REMARK    1  A    between atoms: N2_5  and  C4_6 
REMARK    2  A    between atoms: C5_11  and  N5_12 
REMARK    3  A    between atoms: N5_12  and  C6_14 
REMARK    4  A    between atoms: C9_19  and  N7_20 
REMARK    5  A    between atoms: N7_20  and  C10_22 
REMARK    6  A    between atoms: C22_42  and  N12_43 
ROOT
HETATM    1  C6  UNL     1      11.277 -10.050  21.264  1.00  0.00     0.698 A 
HETATM    2  N6  UNL     1      10.550  -9.402  20.340  1.00  0.00    -0.201 N 
ATOM      3  H6  UNL     1      10.958  -9.240  19.419  1.00  0.00     0.183 HD
HETATM    4  C7  UNL     1       9.307  -8.958  20.584  1.00  0.00     0.110 A 
HETATM    5  C8  UNL     1       8.726  -9.158  21.810  1.00  0.00     0.066 A 
HETATM    6  C9  UNL     1       9.483  -9.833  22.777  1.00  0.00     0.122 A 
HETATM    7  N10 UNL     1      10.721 -10.251  22.466  1.00  0.00    -0.176 N 
ATOM      8  H10 UNL     1      11.262 -10.744  23.176  1.00  0.00     0.186 HD
ENDROOT
BRANCH   1   9
HETATM    9  N5  UNL     1      12.488 -10.472  21.050  1.00  0.00    -0.021 N 
ATOM     10  H5  UNL     1      12.688 -11.266  20.441  1.00  0.00     0.203 HD
BRANCH   9  11
HETATM   11  C5  UNL     1      13.523  -9.752  21.725  1.00  0.00     0.713 A 
HETATM   12  N4  UNL     1      14.758  -9.673  21.208  1.00  0.00    -0.130 N 
HETATM   13  N3  UNL     1      15.723  -8.970  21.817  1.00  0.00    -0.268 N 
ATOM     14  H4  UNL     1      14.966 -10.158  20.334  1.00  0.00     0.205 HD
HETATM   15  C4  UNL     1      15.480  -8.320  22.968  1.00  0.00     0.163 A 
ATOM     16  H3  UNL     1      16.654  -8.927  21.402  1.00  0.00     0.189 HD
HETATM   17  C22 UNL     1      14.249  -8.375  23.522  1.00  0.00     0.160 A 
HETATM   18  N11 UNL     1      13.292  -9.104  22.869  1.00  0.00    -0.171 N 
ATOM     19  H11 UNL     1      12.358  -9.154  23.275  1.00  0.00     0.186 HD
BRANCH  15  20
HETATM   20  N2  UNL     1      16.539  -7.613  23.549  1.00  0.00    -0.360 N 
HETATM   21  C3  UNL     1      17.707  -8.288  24.056  1.00  0.00     0.154 C 
HETATM   22  C2  UNL     1      18.901  -7.519  23.486  1.00  0.00     0.291 C 
HETATM   23  N1  UNL     1      18.921  -6.182  24.001  1.00  0.00     0.087 N 
HETATM   24  C1  UNL     1      20.006  -6.081  24.959  1.00  0.00     0.310 C 
HETATM   25  C24 UNL     1      17.674  -5.769  24.570  1.00  0.00     0.291 C 
HETATM   26  C23 UNL     1      16.545  -6.158  23.657  1.00  0.00     0.154 C 
ENDBRANCH  15  20
BRANCH  17  27
HETATM   27  N12 UNL     1      13.906  -7.775  24.563  1.00  0.00    -0.382 N 
ATOM     28 2H12 UNL     1      14.453  -7.946  25.407  1.00  0.00     0.157 HD
ATOM     29 1H12 UNL     1      13.101  -7.153  24.640  1.00  0.00     0.157 HD
ENDBRANCH  17  27
ENDBRANCH   9  11
ENDBRANCH   1   9
BRANCH   6  30
HETATM   30  N7  UNL     1       8.928 -10.009  23.946  1.00  0.00    -0.342 N 
ATOM     31  H7  UNL     1       8.206 -10.720  24.060  1.00  0.00     0.167 HD
BRANCH  30  32
HETATM   32  C10 UNL     1       9.322  -9.219  25.059  1.00  0.00     0.034 A 
HETATM   33  C11 UNL     1      10.167  -8.154  24.835  1.00  0.00     0.032 A 
HETATM   34  C12 UNL     1      10.577  -7.330  25.871  1.00  0.00     0.033 A 
HETATM   35  C13 UNL     1      10.123  -7.596  27.153  1.00  0.00     0.045 A 
HETATM   36  C14 UNL     1       9.278  -8.656  27.403  1.00  0.00    -0.005 A 
HETATM   37  N8  UNL     1      10.354  -6.964  28.344  1.00  0.00    -0.341 N 
HETATM   38  C15 UNL     1       8.875  -9.471  26.351  1.00  0.00     0.043 A 
HETATM   39  C16 UNL     1       9.001  -8.661  28.750  1.00  0.00     0.039 A 
HETATM   40  C17 UNL     1       9.679  -7.607  29.305  1.00  0.00     0.015 A 
HETATM   41  C21 UNL     1       9.633  -7.273  30.732  1.00  0.00     0.077 C 
HETATM   42  C20 UNL     1       8.967  -5.936  30.970  1.00  0.00     0.128 C 
HETATM   43  N9  UNL     1       9.559  -4.866  30.241  1.00  0.00    -0.359 N 
HETATM   44  C19 UNL     1      10.699  -4.814  29.403  1.00  0.00     0.235 C 
ATOM     45  H9  UNL     1       9.072  -3.975  30.340  1.00  0.00     0.162 HD
HETATM   46  C18 UNL     1      11.206  -5.814  28.424  1.00  0.00     0.231 C 
HETATM   47  O1  UNL     1      11.386  -3.745  29.514  1.00  0.00    -0.272 OA
ENDBRANCH  30  32
ENDBRANCH   6  30
TORSDOF 6
ENDMDL
MODEL 5
REMARK VINA RESULT: -10.974276228      3.095      7.778
REMARK  6 active torsions:
REMARK  status: ('A' for Active; 'I' for Inactive)
REMARK    1  A    between atoms: N2_5  and  C4_6 
REMARK    2  A    between atoms: C5_11  and  N5_12 
REMARK    3  A    between atoms: N5_12  and  C6_14 
REMARK    4  A    between atoms: C9_19  and  N7_20 
REMARK    5  A    between atoms: N7_20  and  C10_22 
REMARK    6  A    between atoms: C22_42  and  N12_43 
ROOT
HETATM    1  C6  UNL     1      21.314 -11.652  21.948  1.00  0.00     0.698 A 
HETATM    2  N6  UNL     1      21.650 -12.153  23.147  1.00  0.00    -0.201 N 
ATOM      3  H6  UNL     1      22.119 -13.058  23.188  1.00  0.00     0.183 HD
HETATM    4  C7  UNL     1      21.392 -11.506  24.294  1.00  0.00     0.110 A 
HETATM    5  C8  UNL     1      20.765 -10.286  24.278  1.00  0.00     0.066 A 
HETATM    6  C9  UNL     1      20.412  -9.762  23.028  1.00  0.00     0.122 A 
HETATM    7  N10 UNL     1      20.701 -10.462  21.918  1.00  0.00    -0.176 N 
ATOM      8  H10 UNL     1      20.442 -10.069  21.013  1.00  0.00     0.186 HD
ENDROOT
BRANCH   1   9
HETATM    9  N5  UNL     1      21.543 -12.273  20.828  1.00  0.00    -0.021 N 
ATOM     10  H5  UNL     1      22.483 -12.544  20.538  1.00  0.00     0.203 HD
BRANCH   9  11
HETATM   11  C5  UNL     1      20.390 -12.549  20.027  1.00  0.00     0.713 A 
HETATM   12  N4  UNL     1      19.457 -13.419  20.441  1.00  0.00    -0.130 N 
HETATM   13  N3  UNL     1      18.356 -13.656  19.713  1.00  0.00    -0.268 N 
ATOM     14  H4  UNL     1      19.588 -13.909  21.326  1.00  0.00     0.205 HD
HETATM   15  C4  UNL     1      18.156 -13.025  18.543  1.00  0.00     0.163 A 
ATOM     16  H3  UNL     1      17.663 -14.324  20.050  1.00  0.00     0.189 HD
HETATM   17  C22 UNL     1      19.072 -12.141  18.092  1.00  0.00     0.160 A 
HETATM   18  N11 UNL     1      20.181 -11.928  18.865  1.00  0.00    -0.171 N 
ATOM     19  H11 UNL     1      20.882 -11.264  18.536  1.00  0.00     0.186 HD
BRANCH  15  20
HETATM   20  N2  UNL     1      16.987 -13.329  17.835  1.00  0.00    -0.360 N 
HETATM   21  C3  UNL     1      15.766 -12.592  18.043  1.00  0.00     0.154 C 
HETATM   22  C2  UNL     1      15.260 -12.241  16.642  1.00  0.00     0.291 C 
HETATM   23  N1  UNL     1      14.923 -13.433  15.923  1.00  0.00     0.087 N 
HETATM   24  C1  UNL     1      13.477 -13.517  15.835  1.00  0.00     0.310 C 
HETATM   25  C24 UNL     1      15.487 -14.621  16.489  1.00  0.00     0.291 C 
HETATM   26  C23 UNL     1      16.932 -14.385  16.830  1.00  0.00     0.154 C 
ENDBRANCH  15  20
BRANCH  17  27
HETATM   27  N12 UNL     1      18.963 -11.471  17.043  1.00  0.00    -0.382 N 
ATOM     28 2H12 UNL     1      18.800 -11.980  16.174  1.00  0.00     0.157 HD
ATOM     29 1H12 UNL     1      19.058 -10.457  16.985  1.00  0.00     0.157 HD
ENDBRANCH  17  27
ENDBRANCH   9  11
ENDBRANCH   1   9
BRANCH   6  30
HETATM   30  N7  UNL     1      19.804  -8.606  23.021  1.00  0.00    -0.342 N 
ATOM     31  H7  UNL     1      20.344  -7.752  22.879  1.00  0.00     0.167 HD
BRANCH  30  32
HETATM   32  C10 UNL     1      18.398  -8.528  23.208  1.00  0.00     0.034 A 
HETATM   33  C11 UNL     1      17.926  -7.908  24.344  1.00  0.00     0.032 A 
HETATM   34  C12 UNL     1      16.567  -7.779  24.583  1.00  0.00     0.033 A 
HETATM   35  C13 UNL     1      15.677  -8.290  23.652  1.00  0.00     0.045 A 
HETATM   36  C14 UNL     1      16.123  -8.916  22.508  1.00  0.00    -0.005 A 
HETATM   37  N8  UNL     1      14.309  -8.306  23.622  1.00  0.00    -0.341 N 
HETATM   38  C15 UNL     1      17.490  -9.034  22.284  1.00  0.00     0.043 A 
HETATM   39  C16 UNL     1      15.020  -9.308  21.788  1.00  0.00     0.039 A 
HETATM   40  C17 UNL     1      13.915  -8.919  22.499  1.00  0.00     0.015 A 
HETATM   41  C21 UNL     1      12.538  -9.155  22.054  1.00  0.00     0.077 C 
HETATM   42  C20 UNL     1      11.818  -7.858  21.759  1.00  0.00     0.128 C 
HETATM   43  N9  UNL     1      11.825  -6.941  22.848  1.00  0.00    -0.359 N 
HETATM   44  C19 UNL     1      12.309  -7.056  24.173  1.00  0.00     0.235 C 
ATOM     45  H9  UNL     1      11.404  -6.037  22.634  1.00  0.00     0.162 HD
HETATM   46  C18 UNL     1      13.534  -7.731  24.683  1.00  0.00     0.231 C 
HETATM   47  O1  UNL     1      11.577  -6.493  25.053  1.00  0.00    -0.272 OA
ENDBRANCH  30  32
ENDBRANCH   6  30
TORSDOF 6
ENDMDL
