MODEL 1
REMARK VINA RESULT: -10.907214856      0.000      0.000
REMARK  4 active torsions:
REMARK  status: ('A' for Active; 'I' for Inactive)
REMARK    1  A    between atoms: C2_5  and  N2_6 
REMARK    2  A    between atoms: N2_6  and  C3_8 
REMARK    3  A    between atoms: C3_8  and  C4_9 
REMARK    4  A    between atoms: C4_9  and  N3_10 
ROOT
HETATM    1  C4  UNL     1      10.754  -7.591  22.728  1.00  0.00     0.292 C 
ENDROOT
BRANCH   1   2
HETATM    2  C3  UNL     1      11.894  -7.490  21.767  1.00  0.00     0.168 C 
BRANCH   2   3
HETATM    3  N2  UNL     1      12.573  -8.770  21.732  1.00  0.00    -0.224 N 
ATOM      4  H2  UNL     1      11.998  -9.604  21.612  1.00  0.00     0.177 HD
BRANCH   3   5
HETATM    5  C2  UNL     1      13.831  -8.936  21.839  1.00  0.00     0.681 A 
HETATM    6  N1  UNL     1      14.595  -8.516  22.838  1.00  0.00    -0.155 N 
HETATM    7  C1  UNL     1      15.938  -8.714  22.913  1.00  0.00     0.272 A 
ATOM      8  H1  UNL     1      14.144  -8.011  23.602  1.00  0.00     0.187 HD
HETATM    9  O1  UNL     1      16.637  -8.304  23.875  1.00  0.00    -0.267 OA
HETATM   10  C24 UNL     1      16.559  -9.393  21.888  1.00  0.00     0.061 A 
HETATM   11  C16 UNL     1      15.770  -9.828  20.855  1.00  0.00     0.066 A 
HETATM   12  C23 UNL     1      17.915  -9.623  21.911  1.00  0.00     0.036 A 
HETATM   13  N7  UNL     1      14.443  -9.610  20.821  1.00  0.00    -0.191 N 
HETATM   14  C17 UNL     1      16.391 -10.508  19.829  1.00  0.00     0.051 A 
ATOM     15  H7  UNL     1      13.892  -9.949  20.032  1.00  0.00     0.184 HD
HETATM   16  C18 UNL     1      17.748 -10.737  19.852  1.00  0.00     0.021 A 
HETATM   17  S1  UNL     1      18.564 -11.582  18.591  1.00  0.00    -0.101 SA
HETATM   18  C22 UNL     1      18.559 -10.312  20.878  1.00  0.00     0.032 A 
HETATM   19  C19 UNL     1      20.237 -11.727  18.864  1.00  0.00     0.054 A 
HETATM   20  C20 UNL     1      20.694 -11.155  20.041  1.00  0.00     0.063 A 
HETATM   21  C21 UNL     1      19.910 -10.510  20.951  1.00  0.00     0.183 A 
HETATM   22  O3  UNL     1      20.514 -10.047  21.979  1.00  0.00    -0.288 OA
ENDBRANCH   3   5
ENDBRANCH   2   3
ENDBRANCH   1   2
BRANCH   1  23
HETATM   23  N3  UNL     1      11.052  -7.061  24.040  1.00  0.00     0.091 N 
HETATM   24  C5  UNL     1      12.193  -6.176  24.037  1.00  0.00     0.274 C 
HETATM   25  C6  UNL     1      11.924  -5.023  24.942  1.00  0.00     0.057 C 
HETATM   26  C7  UNL     1      11.947  -3.673  24.277  1.00  0.00     0.234 C 
HETATM   27  N4  UNL     1      11.522  -2.720  25.318  1.00  0.00    -0.073 N 
HETATM   28  C8  UNL     1      10.103  -2.615  25.429  1.00  0.00     0.258 C 
ATOM     29  H42 UNL     1      11.942  -2.952  26.218  1.00  0.00     0.277 HD
ATOM     30  H41 UNL     1      11.945  -1.804  25.169  1.00  0.00     0.277 HD
HETATM   31  C9  UNL     1       9.529  -3.011  26.756  1.00  0.00     0.195 C 
HETATM   32  O2  UNL     1      10.219  -2.563  27.852  1.00  0.00    -0.388 OA
HETATM   33  C10 UNL     1      10.987  -3.493  28.508  1.00  0.00     0.195 C 
HETATM   34  C11 UNL     1      10.252  -4.696  29.014  1.00  0.00     0.258 C 
HETATM   35  N5  UNL     1      10.960  -5.924  28.683  1.00  0.00    -0.072 N 
HETATM   36  C12 UNL     1      10.264  -7.077  29.198  1.00  0.00     0.251 C 
ATOM     37  H52 UNL     1      11.127  -6.002  27.681  1.00  0.00     0.277 HD
ATOM     38  H51 UNL     1      11.928  -5.896  29.001  1.00  0.00     0.277 HD
HETATM   39  C13 UNL     1       9.551  -7.886  28.169  1.00  0.00     0.141 C 
HETATM   40  N6  UNL     1       9.860  -7.603  26.813  1.00  0.00    -0.418 N 
HETATM   41  C14 UNL     1      11.181  -7.875  26.372  1.00  0.00     0.144 C 
ATOM     42  H6  UNL     1       9.160  -7.219  26.180  1.00  0.00     0.153 HD
HETATM   43  C15 UNL     1      11.220  -8.200  24.909  1.00  0.00     0.291 C 
ENDBRANCH   1  23
TORSDOF 4
ENDMDL
MODEL 2
REMARK VINA RESULT: -10.894219238      1.762      3.515
REMARK  4 active torsions:
REMARK  status: ('A' for Active; 'I' for Inactive)
REMARK    1  A    between atoms: C2_5  and  N2_6 
REMARK    2  A    between atoms: N2_6  and  C3_8 
REMARK    3  A    between atoms: C3_8  and  C4_9 
REMARK    4  A    between atoms: C4_9  and  N3_10 
ROOT
HETATM    1  C4  UNL     1      11.487  -9.466  21.400  1.00  0.00     0.292 C 
ENDROOT
BRANCH   1   2
HETATM    2  C3  UNL     1      12.786 -10.055  21.845  1.00  0.00     0.168 C 
BRANCH   2   3
HETATM    3  N2  UNL     1      13.836  -9.091  21.576  1.00  0.00    -0.224 N 
ATOM      4  H2  UNL     1      13.570  -8.107  21.528  1.00  0.00     0.177 HD
BRANCH   3   5
HETATM    5  C2  UNL     1      15.063  -9.376  21.395  1.00  0.00     0.681 A 
HETATM    6  N1  UNL     1      16.074  -9.025  22.179  1.00  0.00    -0.155 N 
HETATM    7  C1  UNL     1      17.373  -9.351  21.948  1.00  0.00     0.272 A 
ATOM      8  H1  UNL     1      15.861  -8.473  23.010  1.00  0.00     0.187 HD
HETATM    9  O1  UNL     1      18.311  -9.003  22.710  1.00  0.00    -0.267 OA
HETATM   10  C24 UNL     1      17.674 -10.096  20.829  1.00  0.00     0.061 A 
HETATM   11  C16 UNL     1      16.630 -10.460  20.019  1.00  0.00     0.066 A 
HETATM   12  C23 UNL     1      18.971 -10.455  20.546  1.00  0.00     0.036 A 
HETATM   13  N7  UNL     1      15.357 -10.115  20.285  1.00  0.00    -0.191 N 
HETATM   14  C17 UNL     1      16.930 -11.205  18.898  1.00  0.00     0.051 A 
ATOM     15  H7  UNL     1      14.609 -10.406  19.655  1.00  0.00     0.184 HD
HETATM   16  C18 UNL     1      18.229 -11.564  18.615  1.00  0.00     0.021 A 
HETATM   17  S1  UNL     1      18.648 -12.494  17.227  1.00  0.00    -0.101 SA
HETATM   18  C22 UNL     1      19.292 -11.212  19.413  1.00  0.00     0.032 A 
HETATM   19  C19 UNL     1      20.318 -12.799  17.111  1.00  0.00     0.054 A 
HETATM   20  C20 UNL     1      21.086 -12.265  18.133  1.00  0.00     0.063 A 
HETATM   21  C21 UNL     1      20.599 -11.539  19.179  1.00  0.00     0.183 A 
HETATM   22  O3  UNL     1      21.464 -11.128  20.026  1.00  0.00    -0.288 OA
ENDBRANCH   3   5
ENDBRANCH   2   3
ENDBRANCH   1   2
BRANCH   1  23
HETATM   23  N3  UNL     1      11.038  -8.362  22.218  1.00  0.00     0.091 N 
HETATM   24  C5  UNL     1       9.729  -8.587  22.786  1.00  0.00     0.274 C 
HETATM   25  C6  UNL     1       9.706  -8.078  24.187  1.00  0.00     0.057 C 
HETATM   26  C7  UNL     1       9.403  -9.115  25.236  1.00  0.00     0.234 C 
HETATM   27  N4  UNL     1       9.573  -8.423  26.526  1.00  0.00    -0.073 N 
HETATM   28  C8  UNL     1      10.929  -8.402  26.971  1.00  0.00     0.258 C 
ATOM     29  H42 UNL     1       9.187  -7.480  26.487  1.00  0.00     0.277 HD
ATOM     30  H41 UNL     1       8.961  -8.824  27.238  1.00  0.00     0.277 HD
HETATM   31  C9  UNL     1      11.535  -7.040  27.129  1.00  0.00     0.195 C 
HETATM   32  O2  UNL     1      10.728  -6.102  27.719  1.00  0.00    -0.388 OA
HETATM   33  C10 UNL     1      10.166  -5.171  26.883  1.00  0.00     0.195 C 
HETATM   34  C11 UNL     1      11.134  -4.356  26.081  1.00  0.00     0.258 C 
HETATM   35  N5  UNL     1      10.729  -4.278  24.686  1.00  0.00    -0.072 N 
HETATM   36  C12 UNL     1      11.647  -3.469  23.924  1.00  0.00     0.251 C 
ATOM     37  H52 UNL     1      10.614  -5.204  24.276  1.00  0.00     0.277 HD
ATOM     38  H51 UNL     1       9.769  -3.946  24.592  1.00  0.00     0.277 HD
HETATM   39  C13 UNL     1      12.554  -4.235  23.022  1.00  0.00     0.141 C 
HETATM   40  N6  UNL     1      12.232  -5.600  22.811  1.00  0.00    -0.418 N 
HETATM   41  C14 UNL     1      11.020  -5.890  22.134  1.00  0.00     0.144 C 
ATOM     42  H6  UNL     1      12.850  -6.346  23.132  1.00  0.00     0.153 HD
HETATM   43  C15 UNL     1      11.100  -7.187  21.385  1.00  0.00     0.291 C 
ENDBRANCH   1  23
TORSDOF 4
ENDMDL
MODEL 3
REMARK VINA RESULT: -10.855395292      1.356      1.638
REMARK  4 active torsions:
REMARK  status: ('A' for Active; 'I' for Inactive)
REMARK    1  A    between atoms: C2_5  and  N2_6 
REMARK    2  A    between atoms: N2_6  and  C3_8 
REMARK    3  A    between atoms: C3_8  and  C4_9 
REMARK    4  A    between atoms: C4_9  and  N3_10 
ROOT
HETATM    1  C4  UNL     1      10.098  -8.158  23.315  1.00  0.00     0.292 C 
ENDROOT
BRANCH   1   2
HETATM    2  C3  UNL     1      10.503  -9.591  23.202  1.00  0.00     0.168 C 
BRANCH   2   3
HETATM    3  N2  UNL     1      11.095  -9.793  21.894  1.00  0.00    -0.224 N 
ATOM      4  H2  UNL     1      10.461  -9.928  21.107  1.00  0.00     0.177 HD
BRANCH   3   5
HETATM    5  C2  UNL     1      12.345  -9.814  21.651  1.00  0.00     0.681 A 
HETATM    6  N1  UNL     1      13.267  -9.047  22.216  1.00  0.00    -0.155 N 
HETATM    7  C1  UNL     1      14.594  -9.102  21.926  1.00  0.00     0.272 A 
ATOM      8  H1  UNL     1      12.960  -8.371  22.915  1.00  0.00     0.187 HD
HETATM    9  O1  UNL     1      15.446  -8.361  22.479  1.00  0.00    -0.267 OA
HETATM   10  C24 UNL     1      15.022 -10.011  20.983  1.00  0.00     0.061 A 
HETATM   11  C16 UNL     1      14.070 -10.805  20.399  1.00  0.00     0.066 A 
HETATM   12  C23 UNL     1      16.353 -10.111  20.651  1.00  0.00     0.036 A 
HETATM   13  N7  UNL     1      12.765 -10.716  20.715  1.00  0.00    -0.191 N 
HETATM   14  C17 UNL     1      14.497 -11.714  19.455  1.00  0.00     0.051 A 
ATOM     15  H7  UNL     1      12.088 -11.325  20.256  1.00  0.00     0.184 HD
HETATM   16  C18 UNL     1      15.830 -11.814  19.121  1.00  0.00     0.021 A 
HETATM   17  S1  UNL     1      16.407 -12.935  17.948  1.00  0.00    -0.101 SA
HETATM   18  C22 UNL     1      16.803 -11.030  19.695  1.00  0.00     0.032 A 
HETATM   19  C19 UNL     1      18.091 -12.853  17.724  1.00  0.00     0.054 A 
HETATM   20  C20 UNL     1      18.744 -11.912  18.504  1.00  0.00     0.063 A 
HETATM   21  C21 UNL     1      18.137 -11.085  19.401  1.00  0.00     0.183 A 
HETATM   22  O3  UNL     1      18.908 -10.281  20.030  1.00  0.00    -0.288 OA
ENDBRANCH   3   5
ENDBRANCH   2   3
ENDBRANCH   1   2
BRANCH   1  23
HETATM   23  N3  UNL     1      10.584  -7.509  24.513  1.00  0.00     0.091 N 
HETATM   24  C5  UNL     1      11.780  -6.734  24.280  1.00  0.00     0.274 C 
HETATM   25  C6  UNL     1      11.705  -5.465  25.058  1.00  0.00     0.057 C 
HETATM   26  C7  UNL     1      11.753  -4.208  24.231  1.00  0.00     0.234 C 
HETATM   27  N4  UNL     1      11.524  -3.108  25.185  1.00  0.00    -0.073 N 
HETATM   28  C8  UNL     1      10.138  -2.865  25.432  1.00  0.00     0.258 C 
ATOM     29  H42 UNL     1      12.026  -3.271  26.058  1.00  0.00     0.277 HD
ATOM     30  H41 UNL     1      11.995  -2.256  24.879  1.00  0.00     0.277 HD
HETATM   31  C9  UNL     1       9.694  -3.053  26.851  1.00  0.00     0.195 C 
HETATM   32  O2  UNL     1      10.537  -2.546  27.803  1.00  0.00    -0.388 OA
HETATM   33  C10 UNL     1      11.303  -3.458  28.484  1.00  0.00     0.195 C 
HETATM   34  C11 UNL     1      10.544  -4.525  29.211  1.00  0.00     0.258 C 
HETATM   35  N5  UNL     1      11.113  -5.840  28.963  1.00  0.00    -0.072 N 
HETATM   36  C12 UNL     1      10.397  -6.861  29.687  1.00  0.00     0.251 C 
ATOM     37  H52 UNL     1      11.158  -6.048  27.965  1.00  0.00     0.277 HD
ATOM     38  H51 UNL     1      12.112  -5.862  29.171  1.00  0.00     0.277 HD
HETATM   39  C13 UNL     1       9.511  -7.717  28.847  1.00  0.00     0.141 C 
HETATM   40  N6  UNL     1       9.682  -7.620  27.442  1.00  0.00    -0.418 N 
HETATM   41  C14 UNL     1      10.919  -8.057  26.902  1.00  0.00     0.144 C 
ATOM     42  H6  UNL     1       8.944  -7.251  26.843  1.00  0.00     0.153 HD
HETATM   43  C15 UNL     1      10.765  -8.550  25.495  1.00  0.00     0.291 C 
ENDBRANCH   1  23
TORSDOF 4
ENDMDL
MODEL 4
REMARK VINA RESULT: -10.828122475      1.857      2.230
REMARK  4 active torsions:
REMARK  status: ('A' for Active; 'I' for Inactive)
REMARK    1  A    between atoms: C2_5  and  N2_6 
REMARK    2  A    between atoms: N2_6  and  C3_8 
REMARK    3  A    between atoms: C3_8  and  C4_9 
REMARK    4  A    between atoms: C4_9  and  N3_10 
ROOT
HETATM    1  C4  UNL     1      11.136  -8.245  24.206  1.00  0.00     0.292 C 
ENDROOT
BRANCH   1   2
HETATM    2  C3  UNL     1      11.304  -8.213  22.722  1.00  0.00     0.168 C 
BRANCH   2   3
HETATM    3  N2  UNL     1      11.892  -9.471  22.305  1.00  0.00    -0.224 N 
ATOM      4  H2  UNL     1      11.303 -10.303  22.349  1.00  0.00     0.177 HD
BRANCH   3   5
HETATM    5  C2  UNL     1      13.086  -9.619  21.887  1.00  0.00     0.681 A 
HETATM    6  N1  UNL     1      14.161  -8.998  22.351  1.00  0.00    -0.155 N 
HETATM    7  C1  UNL     1      15.421  -9.186  21.876  1.00  0.00     0.272 A 
ATOM      8  H1  UNL     1      14.035  -8.335  23.116  1.00  0.00     0.187 HD
HETATM    9  O1  UNL     1      16.423  -8.582  22.336  1.00  0.00    -0.267 OA
HETATM   10  C24 UNL     1      15.606 -10.078  20.843  1.00  0.00     0.061 A 
HETATM   11  C16 UNL     1      14.494 -10.722  20.363  1.00  0.00     0.066 A 
HETATM   12  C23 UNL     1      16.858 -10.309  20.322  1.00  0.00     0.036 A 
HETATM   13  N7  UNL     1      13.265 -10.505  20.863  1.00  0.00    -0.191 N 
HETATM   14  C17 UNL     1      14.679 -11.614  19.329  1.00  0.00     0.051 A 
ATOM     15  H7  UNL     1      12.463 -11.004  20.476  1.00  0.00     0.184 HD
HETATM   16  C18 UNL     1      15.932 -11.844  18.807  1.00  0.00     0.021 A 
HETATM   17  S1  UNL     1      16.207 -12.951  17.516  1.00  0.00    -0.101 SA
HETATM   18  C22 UNL     1      17.061 -11.212  19.273  1.00  0.00     0.032 A 
HETATM   19  C19 UNL     1      17.843 -13.047  17.061  1.00  0.00     0.054 A 
HETATM   20  C20 UNL     1      18.704 -12.236  17.783  1.00  0.00     0.063 A 
HETATM   21  C21 UNL     1      18.327 -11.401  18.793  1.00  0.00     0.183 A 
HETATM   22  O3  UNL     1      19.267 -10.729  19.342  1.00  0.00    -0.288 OA
ENDBRANCH   3   5
ENDBRANCH   2   3
ENDBRANCH   1   2
BRANCH   1  23
HETATM   23  N3  UNL     1      11.756  -7.129  24.885  1.00  0.00     0.091 N 
HETATM   24  C5  UNL     1      11.966  -5.995  24.016  1.00  0.00     0.274 C 
HETATM   25  C6  UNL     1      11.663  -4.740  24.761  1.00  0.00     0.057 C 
HETATM   26  C7  UNL     1      10.557  -3.904  24.176  1.00  0.00     0.234 C 
HETATM   27  N4  UNL     1      10.345  -2.811  25.142  1.00  0.00    -0.073 N 
HETATM   28  C8  UNL     1       9.472  -3.176  26.211  1.00  0.00     0.258 C 
ATOM     29  H42 UNL     1      11.234  -2.462  25.499  1.00  0.00     0.277 HD
ATOM     30  H41 UNL     1      10.013  -1.968  24.671  1.00  0.00     0.277 HD
HETATM   31  C9  UNL     1      10.077  -3.126  27.582  1.00  0.00     0.195 C 
HETATM   32  O2  UNL     1      10.865  -2.035  27.838  1.00  0.00    -0.388 OA
HETATM   33  C10 UNL     1      12.220  -2.248  27.829  1.00  0.00     0.195 C 
HETATM   34  C11 UNL     1      12.718  -3.283  28.791  1.00  0.00     0.258 C 
HETATM   35  N5  UNL     1      13.653  -4.194  28.150  1.00  0.00    -0.072 N 
HETATM   36  C12 UNL     1      14.151  -5.170  29.086  1.00  0.00     0.251 C 
ATOM     37  H52 UNL     1      13.241  -4.637  27.329  1.00  0.00     0.277 HD
ATOM     38  H51 UNL     1      14.413  -3.692  27.691  1.00  0.00     0.277 HD
HETATM   39  C13 UNL     1      13.588  -6.540  28.920  1.00  0.00     0.141 C 
HETATM   40  N6  UNL     1      12.867  -6.788  27.724  1.00  0.00    -0.418 N 
HETATM   41  C14 UNL     1      13.587  -6.740  26.503  1.00  0.00     0.144 C 
ATOM     42  H6  UNL     1      11.868  -6.993  27.741  1.00  0.00     0.153 HD
HETATM   43  C15 UNL     1      12.977  -7.633  25.465  1.00  0.00     0.291 C 
ENDBRANCH   1  23
TORSDOF 4
ENDMDL
MODEL 5
REMARK VINA RESULT: -10.679606072      2.699      4.430
REMARK  4 active torsions:
REMARK  status: ('A' for Active; 'I' for Inactive)
REMARK    1  A    between atoms: C2_5  and  N2_6 
REMARK    2  A    between atoms: N2_6  and  C3_8 
REMARK    3  A    between atoms: C3_8  and  C4_9 
REMARK    4  A    between atoms: C4_9  and  N3_10 
ROOT
HETATM    1  C4  UNL     1      12.958  -9.072  22.558  1.00  0.00     0.292 C 
ENDROOT
BRANCH   1   2
HETATM    2  C3  UNL     1      14.394  -8.909  22.937  1.00  0.00     0.168 C 
BRANCH   2   3
HETATM    3  N2  UNL     1      15.152  -8.627  21.734  1.00  0.00    -0.224 N 
ATOM      4  H2  UNL     1      15.212  -7.654  21.433  1.00  0.00     0.177 HD
BRANCH   3   5
HETATM    5  C2  UNL     1      15.748  -9.498  21.023  1.00  0.00     0.681 A 
HETATM    6  N1  UNL     1      17.046  -9.772  21.042  1.00  0.00    -0.155 N 
HETATM    7  C1  UNL     1      17.644 -10.712  20.264  1.00  0.00     0.272 A 
ATOM      8  H1  UNL     1      17.634  -9.240  21.684  1.00  0.00     0.187 HD
HETATM    9  O1  UNL     1      18.878 -10.950  20.304  1.00  0.00    -0.267 OA
HETATM   10  C24 UNL     1      16.861 -11.437  19.392  1.00  0.00     0.061 A 
HETATM   11  C16 UNL     1      15.519 -11.155  19.372  1.00  0.00     0.066 A 
HETATM   12  C23 UNL     1      17.412 -12.401  18.581  1.00  0.00     0.036 A 
HETATM   13  N7  UNL     1      14.969 -10.214  20.160  1.00  0.00    -0.191 N 
HETATM   14  C17 UNL     1      14.735 -11.880  18.499  1.00  0.00     0.051 A 
ATOM     15  H7  UNL     1      13.965 -10.035  20.112  1.00  0.00     0.184 HD
HETATM   16  C18 UNL     1      15.287 -12.845  17.687  1.00  0.00     0.021 A 
HETATM   17  S1  UNL     1      14.344 -13.772  16.583  1.00  0.00    -0.101 SA
HETATM   18  C22 UNL     1      16.629 -13.145  17.691  1.00  0.00     0.032 A 
HETATM   19  C19 UNL     1      15.269 -14.894  15.700  1.00  0.00     0.054 A 
HETATM   20  C20 UNL     1      16.624 -14.900  15.992  1.00  0.00     0.063 A 
HETATM   21  C21 UNL     1      17.229 -14.091  16.906  1.00  0.00     0.183 A 
HETATM   22  O3  UNL     1      18.493 -14.242  17.037  1.00  0.00    -0.288 OA
ENDBRANCH   3   5
ENDBRANCH   2   3
ENDBRANCH   1   2
BRANCH   1  23
HETATM   23  N3  UNL     1      12.114  -7.982  22.995  1.00  0.00     0.091 N 
HETATM   24  C5  UNL     1      10.840  -8.434  23.503  1.00  0.00     0.274 C 
HETATM   25  C6  UNL     1      10.470  -7.622  24.697  1.00  0.00     0.057 C 
HETATM   26  C7  UNL     1      10.296  -8.406  25.971  1.00  0.00     0.234 C 
HETATM   27  N4  UNL     1      10.078  -7.395  27.021  1.00  0.00    -0.073 N 
HETATM   28  C8  UNL     1      11.296  -6.862  27.542  1.00  0.00     0.258 C 
ATOM     29  H42 UNL     1       9.468  -6.649  26.689  1.00  0.00     0.277 HD
ATOM     30  H41 UNL     1       9.493  -7.767  27.770  1.00  0.00     0.277 HD
HETATM   31  C9  UNL     1      11.489  -5.388  27.353  1.00  0.00     0.195 C 
HETATM   32  O2  UNL     1      10.383  -4.615  27.591  1.00  0.00    -0.388 OA
HETATM   33  C10 UNL     1       9.730  -4.131  26.486  1.00  0.00     0.195 C 
HETATM   34  C11 UNL     1      10.559  -3.295  25.561  1.00  0.00     0.258 C 
HETATM   35  N5  UNL     1      10.365  -3.691  24.174  1.00  0.00    -0.072 N 
HETATM   36  C12 UNL     1      11.142  -2.864  23.285  1.00  0.00     0.251 C 
ATOM     37  H52 UNL     1      10.563  -4.681  24.036  1.00  0.00     0.277 HD
ATOM     38  H51 UNL     1       9.377  -3.693  23.919  1.00  0.00     0.277 HD
HETATM   39  C13 UNL     1      12.346  -3.527  22.708  1.00  0.00     0.141 C 
HETATM   40  N6  UNL     1      12.432  -4.934  22.868  1.00  0.00    -0.418 N 
HETATM   41  C14 UNL     1      11.457  -5.729  22.212  1.00  0.00     0.144 C 
ATOM     42  H6  UNL     1      13.168  -5.358  23.433  1.00  0.00     0.153 HD
HETATM   43  C15 UNL     1      11.990  -7.088  21.870  1.00  0.00     0.291 C 
ENDBRANCH   1  23
TORSDOF 4
ENDMDL
