MODEL 1
REMARK VINA RESULT: -9.921113181      0.000      0.000
REMARK  7 active torsions:
REMARK  status: ('A' for Active; 'I' for Inactive)
REMARK    1  A    between atoms: C3_7  and  N3_8 
REMARK    2  A    between atoms: C7_16  and  C8_17 
REMARK    3  A    between atoms: C9_18  and  C10_19 
REMARK    4  A    between atoms: C10_19  and  N6_20 
REMARK    5  A    between atoms: N6_20  and  C11_22 
REMARK    6  A    between atoms: C14_28  and  C15_29 
REMARK    7  A    between atoms: C18_32  and  N9_33 
ROOT
HETATM    1  N6  UNL     1      16.993  -5.957  26.377  1.00  0.00    -0.378 N 
ATOM      2  H6  UNL     1      17.322  -5.065  26.006  1.00  0.00     0.160 HD
ENDROOT
BRANCH   1   3
HETATM    3  C10 UNL     1      15.818  -5.892  27.198  1.00  0.00     0.215 C 
BRANCH   3   4
HETATM    4  C9  UNL     1      14.627  -6.406  26.494  1.00  0.00    -0.079 C 
HETATM    5  C8  UNL     1      13.665  -6.839  25.897  1.00  0.00    -0.028 C 
BRANCH   5   6
HETATM    6  C7  UNL     1      12.546  -7.365  25.167  1.00  0.00     0.163 A 
HETATM    7  N5  UNL     1      12.227  -7.308  23.875  1.00  0.00    -0.319 N 
HETATM    8  C6  UNL     1      11.078  -7.938  23.624  1.00  0.00     0.156 A 
ATOM      9  H5  UNL     1      12.791  -6.840  23.166  1.00  0.00     0.169 HD
HETATM   10  N4  UNL     1      10.397  -8.124  22.487  1.00  0.00    -0.170 N 
HETATM   11  C25 UNL     1      10.636  -8.434  24.859  1.00  0.00     0.124 A 
HETATM   12  C3  UNL     1       9.251  -8.814  22.570  1.00  0.00     0.682 A 
HETATM   13  C5  UNL     1      10.893  -7.595  21.245  1.00  0.00     0.177 C 
HETATM   14  N2  UNL     1       8.794  -9.302  23.716  1.00  0.00    -0.174 N 
HETATM   15  C2  UNL     1       9.466  -9.133  24.908  1.00  0.00     0.147 A 
ATOM     16  H2  UNL     1       7.915  -9.819  23.716  1.00  0.00     0.186 HD
HETATM   17  N1  UNL     1       8.977  -9.618  25.949  1.00  0.00    -0.378 N 
HETATM   18  C1  UNL     1       9.358  -9.648  27.290  1.00  0.00     0.147 C 
ATOM     19  H1  UNL     1       8.097 -10.104  25.780  1.00  0.00     0.160 HD
HETATM   20  N12 UNL     1      11.550  -8.068  25.776  1.00  0.00    -0.329 N 
ATOM     21  H12 UNL     1      11.505  -8.283  26.772  1.00  0.00     0.168 HD
BRANCH  12  22
HETATM   22  N3  UNL     1       8.562  -9.008  21.472  1.00  0.00    -0.230 N 
HETATM   23  C4  UNL     1       7.760 -10.187  21.302  1.00  0.00     0.165 C 
ATOM     24  H3  UNL     1       8.597  -8.311  20.728  1.00  0.00     0.177 HD
ENDBRANCH  12  22
ENDBRANCH   5   6
ENDBRANCH   3   4
ENDBRANCH   1   3
BRANCH   1  25
HETATM   25  C11 UNL     1      17.671  -6.959  26.054  1.00  0.00     0.062 A 
HETATM   26  C12 UNL     1      18.406  -7.675  26.948  1.00  0.00     0.050 A 
HETATM   27  C13 UNL     1      19.144  -8.759  26.481  1.00  0.00     0.110 A 
HETATM   28  N7  UNL     1      19.112  -9.070  25.158  1.00  0.00    -0.303 N 
HETATM   29  N8  UNL     1      18.406  -8.391  24.266  1.00  0.00    -0.234 N 
ATOM     30  H7  UNL     1      19.659  -9.868  24.835  1.00  0.00     0.186 HD
HETATM   31  C14 UNL     1      18.245  -8.559  22.947  1.00  0.00     0.139 A 
HETATM   32  C24 UNL     1      17.695  -7.349  24.710  1.00  0.00     0.126 A 
HETATM   33  N10 UNL     1      17.375  -7.555  22.578  1.00  0.00    -0.327 N 
HETATM   34  C23 UNL     1      17.038  -6.820  23.628  1.00  0.00     0.149 A 
ATOM     35  H10 UNL     1      17.038  -7.400  21.628  1.00  0.00     0.168 HD
HETATM   36  N11 UNL     1      16.164  -5.696  23.656  1.00  0.00    -0.080 NA
BRANCH  31  37
HETATM   37  C15 UNL     1      18.751  -9.533  21.995  1.00  0.00     0.010 A 
HETATM   38  C16 UNL     1      17.887  -9.934  20.963  1.00  0.00     0.017 A 
HETATM   39  C17 UNL     1      18.285 -10.808  19.979  1.00  0.00     0.030 A 
HETATM   40  C18 UNL     1      19.551 -11.344  19.945  1.00  0.00     0.029 A 
HETATM   41  C21 UNL     1      20.400 -10.958  20.946  1.00  0.00     0.030 A 
HETATM   42  C22 UNL     1      20.006 -10.064  21.956  1.00  0.00     0.017 A 
BRANCH  40  43
HETATM   43  N9  UNL     1      19.920 -12.244  18.914  1.00  0.00    -0.390 N 
HETATM   44  C19 UNL     1      19.219 -13.538  18.890  1.00  0.00     0.149 C 
HETATM   45  C20 UNL     1      20.926 -11.943  17.919  1.00  0.00     0.149 C 
ENDBRANCH  40  43
ENDBRANCH  31  37
ENDBRANCH   1  25
TORSDOF 7
ENDMDL
MODEL 2
REMARK VINA RESULT: -9.696373659      3.403      5.178
REMARK  7 active torsions:
REMARK  status: ('A' for Active; 'I' for Inactive)
REMARK    1  A    between atoms: C3_7  and  N3_8 
REMARK    2  A    between atoms: C7_16  and  C8_17 
REMARK    3  A    between atoms: C9_18  and  C10_19 
REMARK    4  A    between atoms: C10_19  and  N6_20 
REMARK    5  A    between atoms: N6_20  and  C11_22 
REMARK    6  A    between atoms: C14_28  and  C15_29 
REMARK    7  A    between atoms: C18_32  and  N9_33 
ROOT
HETATM    1  N6  UNL     1      17.656  -7.818  23.720  1.00  0.00    -0.378 N 
ATOM      2  H6  UNL     1      17.209  -6.991  23.321  1.00  0.00     0.160 HD
ENDROOT
BRANCH   1   3
HETATM    3  C10 UNL     1      17.724  -7.855  25.152  1.00  0.00     0.215 C 
BRANCH   3   4
HETATM    4  C9  UNL     1      16.475  -7.373  25.775  1.00  0.00    -0.079 C 
HETATM    5  C8  UNL     1      15.462  -6.952  26.290  1.00  0.00    -0.028 C 
BRANCH   5   6
HETATM    6  C7  UNL     1      14.275  -6.425  26.903  1.00  0.00     0.163 A 
HETATM    7  N5  UNL     1      14.022  -5.247  27.472  1.00  0.00    -0.319 N 
HETATM    8  C6  UNL     1      12.768  -5.177  27.921  1.00  0.00     0.156 A 
ATOM      9  H5  UNL     1      14.703  -4.492  27.553  1.00  0.00     0.169 HD
HETATM   10  N4  UNL     1      12.102  -4.200  28.548  1.00  0.00    -0.170 N 
HETATM   11  C25 UNL     1      12.181  -6.413  27.610  1.00  0.00     0.124 A 
HETATM   12  C3  UNL     1      10.826  -4.447  28.876  1.00  0.00     0.682 A 
HETATM   13  C5  UNL     1      12.749  -2.950  28.844  1.00  0.00     0.177 C 
HETATM   14  N2  UNL     1      10.230  -5.600  28.603  1.00  0.00    -0.174 N 
HETATM   15  C2  UNL     1      10.881  -6.630  27.958  1.00  0.00     0.147 A 
ATOM     16  H2  UNL     1       9.256  -5.728  28.878  1.00  0.00     0.186 HD
HETATM   17  N1  UNL     1      10.258  -7.688  27.734  1.00  0.00    -0.378 N 
HETATM   18  C1  UNL     1      10.575  -8.903  27.127  1.00  0.00     0.147 C 
ATOM     19  H1  UNL     1       9.297  -7.657  28.071  1.00  0.00     0.160 HD
HETATM   20  N12 UNL     1      13.123  -7.147  26.992  1.00  0.00    -0.329 N 
ATOM     21  H12 UNL     1      12.996  -8.098  26.645  1.00  0.00     0.168 HD
BRANCH  12  22
HETATM   22  N3  UNL     1      10.152  -3.508  29.493  1.00  0.00    -0.230 N 
HETATM   23  C4  UNL     1       9.666  -3.705  30.831  1.00  0.00     0.165 C 
ATOM     24  H3  UNL     1       9.968  -2.625  29.017  1.00  0.00     0.177 HD
ENDBRANCH  12  22
ENDBRANCH   5   6
ENDBRANCH   3   4
ENDBRANCH   1   3
BRANCH   1  25
HETATM   25  C11 UNL     1      18.070  -8.660  22.891  1.00  0.00     0.062 A 
HETATM   26  C12 UNL     1      19.358  -9.100  22.864  1.00  0.00     0.050 A 
HETATM   27  C13 UNL     1      19.722 -10.021  21.887  1.00  0.00     0.110 A 
HETATM   28  N7  UNL     1      18.792 -10.452  20.993  1.00  0.00    -0.303 N 
HETATM   29  N8  UNL     1      17.533 -10.040  20.995  1.00  0.00    -0.234 N 
ATOM     30  H7  UNL     1      19.079 -11.127  20.284  1.00  0.00     0.186 HD
HETATM   31  C14 UNL     1      16.492 -10.361  20.216  1.00  0.00     0.139 A 
HETATM   32  C24 UNL     1      17.178  -9.156  21.934  1.00  0.00     0.126 A 
HETATM   33  N10 UNL     1      15.443  -9.626  20.725  1.00  0.00    -0.327 N 
HETATM   34  C23 UNL     1      15.842  -8.895  21.757  1.00  0.00     0.149 A 
ATOM     35  H10 UNL     1      14.492  -9.641  20.358  1.00  0.00     0.168 HD
HETATM   36  N11 UNL     1      15.058  -8.008  22.546  1.00  0.00    -0.080 NA
BRANCH  31  37
HETATM   37  C15 UNL     1      16.326 -11.275  19.098  1.00  0.00     0.010 A 
HETATM   38  C16 UNL     1      15.022 -11.709  18.809  1.00  0.00     0.017 A 
HETATM   39  C17 UNL     1      14.748 -12.528  17.741  1.00  0.00     0.030 A 
HETATM   40  C18 UNL     1      15.733 -12.975  16.890  1.00  0.00     0.029 A 
HETATM   41  C21 UNL     1      17.006 -12.557  17.163  1.00  0.00     0.030 A 
HETATM   42  C22 UNL     1      17.299 -11.718  18.252  1.00  0.00     0.017 A 
BRANCH  40  43
HETATM   43  N9  UNL     1      15.408 -13.822  15.800  1.00  0.00    -0.390 N 
HETATM   44  C19 UNL     1      14.200 -13.474  15.035  1.00  0.00     0.149 C 
HETATM   45  C20 UNL     1      16.198 -14.976  15.429  1.00  0.00     0.149 C 
ENDBRANCH  40  43
ENDBRANCH  31  37
ENDBRANCH   1  25
TORSDOF 7
ENDMDL
MODEL 3
REMARK VINA RESULT: -9.679175923      3.011      9.525
REMARK  7 active torsions:
REMARK  status: ('A' for Active; 'I' for Inactive)
REMARK    1  A    between atoms: C3_7  and  N3_8 
REMARK    2  A    between atoms: C7_16  and  C8_17 
REMARK    3  A    between atoms: C9_18  and  C10_19 
REMARK    4  A    between atoms: C10_19  and  N6_20 
REMARK    5  A    between atoms: N6_20  and  C11_22 
REMARK    6  A    between atoms: C14_28  and  C15_29 
REMARK    7  A    between atoms: C18_32  and  N9_33 
ROOT
HETATM    1  N6  UNL     1       9.411  -8.528  23.922  1.00  0.00    -0.378 N 
ATOM      2  H6  UNL     1       8.984  -7.773  23.384  1.00  0.00     0.160 HD
ENDROOT
BRANCH   1   3
HETATM    3  C10 UNL     1       9.539  -9.781  23.235  1.00  0.00     0.215 C 
BRANCH   3   4
HETATM    4  C9  UNL     1      10.844  -9.906  22.556  1.00  0.00    -0.079 C 
HETATM    5  C8  UNL     1      11.916 -10.036  22.005  1.00  0.00    -0.028 C 
BRANCH   5   6
HETATM    6  C7  UNL     1      13.184 -10.220  21.359  1.00  0.00     0.163 A 
HETATM    7  N5  UNL     1      13.538 -10.939  20.294  1.00  0.00    -0.319 N 
HETATM    8  C6  UNL     1      14.842 -10.826  20.035  1.00  0.00     0.156 A 
ATOM      9  H5  UNL     1      12.891 -11.505  19.745  1.00  0.00     0.169 HD
HETATM   10  N4  UNL     1      15.608 -11.366  19.080  1.00  0.00    -0.170 N 
HETATM   11  C25 UNL     1      15.353  -9.964  21.017  1.00  0.00     0.124 A 
HETATM   12  C3  UNL     1      16.910 -11.050  19.094  1.00  0.00     0.682 A 
HETATM   13  C5  UNL     1      15.035 -12.243  18.095  1.00  0.00     0.177 C 
HETATM   14  N2  UNL     1      17.438 -10.240  20.003  1.00  0.00    -0.174 N 
HETATM   15  C2  UNL     1      16.683  -9.664  21.001  1.00  0.00     0.147 A 
ATOM     16  H2  UNL     1      18.437 -10.037  19.961  1.00  0.00     0.186 HD
HETATM   17  N1  UNL     1      17.245  -8.912  21.824  1.00  0.00    -0.378 N 
HETATM   18  C1  UNL     1      16.822  -8.177  22.931  1.00  0.00     0.147 C 
ATOM     19  H1  UNL     1      18.245  -8.813  21.646  1.00  0.00     0.160 HD
HETATM   20  N12 UNL     1      14.320  -9.615  21.805  1.00  0.00    -0.329 N 
ATOM     21  H12 UNL     1      14.379  -8.994  22.612  1.00  0.00     0.168 HD
BRANCH  12  22
HETATM   22  N3  UNL     1      17.684 -11.567  18.172  1.00  0.00    -0.230 N 
HETATM   23  C4  UNL     1      19.114 -11.523  18.297  1.00  0.00     0.165 C 
ATOM     24  H3  UNL     1      17.264 -12.007  17.353  1.00  0.00     0.177 HD
ENDBRANCH  12  22
ENDBRANCH   5   6
ENDBRANCH   3   4
ENDBRANCH   1   3
BRANCH   1  25
HETATM   25  C11 UNL     1       9.751  -8.233  25.090  1.00  0.00     0.062 A 
HETATM   26  C12 UNL     1       9.376  -8.963  26.176  1.00  0.00     0.050 A 
HETATM   27  C13 UNL     1       9.788  -8.535  27.434  1.00  0.00     0.110 A 
HETATM   28  N7  UNL     1      10.547  -7.413  27.545  1.00  0.00    -0.303 N 
HETATM   29  N8  UNL     1      10.926  -6.684  26.507  1.00  0.00    -0.234 N 
ATOM     30  H7  UNL     1      10.839  -7.116  28.476  1.00  0.00     0.186 HD
HETATM   31  C14 UNL     1      11.674  -5.576  26.424  1.00  0.00     0.139 A 
HETATM   32  C24 UNL     1      10.533  -7.091  25.295  1.00  0.00     0.126 A 
HETATM   33  N10 UNL     1      11.738  -5.304  25.074  1.00  0.00    -0.327 N 
HETATM   34  C23 UNL     1      11.055  -6.207  24.384  1.00  0.00     0.149 A 
ATOM     35  H10 UNL     1      12.241  -4.518  24.664  1.00  0.00     0.168 HD
HETATM   36  N11 UNL     1      10.882  -6.270  22.973  1.00  0.00    -0.080 NA
BRANCH  31  37
HETATM   37  C15 UNL     1      12.362  -4.761  27.411  1.00  0.00     0.010 A 
HETATM   38  C16 UNL     1      13.514  -5.303  28.004  1.00  0.00     0.017 A 
HETATM   39  C17 UNL     1      14.270  -4.595  28.907  1.00  0.00     0.030 A 
HETATM   40  C18 UNL     1      13.945  -3.313  29.287  1.00  0.00     0.029 A 
HETATM   41  C21 UNL     1      12.825  -2.776  28.713  1.00  0.00     0.030 A 
HETATM   42  C22 UNL     1      12.045  -3.490  27.788  1.00  0.00     0.017 A 
BRANCH  40  43
HETATM   43  N9  UNL     1      14.751  -2.618  30.224  1.00  0.00    -0.390 N 
HETATM   44  C19 UNL     1      14.321  -1.255  30.576  1.00  0.00     0.149 C 
HETATM   45  C20 UNL     1      15.937  -3.186  30.826  1.00  0.00     0.149 C 
ENDBRANCH  40  43
ENDBRANCH  31  37
ENDBRANCH   1  25
TORSDOF 7
ENDMDL
MODEL 4
REMARK VINA RESULT: -9.673708732      2.622      9.370
REMARK  7 active torsions:
REMARK  status: ('A' for Active; 'I' for Inactive)
REMARK    1  A    between atoms: C3_7  and  N3_8 
REMARK    2  A    between atoms: C7_16  and  C8_17 
REMARK    3  A    between atoms: C9_18  and  C10_19 
REMARK    4  A    between atoms: C10_19  and  N6_20 
REMARK    5  A    between atoms: N6_20  and  C11_22 
REMARK    6  A    between atoms: C14_28  and  C15_29 
REMARK    7  A    between atoms: C18_32  and  N9_33 
ROOT
HETATM    1  N6  UNL     1       9.147  -8.771  22.660  1.00  0.00    -0.378 N 
ATOM      2  H6  UNL     1       8.652  -7.958  22.293  1.00  0.00     0.160 HD
ENDROOT
BRANCH   1   3
HETATM    3  C10 UNL     1       9.310  -9.862  21.743  1.00  0.00     0.215 C 
BRANCH   3   4
HETATM    4  C9  UNL     1      10.723 -10.053  21.360  1.00  0.00    -0.079 C 
HETATM    5  C8  UNL     1      11.891 -10.200  21.071  1.00  0.00    -0.028 C 
BRANCH   5   6
HETATM    6  C7  UNL     1      13.282 -10.365  20.758  1.00  0.00     0.163 A 
HETATM    7  N5  UNL     1      14.380  -9.855  21.313  1.00  0.00    -0.319 N 
HETATM    8  C6  UNL     1      15.485 -10.277  20.696  1.00  0.00     0.156 A 
ATOM      9  H5  UNL     1      14.376  -9.220  22.112  1.00  0.00     0.169 HD
HETATM   10  N4  UNL     1      16.780 -10.020  20.917  1.00  0.00    -0.170 N 
HETATM   11  C25 UNL     1      15.048 -11.124  19.667  1.00  0.00     0.124 A 
HETATM   12  C3  UNL     1      17.665 -10.610  20.103  1.00  0.00     0.682 A 
HETATM   13  C5  UNL     1      17.177  -9.144  21.988  1.00  0.00     0.177 C 
HETATM   14  N2  UNL     1      17.299 -11.417  19.117  1.00  0.00    -0.174 N 
HETATM   15  C2  UNL     1      15.977 -11.708  18.857  1.00  0.00     0.147 A 
ATOM     16  H2  UNL     1      18.020 -11.838  18.530  1.00  0.00     0.186 HD
HETATM   17  N1  UNL     1      15.704 -12.476  17.911  1.00  0.00    -0.378 N 
HETATM   18  C1  UNL     1      14.524 -12.982  17.368  1.00  0.00     0.147 C 
ATOM     19  H1  UNL     1      16.535 -12.810  17.424  1.00  0.00     0.160 HD
HETATM   20  N12 UNL     1      13.705 -11.155  19.731  1.00  0.00    -0.329 N 
ATOM     21  H12 UNL     1      13.098 -11.688  19.109  1.00  0.00     0.168 HD
BRANCH  12  22
HETATM   22  N3  UNL     1      18.940 -10.372  20.296  1.00  0.00    -0.230 N 
HETATM   23  C4  UNL     1      19.945 -11.185  19.670  1.00  0.00     0.165 C 
ATOM     24  H3  UNL     1      19.222  -9.600  20.899  1.00  0.00     0.177 HD
ENDBRANCH  12  22
ENDBRANCH   5   6
ENDBRANCH   3   4
ENDBRANCH   1   3
BRANCH   1  25
HETATM   25  C11 UNL     1       9.529  -8.680  23.849  1.00  0.00     0.062 A 
HETATM   26  C12 UNL     1       9.100  -9.520  24.830  1.00  0.00     0.050 A 
HETATM   27  C13 UNL     1       9.567  -9.318  26.125  1.00  0.00     0.110 A 
HETATM   28  N7  UNL     1      10.431  -8.299  26.373  1.00  0.00    -0.303 N 
HETATM   29  N8  UNL     1      10.865  -7.466  25.439  1.00  0.00    -0.234 N 
ATOM     30  H7  UNL     1      10.762  -8.167  27.329  1.00  0.00     0.186 HD
HETATM   31  C14 UNL     1      11.714  -6.432  25.495  1.00  0.00     0.139 A 
HETATM   32  C24 UNL     1      10.419  -7.657  24.192  1.00  0.00     0.126 A 
HETATM   33  N10 UNL     1      11.786  -5.977  24.196  1.00  0.00    -0.327 N 
HETATM   34  C23 UNL     1      11.011  -6.703  23.403  1.00  0.00     0.149 A 
ATOM     35  H10 UNL     1      12.357  -5.190  23.888  1.00  0.00     0.168 HD
HETATM   36  N11 UNL     1      10.816  -6.547  22.002  1.00  0.00    -0.080 NA
BRANCH  31  37
HETATM   37  C15 UNL     1      12.490  -5.835  26.569  1.00  0.00     0.010 A 
HETATM   38  C16 UNL     1      13.799  -6.307  26.758  1.00  0.00     0.017 A 
HETATM   39  C17 UNL     1      14.636  -5.773  27.707  1.00  0.00     0.030 A 
HETATM   40  C18 UNL     1      14.244  -4.744  28.532  1.00  0.00     0.029 A 
HETATM   41  C21 UNL     1      12.971  -4.276  28.355  1.00  0.00     0.030 A 
HETATM   42  C22 UNL     1      12.106  -4.814  27.386  1.00  0.00     0.017 A 
BRANCH  40  43
HETATM   43  N9  UNL     1      15.137  -4.223  29.502  1.00  0.00    -0.390 N 
HETATM   44  C19 UNL     1      16.292  -5.067  29.852  1.00  0.00     0.149 C 
HETATM   45  C20 UNL     1      14.959  -2.935  30.135  1.00  0.00     0.149 C 
ENDBRANCH  40  43
ENDBRANCH  31  37
ENDBRANCH   1  25
TORSDOF 7
ENDMDL
MODEL 5
REMARK VINA RESULT: -9.645997349      3.076      9.884
REMARK  7 active torsions:
REMARK  status: ('A' for Active; 'I' for Inactive)
REMARK    1  A    between atoms: C3_7  and  N3_8 
REMARK    2  A    between atoms: C7_16  and  C8_17 
REMARK    3  A    between atoms: C9_18  and  C10_19 
REMARK    4  A    between atoms: C10_19  and  N6_20 
REMARK    5  A    between atoms: N6_20  and  C11_22 
REMARK    6  A    between atoms: C14_28  and  C15_29 
REMARK    7  A    between atoms: C18_32  and  N9_33 
ROOT
HETATM    1  N6  UNL     1      16.047  -7.470  23.592  1.00  0.00    -0.378 N 
ATOM      2  H6  UNL     1      15.320  -7.212  22.925  1.00  0.00     0.160 HD
ENDROOT
BRANCH   1   3
HETATM    3  C10 UNL     1      17.296  -7.881  23.018  1.00  0.00     0.215 C 
BRANCH   3   4
HETATM    4  C9  UNL     1      17.106  -8.859  21.928  1.00  0.00    -0.079 C 
HETATM    5  C8  UNL     1      16.978  -9.666  21.034  1.00  0.00    -0.028 C 
BRANCH   5   6
HETATM    6  C7  UNL     1      16.857 -10.628  19.975  1.00  0.00     0.163 A 
HETATM    7  N5  UNL     1      15.809 -11.022  19.254  1.00  0.00    -0.319 N 
HETATM    8  C6  UNL     1      16.148 -11.955  18.362  1.00  0.00     0.156 A 
ATOM      9  H5  UNL     1      14.864 -10.655  19.369  1.00  0.00     0.169 HD
HETATM   10  N4  UNL     1      15.425 -12.618  17.451  1.00  0.00    -0.170 N 
HETATM   11  C25 UNL     1      17.523 -12.166  18.535  1.00  0.00     0.124 A 
HETATM   12  C3  UNL     1      16.074 -13.512  16.693  1.00  0.00     0.682 A 
HETATM   13  C5  UNL     1      14.016 -12.363  17.313  1.00  0.00     0.177 C 
HETATM   14  N2  UNL     1      17.374 -13.746  16.821  1.00  0.00    -0.174 N 
HETATM   15  C2  UNL     1      18.152 -13.084  17.746  1.00  0.00     0.147 A 
ATOM     16  H2  UNL     1      17.812 -14.439  16.214  1.00  0.00     0.186 HD
HETATM   17  N1  UNL     1      19.369 -13.355  17.812  1.00  0.00    -0.378 N 
HETATM   18  C1  UNL     1      20.433 -12.906  18.594  1.00  0.00     0.147 C 
ATOM     19  H1  UNL     1      19.650 -14.068  17.140  1.00  0.00     0.160 HD
HETATM   20  N12 UNL     1      17.923 -11.345  19.522  1.00  0.00    -0.329 N 
ATOM     21  H12 UNL     1      18.877 -11.271  19.877  1.00  0.00     0.168 HD
BRANCH  12  22
HETATM   22  N3  UNL     1      15.389 -14.178  15.795  1.00  0.00    -0.230 N 
HETATM   23  C4  UNL     1      15.528 -13.886  14.396  1.00  0.00     0.165 C 
ATOM     24  H3  UNL     1      14.749 -14.913  16.095  1.00  0.00     0.177 HD
ENDBRANCH  12  22
ENDBRANCH   5   6
ENDBRANCH   3   4
ENDBRANCH   1   3
BRANCH   1  25
HETATM   25  C11 UNL     1      15.727  -7.384  24.799  1.00  0.00     0.062 A 
HETATM   26  C12 UNL     1      16.641  -7.283  25.802  1.00  0.00     0.050 A 
HETATM   27  C13 UNL     1      16.181  -7.217  27.113  1.00  0.00     0.110 A 
HETATM   28  N7  UNL     1      14.844  -7.256  27.356  1.00  0.00    -0.303 N 
HETATM   29  N8  UNL     1      13.932  -7.355  26.401  1.00  0.00    -0.234 N 
ATOM     30  H7  UNL     1      14.526  -7.207  28.324  1.00  0.00     0.186 HD
HETATM   31  C14 UNL     1      12.594  -7.390  26.450  1.00  0.00     0.139 A 
HETATM   32  C24 UNL     1      14.370  -7.417  25.138  1.00  0.00     0.126 A 
HETATM   33  N10 UNL     1      12.204  -7.474  25.130  1.00  0.00    -0.327 N 
HETATM   34  C23 UNL     1      13.262  -7.492  24.331  1.00  0.00     0.149 A 
ATOM     35  H10 UNL     1      11.236  -7.516  24.813  1.00  0.00     0.168 HD
HETATM   36  N11 UNL     1      13.274  -7.572  22.910  1.00  0.00    -0.080 NA
BRANCH  31  37
HETATM   37  C15 UNL     1      11.633  -7.322  27.538  1.00  0.00     0.010 A 
HETATM   38  C16 UNL     1      10.514  -8.167  27.463  1.00  0.00     0.017 A 
HETATM   39  C17 UNL     1       9.574  -8.221  28.464  1.00  0.00     0.030 A 
HETATM   40  C18 UNL     1       9.671  -7.451  29.600  1.00  0.00     0.029 A 
HETATM   41  C21 UNL     1      10.758  -6.625  29.683  1.00  0.00     0.030 A 
HETATM   42  C22 UNL     1      11.726  -6.562  28.665  1.00  0.00     0.017 A 
BRANCH  40  43
HETATM   43  N9  UNL     1       8.677  -7.535  30.609  1.00  0.00    -0.390 N 
HETATM   44  C19 UNL     1       8.507  -6.348  31.462  1.00  0.00     0.149 C 
HETATM   45  C20 UNL     1       7.855  -8.706  30.817  1.00  0.00     0.149 C 
ENDBRANCH  40  43
ENDBRANCH  31  37
ENDBRANCH   1  25
TORSDOF 7
ENDMDL
