MODEL 1
REMARK VINA RESULT: -8.749893281      0.000      0.000
REMARK  4 active torsions:
REMARK  status: ('A' for Active; 'I' for Inactive)
REMARK    1  A    between atoms: C1_1  and  C9_9 
REMARK    2  A    between atoms: C2_2  and  C3_3 
REMARK    3  A    between atoms: C9_9  and  N1_10 
REMARK    4  A    between atoms: C14_17  and  C15_18 
ROOT
HETATM    1  N1  UNL     1      14.172  -6.190  24.203  1.00  0.00    -0.363 N 
HETATM    2  C10 UNL     1      14.526  -4.785  24.126  1.00  0.00     0.125 C 
HETATM    3  C11 UNL     1      13.459  -4.080  23.317  1.00  0.00     0.026 C 
HETATM    4  C12 UNL     1      12.071  -4.498  23.741  1.00  0.00     0.061 C 
HETATM    5  C13 UNL     1      11.875  -5.946  23.346  1.00  0.00     0.044 A 
HETATM    6  N2  UNL     1      10.841  -6.511  22.814  1.00  0.00    -0.350 N 
ATOM      7  H2  UNL     1      10.008  -5.959  22.605  1.00  0.00     0.166 HD
HETATM    8  C14 UNL     1      10.863  -7.804  22.539  1.00  0.00     0.095 A 
HETATM    9  S2  UNL     1      12.419  -8.266  23.052  1.00  0.00    -0.051 SA
HETATM   10  C18 UNL     1      12.971  -6.727  23.608  1.00  0.00     0.097 A 
ENDROOT
BRANCH   1  11
HETATM   11  C9  UNL     1      15.006  -7.160  24.885  1.00  0.00     0.217 C 
BRANCH  11  12
HETATM   12  C1  UNL     1      15.696  -7.955  23.857  1.00  0.00    -0.086 C 
HETATM   13  C2  UNL     1      16.253  -8.632  23.014  1.00  0.00    -0.100 C 
BRANCH  13  14
HETATM   14  C3  UNL     1      16.904  -9.467  22.005  1.00  0.00     0.065 C 
HETATM   15  C4  UNL     1      18.377  -9.234  22.055  1.00  0.00     0.017 C 
HETATM   16  C5  UNL     1      19.057 -10.174  21.078  1.00  0.00     0.001 C 
HETATM   17  C6  UNL     1      18.063 -10.966  20.279  1.00  0.00     0.000 C 
HETATM   18  C7  UNL     1      17.038 -10.068  19.636  1.00  0.00     0.001 C 
HETATM   19  C8  UNL     1      16.416  -9.095  20.612  1.00  0.00     0.017 C 
ENDBRANCH  13  14
ENDBRANCH  11  12
ENDBRANCH   1  11
BRANCH   8  20
HETATM   20  C15 UNL     1       9.743  -8.536  21.936  1.00  0.00     0.055 A 
HETATM   21  C16 UNL     1       9.309  -8.493  20.630  1.00  0.00     0.109 A 
HETATM   22  N3  UNL     1       8.293  -9.228  20.316  1.00  0.00    -0.368 N 
HETATM   23  C17 UNL     1       7.710  -9.983  21.234  1.00  0.00     0.138 A 
ATOM     24  H3  UNL     1       7.939  -9.226  19.359  1.00  0.00     0.165 HD
HETATM   25  S1  UNL     1       8.642  -9.643  22.625  1.00  0.00    -0.081 SA
ENDBRANCH   8  20
TORSDOF 4
ENDMDL
MODEL 2
REMARK VINA RESULT: -8.582239158      3.776      6.142
REMARK  4 active torsions:
REMARK  status: ('A' for Active; 'I' for Inactive)
REMARK    1  A    between atoms: C1_1  and  C9_9 
REMARK    2  A    between atoms: C2_2  and  C3_3 
REMARK    3  A    between atoms: C9_9  and  N1_10 
REMARK    4  A    between atoms: C14_17  and  C15_18 
ROOT
HETATM    1  N1  UNL     1      14.694 -10.342  20.755  1.00  0.00    -0.363 N 
HETATM    2  C10 UNL     1      16.021 -10.203  20.186  1.00  0.00     0.125 C 
HETATM    3  C11 UNL     1      16.715  -9.061  20.894  1.00  0.00     0.026 C 
HETATM    4  C12 UNL     1      16.528  -9.138  22.390  1.00  0.00     0.061 C 
HETATM    5  C13 UNL     1      15.069  -8.872  22.697  1.00  0.00     0.044 A 
HETATM    6  N2  UNL     1      14.554  -8.148  23.635  1.00  0.00    -0.350 N 
ATOM      7  H2  UNL     1      15.161  -7.660  24.295  1.00  0.00     0.166 HD
HETATM    8  C14 UNL     1      13.240  -8.040  23.740  1.00  0.00     0.095 A 
HETATM    9  S2  UNL     1      12.685  -9.004  22.453  1.00  0.00    -0.051 SA
HETATM   10  C18 UNL     1      14.216  -9.509  21.833  1.00  0.00     0.097 A 
ENDROOT
BRANCH   1  11
HETATM   11  C9  UNL     1      13.748 -11.331  20.277  1.00  0.00     0.217 C 
BRANCH  11  12
HETATM   12  C1  UNL     1      14.246 -11.837  18.988  1.00  0.00    -0.086 C 
HETATM   13  C2  UNL     1      14.637 -12.271  17.921  1.00  0.00    -0.100 C 
BRANCH  13  14
HETATM   14  C3  UNL     1      15.083 -12.803  16.634  1.00  0.00     0.065 C 
HETATM   15  C4  UNL     1      13.906 -12.934  15.727  1.00  0.00     0.017 C 
HETATM   16  C5  UNL     1      14.385 -13.391  14.362  1.00  0.00     0.001 C 
HETATM   17  C6  UNL     1      15.857 -13.684  14.354  1.00  0.00     0.000 C 
HETATM   18  C7  UNL     1      16.234 -14.623  15.470  1.00  0.00     0.001 C 
HETATM   19  C8  UNL     1      15.695 -14.185  16.814  1.00  0.00     0.017 C 
ENDBRANCH  13  14
ENDBRANCH  11  12
ENDBRANCH   1  11
BRANCH   8  20
HETATM   20  C15 UNL     1      12.561  -7.243  24.768  1.00  0.00     0.055 A 
HETATM   21  C16 UNL     1      12.764  -7.267  26.130  1.00  0.00     0.109 A 
HETATM   22  N3  UNL     1      12.046  -6.472  26.853  1.00  0.00    -0.368 N 
HETATM   23  C17 UNL     1      11.157  -5.674  26.281  1.00  0.00     0.138 A 
ATOM     24  H3  UNL     1      12.165  -6.458  27.866  1.00  0.00     0.165 HD
HETATM   25  S1  UNL     1      11.335  -6.063  24.627  1.00  0.00    -0.081 SA
ENDBRANCH   8  20
TORSDOF 4
ENDMDL
MODEL 3
REMARK VINA RESULT: -8.475736320      3.886      4.928
REMARK  4 active torsions:
REMARK  status: ('A' for Active; 'I' for Inactive)
REMARK    1  A    between atoms: C1_1  and  C9_9 
REMARK    2  A    between atoms: C2_2  and  C3_3 
REMARK    3  A    between atoms: C9_9  and  N1_10 
REMARK    4  A    between atoms: C14_17  and  C15_18 
ROOT
HETATM    1  N1  UNL     1      11.821  -8.284  23.350  1.00  0.00    -0.363 N 
HETATM    2  C10 UNL     1      11.457  -9.129  22.228  1.00  0.00     0.125 C 
HETATM    3  C11 UNL     1      10.279  -9.980  22.650  1.00  0.00     0.026 C 
HETATM    4  C12 UNL     1       9.230  -9.164  23.365  1.00  0.00     0.061 C 
HETATM    5  C13 UNL     1       9.803  -8.722  24.695  1.00  0.00     0.044 A 
HETATM    6  N2  UNL     1       9.237  -8.698  25.857  1.00  0.00    -0.350 N 
ATOM      7  H2  UNL     1       8.271  -9.007  25.961  1.00  0.00     0.166 HD
HETATM    8  C14 UNL     1       9.913  -8.272  26.912  1.00  0.00     0.095 A 
HETATM    9  S2  UNL     1      11.429  -7.881  26.247  1.00  0.00    -0.051 SA
HETATM   10  C18 UNL     1      11.103  -8.297  24.603  1.00  0.00     0.097 A 
ENDROOT
BRANCH   1  11
HETATM   11  C9  UNL     1      12.938  -7.362  23.292  1.00  0.00     0.217 C 
BRANCH  11  12
HETATM   12  C1  UNL     1      14.106  -8.109  22.797  1.00  0.00    -0.086 C 
HETATM   13  C2  UNL     1      15.083  -8.704  22.385  1.00  0.00    -0.100 C 
BRANCH  13  14
HETATM   14  C3  UNL     1      16.274  -9.396  21.894  1.00  0.00     0.065 C 
HETATM   15  C4  UNL     1      17.490  -8.682  22.380  1.00  0.00     0.017 C 
HETATM   16  C5  UNL     1      18.721  -9.458  21.954  1.00  0.00     0.001 C 
HETATM   17  C6  UNL     1      18.370 -10.632  21.086  1.00  0.00     0.000 C 
HETATM   18  C7  UNL     1      17.491 -10.218  19.935  1.00  0.00     0.001 C 
HETATM   19  C8  UNL     1      16.302  -9.391  20.372  1.00  0.00     0.017 C 
ENDBRANCH  13  14
ENDBRANCH  11  12
ENDBRANCH   1  11
BRANCH   8  20
HETATM   20  C15 UNL     1       9.360  -8.207  28.270  1.00  0.00     0.055 A 
HETATM   21  C16 UNL     1       8.404  -9.021  28.834  1.00  0.00     0.109 A 
HETATM   22  N3  UNL     1       8.065  -8.780  30.059  1.00  0.00    -0.368 N 
HETATM   23  C17 UNL     1       8.631  -7.782  30.721  1.00  0.00     0.138 A 
ATOM     24  H3  UNL     1       7.360  -9.359  30.515  1.00  0.00     0.165 HD
HETATM   25  S1  UNL     1       9.705  -7.141  29.557  1.00  0.00    -0.081 SA
ENDBRANCH   8  20
TORSDOF 4
ENDMDL
MODEL 4
REMARK VINA RESULT: -8.448283740      3.009      5.517
REMARK  4 active torsions:
REMARK  status: ('A' for Active; 'I' for Inactive)
REMARK    1  A    between atoms: C1_1  and  C9_9 
REMARK    2  A    between atoms: C2_2  and  C3_3 
REMARK    3  A    between atoms: C9_9  and  N1_10 
REMARK    4  A    between atoms: C14_17  and  C15_18 
ROOT
HETATM    1  N1  UNL     1      11.788  -9.069  21.694  1.00  0.00    -0.363 N 
HETATM    2  C10 UNL     1      10.709  -9.532  20.841  1.00  0.00     0.125 C 
HETATM    3  C11 UNL     1       9.783  -8.363  20.586  1.00  0.00     0.026 C 
HETATM    4  C12 UNL     1      10.551  -7.111  20.236  1.00  0.00     0.061 C 
HETATM    5  C13 UNL     1      11.307  -6.663  21.470  1.00  0.00     0.044 A 
HETATM    6  N2  UNL     1      11.456  -5.469  21.942  1.00  0.00    -0.350 N 
ATOM      7  H2  UNL     1      11.030  -4.674  21.466  1.00  0.00     0.166 HD
HETATM    8  C14 UNL     1      12.162  -5.279  23.045  1.00  0.00     0.095 A 
HETATM    9  S2  UNL     1      12.647  -6.859  23.451  1.00  0.00    -0.051 SA
HETATM   10  C18 UNL     1      11.896  -7.701  22.143  1.00  0.00     0.097 A 
ENDROOT
BRANCH   1  11
HETATM   11  C9  UNL     1      12.840  -9.952  22.158  1.00  0.00     0.217 C 
BRANCH  11  12
HETATM   12  C1  UNL     1      13.357 -10.681  20.989  1.00  0.00    -0.086 C 
HETATM   13  C2  UNL     1      13.799 -11.297  20.038  1.00  0.00    -0.100 C 
BRANCH  13  14
HETATM   14  C3  UNL     1      14.342 -12.057  18.913  1.00  0.00     0.065 C 
HETATM   15  C4  UNL     1      15.799 -11.764  18.784  1.00  0.00     0.017 C 
HETATM   16  C5  UNL     1      16.380 -12.629  17.681  1.00  0.00     0.001 C 
HETATM   17  C6  UNL     1      15.320 -13.426  16.978  1.00  0.00     0.000 C 
HETATM   18  C7  UNL     1      14.187 -12.545  16.519  1.00  0.00     0.001 C 
HETATM   19  C8  UNL     1      13.663 -11.645  17.615  1.00  0.00     0.017 C 
ENDBRANCH  13  14
ENDBRANCH  11  12
ENDBRANCH   1  11
BRANCH   8  20
HETATM   20  C15 UNL     1      12.388  -3.966  23.659  1.00  0.00     0.055 A 
HETATM   21  C16 UNL     1      13.549  -3.482  24.220  1.00  0.00     0.109 A 
HETATM   22  N3  UNL     1      13.522  -2.285  24.707  1.00  0.00    -0.368 N 
HETATM   23  C17 UNL     1      12.406  -1.573  24.656  1.00  0.00     0.138 A 
ATOM     24  H3  UNL     1      14.360  -1.888  25.131  1.00  0.00     0.165 HD
HETATM   25  S1  UNL     1      11.328  -2.646  23.878  1.00  0.00    -0.081 SA
ENDBRANCH   8  20
TORSDOF 4
ENDMDL
MODEL 5
REMARK VINA RESULT: -8.354869307      0.631      1.208
REMARK  4 active torsions:
REMARK  status: ('A' for Active; 'I' for Inactive)
REMARK    1  A    between atoms: C1_1  and  C9_9 
REMARK    2  A    between atoms: C2_2  and  C3_3 
REMARK    3  A    between atoms: C9_9  and  N1_10 
REMARK    4  A    between atoms: C14_17  and  C15_18 
ROOT
HETATM    1  N1  UNL     1      14.298  -6.492  23.977  1.00  0.00    -0.363 N 
HETATM    2  C10 UNL     1      14.606  -5.077  24.065  1.00  0.00     0.125 C 
HETATM    3  C11 UNL     1      13.438  -4.310  23.486  1.00  0.00     0.026 C 
HETATM    4  C12 UNL     1      12.118  -4.839  23.993  1.00  0.00     0.061 C 
HETATM    5  C13 UNL     1      11.914  -6.224  23.416  1.00  0.00     0.044 A 
HETATM    6  N2  UNL     1      10.840  -6.750  22.923  1.00  0.00    -0.350 N 
ATOM      7  H2  UNL     1       9.976  -6.208  22.887  1.00  0.00     0.166 HD
HETATM    8  C14 UNL     1      10.864  -7.990  22.465  1.00  0.00     0.095 A 
HETATM    9  S2  UNL     1      12.478  -8.455  22.735  1.00  0.00    -0.051 SA
HETATM   10  C18 UNL     1      13.051  -6.988  23.444  1.00  0.00     0.097 A 
ENDROOT
BRANCH   1  11
HETATM   11  C9  UNL     1      15.227  -7.514  24.419  1.00  0.00     0.217 C 
BRANCH  11  12
HETATM   12  C1  UNL     1      15.804  -8.140  23.218  1.00  0.00    -0.086 C 
HETATM   13  C2  UNL     1      16.276  -8.680  22.236  1.00  0.00    -0.100 C 
BRANCH  13  14
HETATM   14  C3  UNL     1      16.832  -9.354  21.063  1.00  0.00     0.065 C 
HETATM   15  C4  UNL     1      15.896 -10.431  20.630  1.00  0.00     0.017 C 
HETATM   16  C5  UNL     1      16.425 -11.061  19.356  1.00  0.00     0.001 C 
HETATM   17  C6  UNL     1      17.767 -10.507  18.974  1.00  0.00     0.000 C 
HETATM   18  C7  UNL     1      18.736 -10.575  20.126  1.00  0.00     0.001 C 
HETATM   19  C8  UNL     1      18.167  -9.999  21.404  1.00  0.00     0.017 C 
ENDBRANCH  13  14
ENDBRANCH  11  12
ENDBRANCH   1  11
BRANCH   8  20
HETATM   20  C15 UNL     1       9.701  -8.674  21.887  1.00  0.00     0.055 A 
HETATM   21  C16 UNL     1       9.235  -8.605  20.593  1.00  0.00     0.109 A 
HETATM   22  N3  UNL     1       8.184  -9.299  20.301  1.00  0.00    -0.368 N 
HETATM   23  C17 UNL     1       7.597 -10.039  21.230  1.00  0.00     0.138 A 
ATOM     24  H3  UNL     1       7.805  -9.277  19.354  1.00  0.00     0.165 HD
HETATM   25  S1  UNL     1       8.578  -9.744  22.598  1.00  0.00    -0.081 SA
ENDBRANCH   8  20
TORSDOF 4
ENDMDL
