MODEL 1
REMARK VINA RESULT: -8.284691343      0.000      0.000
REMARK  4 active torsions:
REMARK  status: ('A' for Active; 'I' for Inactive)
REMARK    1  A    between atoms: C3_3  and  O1_4 
REMARK    2  A    between atoms: O1_4  and  C4_5 
REMARK    3  A    between atoms: N1_15  and  O3_17 
REMARK    4  A    between atoms: O3_17  and  C13_18 
ROOT
HETATM    1  C1  UNL     1      13.223  -7.257  27.417  1.00  0.00     0.017 C 
HETATM    2  C2  UNL     1      12.032  -7.003  26.895  1.00  0.00    -0.056 C 
HETATM    3  C3  UNL     1      11.005  -6.445  27.821  1.00  0.00     0.160 C 
HETATM    4  C6  UNL     1       9.754  -7.284  27.510  1.00  0.00     0.037 C 
HETATM    5  C7  UNL     1       9.330  -6.866  26.136  1.00  0.00     0.009 C 
HETATM    6  C8  UNL     1      10.339  -7.038  25.062  1.00  0.00    -0.001 C 
HETATM    7  C9  UNL     1      11.742  -7.260  25.481  1.00  0.00     0.021 C 
HETATM    8  C10 UNL     1      12.719  -6.368  24.696  1.00  0.00     0.015 C 
HETATM    9  C11 UNL     1      12.526  -6.527  23.212  1.00  0.00     0.056 C 
HETATM   10  C12 UNL     1      12.034  -7.909  22.982  1.00  0.00     0.019 C 
HETATM   11  N1  UNL     1      12.912  -8.840  22.832  1.00  0.00    -0.265 N 
ATOM     12  H1  UNL     1      12.637  -9.809  22.670  1.00  0.00     0.194 HD
HETATM   13  C15 UNL     1      10.635  -8.326  22.904  1.00  0.00     0.001 C 
HETATM   14  C16 UNL     1      10.019  -7.688  21.651  1.00  0.00     0.022 C 
HETATM   15  C17 UNL     1      10.558  -9.841  22.667  1.00  0.00     0.015 C 
HETATM   16  C18 UNL     1       9.333 -10.277  23.482  1.00  0.00     0.002 C 
HETATM   17  C19 UNL     1       9.549  -9.404  24.729  1.00  0.00     0.006 C 
HETATM   18  C20 UNL     1       9.812  -8.077  24.106  1.00  0.00     0.004 C 
ENDROOT
BRANCH  11  19
HETATM   19  O3  UNL     1      14.232  -8.473  22.901  1.00  0.00    -0.200 OA
BRANCH  19  20
HETATM   20  C13 UNL     1      15.213  -9.116  22.122  1.00  0.00     0.277 C 
HETATM   21  C14 UNL     1      16.654  -8.987  22.415  1.00  0.00     0.128 C 
HETATM   22  O4  UNL     1      14.772  -9.805  21.164  1.00  0.00    -0.264 OA
ENDBRANCH  19  20
ENDBRANCH  11  19
BRANCH   3  23
HETATM   23  O1  UNL     1      10.800  -5.098  27.412  1.00  0.00    -0.312 OA
BRANCH  23  24
HETATM   24  C4  UNL     1      10.252  -4.177  28.276  1.00  0.00     0.255 C 
HETATM   25  C5  UNL     1      10.290  -4.345  29.752  1.00  0.00     0.126 C 
HETATM   26  O2  UNL     1       9.701  -3.159  27.741  1.00  0.00    -0.266 OA
ENDBRANCH  23  24
ENDBRANCH   3  23
TORSDOF 4
ENDMDL
MODEL 2
REMARK VINA RESULT: -8.084922933      3.077      6.563
REMARK  4 active torsions:
REMARK  status: ('A' for Active; 'I' for Inactive)
REMARK    1  A    between atoms: C3_3  and  O1_4 
REMARK    2  A    between atoms: O1_4  and  C4_5 
REMARK    3  A    between atoms: N1_15  and  O3_17 
REMARK    4  A    between atoms: O3_17  and  C13_18 
ROOT
HETATM    1  C1  UNL     1      10.645  -7.108  27.654  1.00  0.00     0.017 C 
HETATM    2  C2  UNL     1      10.747  -6.843  26.359  1.00  0.00    -0.056 C 
HETATM    3  C3  UNL     1      10.832  -8.019  25.445  1.00  0.00     0.160 C 
HETATM    4  C6  UNL     1      11.987  -7.651  24.500  1.00  0.00     0.037 C 
HETATM    5  C7  UNL     1      11.468  -6.523  23.662  1.00  0.00     0.009 C 
HETATM    6  C8  UNL     1      11.010  -5.320  24.400  1.00  0.00    -0.001 C 
HETATM    7  C9  UNL     1      10.776  -5.467  25.855  1.00  0.00     0.021 C 
HETATM    8  C10 UNL     1       9.435  -4.847  26.283  1.00  0.00     0.015 C 
HETATM    9  C11 UNL     1       9.325  -3.420  25.820  1.00  0.00     0.056 C 
HETATM   10  C12 UNL     1      10.704  -2.871  25.766  1.00  0.00     0.019 C 
HETATM   11  N1  UNL     1      11.181  -2.346  26.841  1.00  0.00    -0.265 N 
ATOM     12  H1  UNL     1      12.122  -1.951  26.868  1.00  0.00     0.194 HD
HETATM   13  C15 UNL     1      11.586  -2.864  24.600  1.00  0.00     0.001 C 
HETATM   14  C16 UNL     1      10.967  -1.941  23.543  1.00  0.00     0.022 C 
HETATM   15  C17 UNL     1      12.928  -2.216  24.969  1.00  0.00     0.015 C 
HETATM   16  C18 UNL     1      13.958  -3.028  24.173  1.00  0.00     0.002 C 
HETATM   17  C19 UNL     1      13.364  -4.432  24.370  1.00  0.00     0.006 C 
HETATM   18  C20 UNL     1      11.934  -4.186  24.038  1.00  0.00     0.004 C 
ENDROOT
BRANCH  11  19
HETATM   19  O3  UNL     1      10.372  -2.340  27.949  1.00  0.00    -0.200 OA
BRANCH  19  20
HETATM   20  C13 UNL     1      10.628  -3.181  29.048  1.00  0.00     0.277 C 
HETATM   21  C14 UNL     1      11.931  -3.853  29.232  1.00  0.00     0.128 C 
HETATM   22  O4  UNL     1       9.672  -3.317  29.856  1.00  0.00    -0.264 OA
ENDBRANCH  19  20
ENDBRANCH  11  19
BRANCH   3  23
HETATM   23  O1  UNL     1       9.605  -8.044  24.725  1.00  0.00    -0.312 OA
BRANCH  23  24
HETATM   24  C4  UNL     1       9.102  -9.229  24.236  1.00  0.00     0.255 C 
HETATM   25  C5  UNL     1       8.688  -9.397  22.819  1.00  0.00     0.126 C 
HETATM   26  O2  UNL     1       9.007 -10.189  25.070  1.00  0.00    -0.266 OA
ENDBRANCH  23  24
ENDBRANCH   3  23
TORSDOF 4
ENDMDL
MODEL 3
REMARK VINA RESULT: -8.021299637      1.032      1.276
REMARK  4 active torsions:
REMARK  status: ('A' for Active; 'I' for Inactive)
REMARK    1  A    between atoms: C3_3  and  O1_4 
REMARK    2  A    between atoms: O1_4  and  C4_5 
REMARK    3  A    between atoms: N1_15  and  O3_17 
REMARK    4  A    between atoms: O3_17  and  C13_18 
ROOT
HETATM    1  C1  UNL     1      13.359  -7.521  27.065  1.00  0.00     0.017 C 
HETATM    2  C2  UNL     1      12.175  -7.190  26.571  1.00  0.00    -0.056 C 
HETATM    3  C3  UNL     1      11.225  -6.524  27.509  1.00  0.00     0.160 C 
HETATM    4  C6  UNL     1       9.904  -7.270  27.265  1.00  0.00     0.037 C 
HETATM    5  C7  UNL     1       9.468  -6.862  25.892  1.00  0.00     0.009 C 
HETATM    6  C8  UNL     1      10.424  -7.146  24.793  1.00  0.00    -0.001 C 
HETATM    7  C9  UNL     1      11.819  -7.466  25.176  1.00  0.00     0.021 C 
HETATM    8  C10 UNL     1      12.836  -6.679  24.333  1.00  0.00     0.015 C 
HETATM    9  C11 UNL     1      12.582  -6.866  22.862  1.00  0.00     0.056 C 
HETATM   10  C12 UNL     1      11.976  -8.211  22.692  1.00  0.00     0.019 C 
HETATM   11  N1  UNL     1      12.773  -9.213  22.547  1.00  0.00    -0.265 N 
ATOM     12  H1  UNL     1      12.418 -10.162  22.425  1.00  0.00     0.194 HD
HETATM   13  C15 UNL     1      10.547  -8.519  22.671  1.00  0.00     0.001 C 
HETATM   14  C16 UNL     1       9.942  -7.873  21.417  1.00  0.00     0.022 C 
HETATM   15  C17 UNL     1      10.344 -10.029  22.486  1.00  0.00     0.015 C 
HETATM   16  C18 UNL     1       9.117 -10.342  23.353  1.00  0.00     0.002 C 
HETATM   17  C19 UNL     1       9.441  -9.452  24.563  1.00  0.00     0.006 C 
HETATM   18  C20 UNL     1       9.787  -8.169  23.889  1.00  0.00     0.004 C 
ENDROOT
BRANCH  11  19
HETATM   19  O3  UNL     1      14.120  -8.950  22.563  1.00  0.00    -0.200 OA
BRANCH  19  20
HETATM   20  C13 UNL     1      14.934  -9.232  21.450  1.00  0.00     0.277 C 
HETATM   21  C14 UNL     1      14.745 -10.444  20.628  1.00  0.00     0.128 C 
HETATM   22  O4  UNL     1      15.830  -8.380  21.210  1.00  0.00    -0.264 OA
ENDBRANCH  19  20
ENDBRANCH  11  19
BRANCH   3  23
HETATM   23  O1  UNL     1      11.113  -5.178  27.063  1.00  0.00    -0.312 OA
BRANCH  23  24
HETATM   24  C4  UNL     1      11.834  -4.174  27.670  1.00  0.00     0.255 C 
HETATM   25  C5  UNL     1      11.934  -2.806  27.100  1.00  0.00     0.126 C 
HETATM   26  O2  UNL     1      12.420  -4.481  28.761  1.00  0.00    -0.266 OA
ENDBRANCH  23  24
ENDBRANCH   3  23
TORSDOF 4
ENDMDL
MODEL 4
REMARK VINA RESULT: -7.984740735      3.171      7.238
REMARK  4 active torsions:
REMARK  status: ('A' for Active; 'I' for Inactive)
REMARK    1  A    between atoms: C3_3  and  O1_4 
REMARK    2  A    between atoms: O1_4  and  C4_5 
REMARK    3  A    between atoms: N1_15  and  O3_17 
REMARK    4  A    between atoms: O3_17  and  C13_18 
ROOT
HETATM    1  C1  UNL     1      11.467  -7.411  26.107  1.00  0.00     0.017 C 
HETATM    2  C2  UNL     1      11.342  -6.580  25.082  1.00  0.00    -0.056 C 
HETATM    3  C3  UNL     1      11.540  -7.165  23.724  1.00  0.00     0.160 C 
HETATM    4  C6  UNL     1      12.462  -6.149  23.031  1.00  0.00     0.037 C 
HETATM    5  C7  UNL     1      11.620  -4.927  22.827  1.00  0.00     0.009 C 
HETATM    6  C8  UNL     1      11.031  -4.329  24.051  1.00  0.00    -0.001 C 
HETATM    7  C9  UNL     1      11.027  -5.162  25.276  1.00  0.00     0.021 C 
HETATM    8  C10 UNL     1       9.657  -5.140  25.975  1.00  0.00     0.015 C 
HETATM    9  C11 UNL     1       9.201  -3.730  26.232  1.00  0.00     0.056 C 
HETATM   10  C12 UNL     1      10.422  -2.902  26.406  1.00  0.00     0.019 C 
HETATM   11  N1  UNL     1      10.922  -2.815  27.590  1.00  0.00    -0.265 N 
ATOM     12  H1  UNL     1      11.759  -2.261  27.775  1.00  0.00     0.194 HD
HETATM   13  C15 UNL     1      11.123  -2.164  25.357  1.00  0.00     0.001 C 
HETATM   14  C16 UNL     1      10.196  -1.044  24.866  1.00  0.00     0.022 C 
HETATM   15  C17 UNL     1      12.343  -1.448  25.952  1.00  0.00     0.015 C 
HETATM   16  C18 UNL     1      13.401  -1.545  24.845  1.00  0.00     0.002 C 
HETATM   17  C19 UNL     1      13.133  -2.986  24.380  1.00  0.00     0.006 C 
HETATM   18  C20 UNL     1      11.651  -2.968  24.236  1.00  0.00     0.004 C 
ENDROOT
BRANCH  11  19
HETATM   19  O3  UNL     1      10.282  -3.499  28.593  1.00  0.00    -0.200 OA
BRANCH  19  20
HETATM   20  C13 UNL     1       9.854  -2.848  29.766  1.00  0.00     0.277 C 
HETATM   21  C14 UNL     1       9.654  -3.575  31.036  1.00  0.00     0.128 C 
HETATM   22  O4  UNL     1       9.655  -1.610  29.652  1.00  0.00    -0.264 OA
ENDBRANCH  19  20
ENDBRANCH  11  19
BRANCH   3  23
HETATM   23  O1  UNL     1      10.259  -7.159  23.105  1.00  0.00    -0.312 OA
BRANCH  23  24
HETATM   24  C4  UNL     1       9.623  -8.341  22.796  1.00  0.00     0.255 C 
HETATM   25  C5  UNL     1       9.154  -9.293  23.836  1.00  0.00     0.126 C 
HETATM   26  O2  UNL     1       9.454  -8.582  21.555  1.00  0.00    -0.266 OA
ENDBRANCH  23  24
ENDBRANCH   3  23
TORSDOF 4
ENDMDL
MODEL 5
REMARK VINA RESULT: -7.973889111      2.656      6.761
REMARK  4 active torsions:
REMARK  status: ('A' for Active; 'I' for Inactive)
REMARK    1  A    between atoms: C3_3  and  O1_4 
REMARK    2  A    between atoms: O1_4  and  C4_5 
REMARK    3  A    between atoms: N1_15  and  O3_17 
REMARK    4  A    between atoms: O3_17  and  C13_18 
ROOT
HETATM    1  C1  UNL     1       9.297  -9.746  25.265  1.00  0.00     0.017 C 
HETATM    2  C2  UNL     1      10.082  -8.825  24.725  1.00  0.00    -0.056 C 
HETATM    3  C3  UNL     1      10.436  -9.012  23.288  1.00  0.00     0.160 C 
HETATM    4  C6  UNL     1      11.952  -8.758  23.260  1.00  0.00     0.037 C 
HETATM    5  C7  UNL     1      12.113  -7.293  23.529  1.00  0.00     0.009 C 
HETATM    6  C8  UNL     1      11.536  -6.798  24.804  1.00  0.00    -0.001 C 
HETATM    7  C9  UNL     1      10.576  -7.684  25.502  1.00  0.00     0.021 C 
HETATM    8  C10 UNL     1       9.319  -6.922  25.952  1.00  0.00     0.015 C 
HETATM    9  C11 UNL     1       9.682  -5.708  26.762  1.00  0.00     0.056 C 
HETATM   10  C12 UNL     1      10.962  -6.009  27.451  1.00  0.00     0.019 C 
HETATM   11  N1  UNL     1      10.903  -6.594  28.598  1.00  0.00    -0.265 N 
ATOM     12  H1  UNL     1      11.747  -6.827  29.121  1.00  0.00     0.194 HD
HETATM   13  C15 UNL     1      12.303  -5.705  26.953  1.00  0.00     0.001 C 
HETATM   14  C16 UNL     1      12.458  -4.179  26.913  1.00  0.00     0.022 C 
HETATM   15  C17 UNL     1      13.353  -6.193  27.961  1.00  0.00     0.015 C 
HETATM   16  C18 UNL     1      14.505  -6.691  27.078  1.00  0.00     0.002 C 
HETATM   17  C19 UNL     1      13.684  -7.382  25.977  1.00  0.00     0.006 C 
HETATM   18  C20 UNL     1      12.678  -6.329  25.667  1.00  0.00     0.004 C 
ENDROOT
BRANCH  11  19
HETATM   19  O3  UNL     1       9.655  -6.889  29.086  1.00  0.00    -0.200 OA
BRANCH  19  20
HETATM   20  C13 UNL     1       9.390  -6.885  30.469  1.00  0.00     0.277 C 
HETATM   21  C14 UNL     1       8.853  -5.696  31.159  1.00  0.00     0.128 C 
HETATM   22  O4  UNL     1       9.644  -7.963  31.068  1.00  0.00    -0.264 OA
ENDBRANCH  19  20
ENDBRANCH  11  19
BRANCH   3  23
HETATM   23  O1  UNL     1       9.758  -7.980  22.581  1.00  0.00    -0.312 OA
BRANCH  23  24
HETATM   24  C4  UNL     1       9.554  -8.077  21.223  1.00  0.00     0.255 C 
HETATM   25  C5  UNL     1       8.686  -9.120  20.617  1.00  0.00     0.126 C 
HETATM   26  O2  UNL     1      10.156  -7.215  20.499  1.00  0.00    -0.266 OA
ENDBRANCH  23  24
ENDBRANCH   3  23
TORSDOF 4
ENDMDL
