MODEL 1
REMARK VINA RESULT: -7.734053320      0.000      0.000
REMARK  8 active torsions:
REMARK  status: ('A' for Active; 'I' for Inactive)
REMARK    1  A    between atoms: O1_2  and  C2_3 
REMARK    2  A    between atoms: N1_4  and  C3_5 
REMARK    3  A    between atoms: C3_5  and  C4_6 
REMARK    4  A    between atoms: N3_16  and  N4_17 
REMARK    5  A    between atoms: N4_17  and  O2_18 
REMARK    6  A    between atoms: N5_20  and  O3_22 
REMARK    7  A    between atoms: O3_22  and  N6_23 
REMARK    8  A    between atoms: N6_23  and  O4_25 
ROOT
HETATM    1  C4  UNL     1      19.383 -10.626  20.922  1.00  0.00    -0.030 A 
HETATM    2  C5  UNL     1      18.180  -9.924  21.086  1.00  0.00     0.010 A 
HETATM    3  C6  UNL     1      18.029  -9.047  22.133  1.00  0.00     0.023 A 
HETATM    4  C7  UNL     1      19.064  -8.863  23.021  1.00  0.00     0.044 A 
HETATM    5  C8  UNL     1      18.922  -7.942  24.131  1.00  0.00     0.099 C 
HETATM    6  N2  UNL     1      18.819  -7.203  25.012  1.00  0.00    -0.191 NA
HETATM    7  C9  UNL     1      20.256  -9.562  22.855  1.00  0.00     0.023 A 
HETATM    8  C10 UNL     1      20.424 -10.444  21.809  1.00  0.00     0.010 A 
ENDROOT
BRANCH   1   9
HETATM    9  C3  UNL     1      19.527 -11.573  19.787  1.00  0.00     0.317 C 
BRANCH   9  10
HETATM   10  N1  UNL     1      18.263 -11.794  19.109  1.00  0.00     0.144 N 
HETATM   11  C2  UNL     1      18.478 -11.876  17.658  1.00  0.00     0.487 C 
HETATM   12  N3  UNL     1      17.881 -13.121  17.245  1.00  0.00    -0.228 N 
HETATM   13  C12 UNL     1      18.059 -14.018  18.363  1.00  0.00     0.182 C 
HETATM   14  C11 UNL     1      17.745 -13.085  19.515  1.00  0.00     0.300 C 
BRANCH  11  15
HETATM   15  O1  UNL     1      19.836 -11.893  17.430  1.00  0.00    -0.346 OA
HETATM   16  C1  UNL     1      20.172 -11.387  16.173  1.00  0.00     0.206 C 
ENDBRANCH  11  15
BRANCH  12  17
HETATM   17  N4  UNL     1      17.256 -13.461  16.056  1.00  0.00    -0.071 N 
HETATM   18  N5  UNL     1      16.849 -12.575  15.231  1.00  0.00    -0.138 N 
ATOM     19  H5  UNL     1      16.994 -11.593  15.465  1.00  0.00     0.222 HD
BRANCH  17  20
HETATM   20  O2  UNL     1      17.065 -14.777  15.749  1.00  0.00    -0.252 OA
ATOM     21  H2  UNL     1      17.809 -15.313  15.500  1.00  0.00     0.248 HD
ENDBRANCH  17  20
BRANCH  18  22
HETATM   22  O3  UNL     1      16.234 -12.871  14.058  1.00  0.00    -0.117 OA
BRANCH  22  23
HETATM   23  N6  UNL     1      14.904 -13.245  14.093  1.00  0.00    -0.147 N 
ATOM     24  H6  UNL     1      14.182 -12.539  13.947  1.00  0.00     0.226 HD
BRANCH  23  25
HETATM   25  O4  UNL     1      14.569 -14.426  14.298  1.00  0.00    -0.268 OA
ATOM     26  H4  UNL     1      14.764 -14.859  15.122  1.00  0.00     0.246 HD
ENDBRANCH  23  25
ENDBRANCH  22  23
ENDBRANCH  18  22
ENDBRANCH  12  17
ENDBRANCH   9  10
ENDBRANCH   1   9
TORSDOF 8
ENDMDL
MODEL 2
REMARK VINA RESULT: -7.718536877      0.032      1.026
REMARK  8 active torsions:
REMARK  status: ('A' for Active; 'I' for Inactive)
REMARK    1  A    between atoms: O1_2  and  C2_3 
REMARK    2  A    between atoms: N1_4  and  C3_5 
REMARK    3  A    between atoms: C3_5  and  C4_6 
REMARK    4  A    between atoms: N3_16  and  N4_17 
REMARK    5  A    between atoms: N4_17  and  O2_18 
REMARK    6  A    between atoms: N5_20  and  O3_22 
REMARK    7  A    between atoms: O3_22  and  N6_23 
REMARK    8  A    between atoms: N6_23  and  O4_25 
ROOT
HETATM    1  C4  UNL     1      19.342 -10.595  20.929  1.00  0.00    -0.030 A 
HETATM    2  C5  UNL     1      20.404 -10.415  21.826  1.00  0.00     0.010 A 
HETATM    3  C6  UNL     1      20.277  -9.544  22.881  1.00  0.00     0.023 A 
HETATM    4  C7  UNL     1      19.102  -8.848  23.051  1.00  0.00     0.044 A 
HETATM    5  C8  UNL     1      18.951  -7.925  24.159  1.00  0.00     0.099 C 
HETATM    6  N2  UNL     1      18.819  -7.195  25.043  1.00  0.00    -0.191 NA
HETATM    7  C9  UNL     1      18.050  -9.030  22.158  1.00  0.00     0.023 A 
HETATM    8  C10 UNL     1      18.162  -9.901  21.095  1.00  0.00     0.010 A 
ENDROOT
BRANCH   1   9
HETATM    9  C3  UNL     1      19.499 -11.538  19.791  1.00  0.00     0.317 C 
BRANCH   9  10
HETATM   10  N1  UNL     1      18.240 -11.766  19.106  1.00  0.00     0.144 N 
HETATM   11  C2  UNL     1      18.467 -11.858  17.657  1.00  0.00     0.487 C 
HETATM   12  N3  UNL     1      17.875 -13.106  17.248  1.00  0.00    -0.228 N 
HETATM   13  C12 UNL     1      18.045 -13.994  18.374  1.00  0.00     0.182 C 
HETATM   14  C11 UNL     1      17.721 -13.054  19.517  1.00  0.00     0.300 C 
BRANCH  11  15
HETATM   15  O1  UNL     1      19.827 -11.875  17.439  1.00  0.00    -0.346 OA
HETATM   16  C1  UNL     1      20.171 -11.381  16.180  1.00  0.00     0.206 C 
ENDBRANCH  11  15
BRANCH  12  17
HETATM   17  N4  UNL     1      17.260 -13.455  16.056  1.00  0.00    -0.071 N 
HETATM   18  N5  UNL     1      16.855 -12.575  15.223  1.00  0.00    -0.138 N 
ATOM     19  H5  UNL     1      16.995 -11.592  15.453  1.00  0.00     0.222 HD
BRANCH  17  20
HETATM   20  O2  UNL     1      17.075 -14.774  15.757  1.00  0.00    -0.252 OA
ATOM     21  H2  UNL     1      17.426 -15.124  14.946  1.00  0.00     0.248 HD
ENDBRANCH  17  20
BRANCH  18  22
HETATM   22  O3  UNL     1      16.250 -12.881  14.048  1.00  0.00    -0.117 OA
BRANCH  22  23
HETATM   23  N6  UNL     1      14.916 -13.243  14.074  1.00  0.00    -0.147 N 
ATOM     24  H6  UNL     1      14.203 -12.538  13.889  1.00  0.00     0.226 HD
BRANCH  23  25
HETATM   25  O4  UNL     1      14.568 -14.413  14.317  1.00  0.00    -0.268 OA
ATOM     26  H4  UNL     1      13.874 -14.603  14.938  1.00  0.00     0.246 HD
ENDBRANCH  23  25
ENDBRANCH  22  23
ENDBRANCH  18  22
ENDBRANCH  12  17
ENDBRANCH   9  10
ENDBRANCH   1   9
TORSDOF 8
ENDMDL
MODEL 3
REMARK VINA RESULT: -7.306575793      6.501      8.880
REMARK  8 active torsions:
REMARK  status: ('A' for Active; 'I' for Inactive)
REMARK    1  A    between atoms: O1_2  and  C2_3 
REMARK    2  A    between atoms: N1_4  and  C3_5 
REMARK    3  A    between atoms: C3_5  and  C4_6 
REMARK    4  A    between atoms: N3_16  and  N4_17 
REMARK    5  A    between atoms: N4_17  and  O2_18 
REMARK    6  A    between atoms: N5_20  and  O3_22 
REMARK    7  A    between atoms: O3_22  and  N6_23 
REMARK    8  A    between atoms: N6_23  and  O4_25 
ROOT
HETATM    1  C4  UNL     1      16.746  -9.313  21.084  1.00  0.00    -0.030 A 
HETATM    2  C5  UNL     1      16.791 -10.127  19.943  1.00  0.00     0.010 A 
HETATM    3  C6  UNL     1      17.945 -10.801  19.621  1.00  0.00     0.023 A 
HETATM    4  C7  UNL     1      19.055 -10.672  20.423  1.00  0.00     0.044 A 
HETATM    5  C8  UNL     1      20.280 -11.376  20.098  1.00  0.00     0.099 C 
HETATM    6  N2  UNL     1      21.256 -11.940  19.852  1.00  0.00    -0.191 NA
HETATM    7  C9  UNL     1      19.005  -9.863  21.555  1.00  0.00     0.023 A 
HETATM    8  C10 UNL     1      17.855  -9.181  21.892  1.00  0.00     0.010 A 
ENDROOT
BRANCH   1   9
HETATM    9  C3  UNL     1      15.492  -8.588  21.414  1.00  0.00     0.317 C 
BRANCH   9  10
HETATM   10  N1  UNL     1      14.814  -9.180  22.553  1.00  0.00     0.144 N 
HETATM   11  C2  UNL     1      14.614  -8.169  23.599  1.00  0.00     0.487 C 
HETATM   12  N3  UNL     1      13.206  -8.192  23.900  1.00  0.00    -0.228 N 
HETATM   13  C12 UNL     1      12.556  -8.523  22.653  1.00  0.00     0.182 C 
HETATM   14  C11 UNL     1      13.491  -9.596  22.134  1.00  0.00     0.300 C 
BRANCH  11  15
HETATM   15  O1  UNL     1      14.979  -6.945  23.084  1.00  0.00    -0.346 OA
HETATM   16  C1  UNL     1      15.642  -6.148  24.019  1.00  0.00     0.206 C 
ENDBRANCH  11  15
BRANCH  12  17
HETATM   17  N4  UNL     1      12.542  -7.958  25.094  1.00  0.00    -0.071 N 
HETATM   18  N5  UNL     1      11.295  -8.199  25.230  1.00  0.00    -0.138 N 
ATOM     19  H5  UNL     1      10.785  -8.574  24.431  1.00  0.00     0.222 HD
BRANCH  17  20
HETATM   20  O2  UNL     1      13.231  -7.455  26.159  1.00  0.00    -0.252 OA
ATOM     21  H2  UNL     1      12.793  -7.357  26.996  1.00  0.00     0.248 HD
ENDBRANCH  17  20
BRANCH  18  22
HETATM   22  O3  UNL     1      10.613  -7.983  26.383  1.00  0.00    -0.117 OA
BRANCH  22  23
HETATM   23  N6  UNL     1      10.765  -8.891  27.414  1.00  0.00    -0.147 N 
ATOM     24  H6  UNL     1      11.238  -8.602  28.269  1.00  0.00     0.226 HD
BRANCH  23  25
HETATM   25  O4  UNL     1      10.335 -10.055  27.318  1.00  0.00    -0.268 OA
ATOM     26  H4  UNL     1       9.444 -10.275  27.566  1.00  0.00     0.246 HD
ENDBRANCH  23  25
ENDBRANCH  22  23
ENDBRANCH  18  22
ENDBRANCH  12  17
ENDBRANCH   9  10
ENDBRANCH   1   9
TORSDOF 8
ENDMDL
MODEL 4
REMARK VINA RESULT: -7.302430548      6.460      8.891
REMARK  8 active torsions:
REMARK  status: ('A' for Active; 'I' for Inactive)
REMARK    1  A    between atoms: O1_2  and  C2_3 
REMARK    2  A    between atoms: N1_4  and  C3_5 
REMARK    3  A    between atoms: C3_5  and  C4_6 
REMARK    4  A    between atoms: N3_16  and  N4_17 
REMARK    5  A    between atoms: N4_17  and  O2_18 
REMARK    6  A    between atoms: N5_20  and  O3_22 
REMARK    7  A    between atoms: O3_22  and  N6_23 
REMARK    8  A    between atoms: N6_23  and  O4_25 
ROOT
HETATM    1  C4  UNL     1      16.847  -9.287  21.099  1.00  0.00    -0.030 A 
HETATM    2  C5  UNL     1      17.968  -9.182  21.935  1.00  0.00     0.010 A 
HETATM    3  C6  UNL     1      19.121  -9.867  21.635  1.00  0.00     0.023 A 
HETATM    4  C7  UNL     1      19.169 -10.659  20.510  1.00  0.00     0.044 A 
HETATM    5  C8  UNL     1      20.377 -11.389  20.179  1.00  0.00     0.099 C 
HETATM    6  N2  UNL     1      21.338 -11.965  19.903  1.00  0.00    -0.191 NA
HETATM    7  C9  UNL     1      18.054 -10.760  19.683  1.00  0.00     0.023 A 
HETATM    8  C10 UNL     1      16.890 -10.079  19.970  1.00  0.00     0.010 A 
ENDROOT
BRANCH   1   9
HETATM    9  C3  UNL     1      15.608  -8.543  21.441  1.00  0.00     0.317 C 
BRANCH   9  10
HETATM   10  N1  UNL     1      14.920  -9.138  22.572  1.00  0.00     0.144 N 
HETATM   11  C2  UNL     1      14.698  -8.126  23.614  1.00  0.00     0.487 C 
HETATM   12  N3  UNL     1      13.286  -8.159  23.895  1.00  0.00    -0.228 N 
HETATM   13  C12 UNL     1      12.656  -8.497  22.640  1.00  0.00     0.182 C 
HETATM   14  C11 UNL     1      13.606  -9.563  22.135  1.00  0.00     0.300 C 
BRANCH  11  15
HETATM   15  O1  UNL     1      15.061  -6.900  23.101  1.00  0.00    -0.346 OA
HETATM   16  C1  UNL     1      15.697  -6.094  24.047  1.00  0.00     0.206 C 
ENDBRANCH  11  15
BRANCH  12  17
HETATM   17  N4  UNL     1      12.605  -7.928  25.080  1.00  0.00    -0.071 N 
HETATM   18  N5  UNL     1      11.363  -8.202  25.207  1.00  0.00    -0.138 N 
ATOM     19  H5  UNL     1      10.872  -8.601  24.408  1.00  0.00     0.222 HD
BRANCH  17  20
HETATM   20  O2  UNL     1      13.269  -7.393  26.145  1.00  0.00    -0.252 OA
ATOM     21  H2  UNL     1      13.336  -7.888  26.952  1.00  0.00     0.248 HD
ENDBRANCH  17  20
BRANCH  18  22
HETATM   22  O3  UNL     1      10.664  -7.990  26.351  1.00  0.00    -0.117 OA
BRANCH  22  23
HETATM   23  N6  UNL     1      10.855  -8.862  27.406  1.00  0.00    -0.147 N 
ATOM     24  H6  UNL     1      11.350  -8.540  28.238  1.00  0.00     0.226 HD
BRANCH  23  25
HETATM   25  O4  UNL     1      10.435 -10.032  27.362  1.00  0.00    -0.268 OA
ATOM     26  H4  UNL     1       9.572 -10.235  27.019  1.00  0.00     0.246 HD
ENDBRANCH  23  25
ENDBRANCH  22  23
ENDBRANCH  18  22
ENDBRANCH  12  17
ENDBRANCH   9  10
ENDBRANCH   1   9
TORSDOF 8
ENDMDL
MODEL 5
REMARK VINA RESULT: -7.257746789      7.347      9.704
REMARK  8 active torsions:
REMARK  status: ('A' for Active; 'I' for Inactive)
REMARK    1  A    between atoms: O1_2  and  C2_3 
REMARK    2  A    between atoms: N1_4  and  C3_5 
REMARK    3  A    between atoms: C3_5  and  C4_6 
REMARK    4  A    between atoms: N3_16  and  N4_17 
REMARK    5  A    between atoms: N4_17  and  O2_18 
REMARK    6  A    between atoms: N5_20  and  O3_22 
REMARK    7  A    between atoms: O3_22  and  N6_23 
REMARK    8  A    between atoms: N6_23  and  O4_25 
ROOT
HETATM    1  C4  UNL     1      14.463 -10.356  20.985  1.00  0.00    -0.030 A 
HETATM    2  C5  UNL     1      15.746  -9.789  20.967  1.00  0.00     0.010 A 
HETATM    3  C6  UNL     1      16.693 -10.251  20.085  1.00  0.00     0.023 A 
HETATM    4  C7  UNL     1      16.376 -11.273  19.220  1.00  0.00     0.044 A 
HETATM    5  C8  UNL     1      17.363 -11.772  18.282  1.00  0.00     0.099 C 
HETATM    6  N2  UNL     1      18.140 -12.169  17.527  1.00  0.00    -0.191 NA
HETATM    7  C9  UNL     1      15.101 -11.832  19.240  1.00  0.00     0.023 A 
HETATM    8  C10 UNL     1      14.140 -11.379  20.119  1.00  0.00     0.010 A 
ENDROOT
BRANCH   1   9
HETATM    9  C3  UNL     1      13.454  -9.847  21.948  1.00  0.00     0.317 C 
BRANCH   9  10
HETATM   10  N1  UNL     1      13.552  -8.409  22.119  1.00  0.00     0.144 N 
HETATM   11  C2  UNL     1      12.286  -7.770  21.737  1.00  0.00     0.487 C 
HETATM   12  N3  UNL     1      11.897  -6.967  22.867  1.00  0.00    -0.228 N 
HETATM   13  C12 UNL     1      12.378  -7.682  24.026  1.00  0.00     0.182 C 
HETATM   14  C11 UNL     1      13.738  -8.127  23.528  1.00  0.00     0.300 C 
BRANCH  11  15
HETATM   15  O1  UNL     1      11.360  -8.763  21.508  1.00  0.00    -0.346 OA
HETATM   16  C1  UNL     1      10.342  -8.355  20.644  1.00  0.00     0.206 C 
ENDBRANCH  11  15
BRANCH  12  17
HETATM   17  N4  UNL     1      11.212  -5.763  22.916  1.00  0.00    -0.071 N 
HETATM   18  N5  UNL     1      10.796  -5.268  24.018  1.00  0.00    -0.138 N 
ATOM     19  H5  UNL     1      10.981  -5.782  24.879  1.00  0.00     0.222 HD
BRANCH  17  20
HETATM   20  O2  UNL     1      10.967  -5.081  21.760  1.00  0.00    -0.252 OA
ATOM     21  H2  UNL     1      11.373  -4.234  21.621  1.00  0.00     0.248 HD
ENDBRANCH  17  20
BRANCH  18  22
HETATM   22  O3  UNL     1      10.123  -4.094  24.104  1.00  0.00    -0.117 OA
BRANCH  22  23
HETATM   23  N6  UNL     1      10.711  -2.961  23.572  1.00  0.00    -0.147 N 
ATOM     24  H6  UNL     1      11.525  -2.557  24.034  1.00  0.00     0.226 HD
BRANCH  23  25
HETATM   25  O4  UNL     1      10.266  -2.425  22.541  1.00  0.00    -0.268 OA
ATOM     26  H4  UNL     1       9.405  -2.642  22.203  1.00  0.00     0.246 HD
ENDBRANCH  23  25
ENDBRANCH  22  23
ENDBRANCH  18  22
ENDBRANCH  12  17
ENDBRANCH   9  10
ENDBRANCH   1   9
TORSDOF 8
ENDMDL
