MODEL 1
REMARK VINA RESULT: -7.277225662      0.000      0.000
REMARK  7 active torsions:
REMARK  status: ('A' for Active; 'I' for Inactive)
REMARK    1  A    between atoms: C2_2  and  O1_3 
REMARK    2  A    between atoms: O1_3  and  C3_4 
REMARK    3  A    between atoms: C3_4  and  C4_5 
REMARK    4  A    between atoms: C7_8  and  C8_9 
REMARK    5  A    between atoms: C8_9  and  O2_10 
REMARK    6  A    between atoms: O2_10  and  C9_11 
REMARK    7  A    between atoms: C9_11  and  C10_12 
ROOT
HETATM    1  C8  UNL     1      19.066 -12.125  18.837  1.00  0.00     0.199 C 
ENDROOT
BRANCH   1   2
HETATM    2  C7  UNL     1      18.298 -10.993  19.478  1.00  0.00     0.145 C 
HETATM    3  C6  UNL     1      19.024 -10.338  20.592  1.00  0.00     0.034 C 
HETATM    4  C5  UNL     1      18.034  -9.793  21.583  1.00  0.00     0.011 C 
HETATM    5  C4  UNL     1      16.834  -9.225  20.794  1.00  0.00     0.033 C 
HETATM    6  C14 UNL     1      16.163 -10.365  20.079  1.00  0.00     0.174 C 
HETATM    7  O7  UNL     1      17.063 -11.425  19.870  1.00  0.00    -0.383 OA
BRANCH   5   8
HETATM    8  C3  UNL     1      15.940  -8.641  21.841  1.00  0.00     0.174 C 
BRANCH   8   9
HETATM    9  O1  UNL     1      14.643  -8.454  21.625  1.00  0.00    -0.391 OA
BRANCH   9  10
HETATM   10  C2  UNL     1      13.696  -8.824  22.488  1.00  0.00     0.163 C 
HETATM   11  C1  UNL     1      12.930 -10.021  21.850  1.00  0.00     0.033 C 
ENDBRANCH   9  10
ENDBRANCH   8   9
ENDBRANCH   5   8
ENDBRANCH   1   2
BRANCH   1  12
HETATM   12  O2  UNL     1      18.403 -13.327  18.866  1.00  0.00    -0.384 OA
BRANCH  12  13
HETATM   13  C9  UNL     1      18.108 -13.698  17.570  1.00  0.00     0.234 C 
BRANCH  13  14
HETATM   14  C10 UNL     1      16.667 -14.091  17.370  1.00  0.00     0.357 C 
HETATM   15  O3  UNL     1      16.542 -14.950  16.306  1.00  0.00    -0.200 OA
HETATM   16  O4  UNL     1      15.392 -14.922  15.708  1.00  0.00    -0.196 OA
HETATM   17  C11 UNL     1      14.895 -13.659  15.470  1.00  0.00     0.222 C 
HETATM   18  C12 UNL     1      13.627 -13.478  16.313  1.00  0.00     0.084 C 
HETATM   19  C13 UNL     1      14.620 -13.362  14.032  1.00  0.00     0.084 C 
HETATM   20  O5  UNL     1      15.801 -12.689  15.937  1.00  0.00    -0.196 OA
HETATM   21  O6  UNL     1      15.934 -12.913  17.226  1.00  0.00    -0.200 OA
ENDBRANCH  13  14
ENDBRANCH  12  13
ENDBRANCH   1  12
TORSDOF 7
ENDMDL
MODEL 2
REMARK VINA RESULT: -7.166917013      1.727      2.473
REMARK  7 active torsions:
REMARK  status: ('A' for Active; 'I' for Inactive)
REMARK    1  A    between atoms: C2_2  and  O1_3 
REMARK    2  A    between atoms: O1_3  and  C3_4 
REMARK    3  A    between atoms: C3_4  and  C4_5 
REMARK    4  A    between atoms: C7_8  and  C8_9 
REMARK    5  A    between atoms: C8_9  and  O2_10 
REMARK    6  A    between atoms: O2_10  and  C9_11 
REMARK    7  A    between atoms: C9_11  and  C10_12 
ROOT
HETATM    1  C8  UNL     1      19.125 -11.447  19.423  1.00  0.00     0.199 C 
ENDROOT
BRANCH   1   2
HETATM    2  C7  UNL     1      18.200 -10.751  20.394  1.00  0.00     0.145 C 
HETATM    3  C6  UNL     1      16.930 -10.296  19.781  1.00  0.00     0.034 C 
HETATM    4  C5  UNL     1      16.432  -9.077  20.506  1.00  0.00     0.011 C 
HETATM    5  C4  UNL     1      16.725  -9.267  22.011  1.00  0.00     0.033 C 
HETATM    6  C14 UNL     1      18.216  -9.315  22.197  1.00  0.00     0.174 C 
HETATM    7  O7  UNL     1      18.855  -9.725  21.012  1.00  0.00    -0.383 OA
BRANCH   5   8
HETATM    8  C3  UNL     1      16.137  -8.055  22.662  1.00  0.00     0.174 C 
BRANCH   8   9
HETATM    9  O1  UNL     1      16.703  -6.860  22.550  1.00  0.00    -0.391 OA
BRANCH   9  10
HETATM   10  C2  UNL     1      17.031  -6.102  23.597  1.00  0.00     0.163 C 
HETATM   11  C1  UNL     1      18.556  -5.805  23.496  1.00  0.00     0.033 C 
ENDBRANCH   9  10
ENDBRANCH   8   9
ENDBRANCH   5   8
ENDBRANCH   1   2
BRANCH   1  12
HETATM   12  O2  UNL     1      18.633 -11.514  18.143  1.00  0.00    -0.384 OA
BRANCH  12  13
HETATM   13  C9  UNL     1      18.911 -12.765  17.629  1.00  0.00     0.234 C 
BRANCH  13  14
HETATM   14  C10 UNL     1      17.680 -13.579  17.327  1.00  0.00     0.357 C 
HETATM   15  O3  UNL     1      17.947 -14.524  16.367  1.00  0.00    -0.200 OA
HETATM   16  O4  UNL     1      16.927 -14.886  15.653  1.00  0.00    -0.196 OA
HETATM   17  C11 UNL     1      16.132 -13.849  15.214  1.00  0.00     0.222 C 
HETATM   18  C12 UNL     1      14.762 -13.978  15.892  1.00  0.00     0.084 C 
HETATM   19  C13 UNL     1      15.982 -13.769  13.730  1.00  0.00     0.084 C 
HETATM   20  O5  UNL     1      16.657 -12.620  15.654  1.00  0.00    -0.196 OA
HETATM   21  O6  UNL     1      16.672 -12.684  16.967  1.00  0.00    -0.200 OA
ENDBRANCH  13  14
ENDBRANCH  12  13
ENDBRANCH   1  12
TORSDOF 7
ENDMDL
MODEL 3
REMARK VINA RESULT: -7.144205965      1.113      1.461
REMARK  7 active torsions:
REMARK  status: ('A' for Active; 'I' for Inactive)
REMARK    1  A    between atoms: C2_2  and  O1_3 
REMARK    2  A    between atoms: O1_3  and  C3_4 
REMARK    3  A    between atoms: C3_4  and  C4_5 
REMARK    4  A    between atoms: C7_8  and  C8_9 
REMARK    5  A    between atoms: C8_9  and  O2_10 
REMARK    6  A    between atoms: O2_10  and  C9_11 
REMARK    7  A    between atoms: C9_11  and  C10_12 
ROOT
HETATM    1  C8  UNL     1      19.269 -11.788  19.097  1.00  0.00     0.199 C 
ENDROOT
BRANCH   1   2
HETATM    2  C7  UNL     1      18.356 -11.080  20.069  1.00  0.00     0.145 C 
HETATM    3  C6  UNL     1      17.046 -10.703  19.487  1.00  0.00     0.034 C 
HETATM    4  C5  UNL     1      16.530  -9.469  20.173  1.00  0.00     0.011 C 
HETATM    5  C4  UNL     1      16.888  -9.573  21.672  1.00  0.00     0.033 C 
HETATM    6  C14 UNL     1      18.386  -9.556  21.799  1.00  0.00     0.174 C 
HETATM    7  O7  UNL     1      18.994 -10.000  20.610  1.00  0.00    -0.383 OA
BRANCH   5   8
HETATM    8  C3  UNL     1      16.278  -8.353  22.287  1.00  0.00     0.174 C 
BRANCH   8   9
HETATM    9  O1  UNL     1      15.010  -8.024  22.073  1.00  0.00    -0.391 OA
BRANCH   9  10
HETATM   10  C2  UNL     1      14.008  -8.420  22.859  1.00  0.00     0.163 C 
HETATM   11  C1  UNL     1      13.224  -9.525  22.091  1.00  0.00     0.033 C 
ENDBRANCH   9  10
ENDBRANCH   8   9
ENDBRANCH   5   8
ENDBRANCH   1   2
BRANCH   1  12
HETATM   12  O2  UNL     1      18.794 -11.810  17.809  1.00  0.00    -0.384 OA
BRANCH  12  13
HETATM   13  C9  UNL     1      18.896 -13.097  17.323  1.00  0.00     0.234 C 
BRANCH  13  14
HETATM   14  C10 UNL     1      17.566 -13.727  17.001  1.00  0.00     0.357 C 
HETATM   15  O3  UNL     1      17.713 -14.720  16.065  1.00  0.00    -0.200 OA
HETATM   16  O4  UNL     1      16.668 -14.942  15.329  1.00  0.00    -0.196 OA
HETATM   17  C11 UNL     1      16.047 -13.809  14.851  1.00  0.00     0.222 C 
HETATM   18  C12 UNL     1      14.657 -13.719  15.493  1.00  0.00     0.084 C 
HETATM   19  C13 UNL     1      15.946 -13.737  13.363  1.00  0.00     0.084 C 
HETATM   20  O5  UNL     1      16.737 -12.661  15.285  1.00  0.00    -0.196 OA
HETATM   21  O6  UNL     1      16.710 -12.701  16.599  1.00  0.00    -0.200 OA
ENDBRANCH  13  14
ENDBRANCH  12  13
ENDBRANCH   1  12
TORSDOF 7
ENDMDL
MODEL 4
REMARK VINA RESULT: -7.041326291      1.035      1.659
REMARK  7 active torsions:
REMARK  status: ('A' for Active; 'I' for Inactive)
REMARK    1  A    between atoms: C2_2  and  O1_3 
REMARK    2  A    between atoms: O1_3  and  C3_4 
REMARK    3  A    between atoms: C3_4  and  C4_5 
REMARK    4  A    between atoms: C7_8  and  C8_9 
REMARK    5  A    between atoms: C8_9  and  O2_10 
REMARK    6  A    between atoms: O2_10  and  C9_11 
REMARK    7  A    between atoms: C9_11  and  C10_12 
ROOT
HETATM    1  C8  UNL     1      19.119 -12.226  18.862  1.00  0.00     0.199 C 
ENDROOT
BRANCH   1   2
HETATM    2  C7  UNL     1      18.384 -11.056  19.473  1.00  0.00     0.145 C 
HETATM    3  C6  UNL     1      19.119 -10.408  20.584  1.00  0.00     0.034 C 
HETATM    4  C5  UNL     1      18.137  -9.810  21.553  1.00  0.00     0.011 C 
HETATM    5  C4  UNL     1      16.967  -9.216  20.739  1.00  0.00     0.033 C 
HETATM    6  C14 UNL     1      16.265 -10.344  20.035  1.00  0.00     0.174 C 
HETATM    7  O7  UNL     1      17.130 -11.439  19.857  1.00  0.00    -0.383 OA
BRANCH   5   8
HETATM    8  C3  UNL     1      16.082  -8.582  21.764  1.00  0.00     0.174 C 
BRANCH   8   9
HETATM    9  O1  UNL     1      16.234  -7.314  22.129  1.00  0.00    -0.391 OA
BRANCH   9  10
HETATM   10  C2  UNL     1      16.596  -6.944  23.358  1.00  0.00     0.163 C 
HETATM   11  C1  UNL     1      18.106  -6.562  23.302  1.00  0.00     0.033 C 
ENDBRANCH   9  10
ENDBRANCH   8   9
ENDBRANCH   5   8
ENDBRANCH   1   2
BRANCH   1  12
HETATM   12  O2  UNL     1      18.397 -13.393  18.863  1.00  0.00    -0.384 OA
BRANCH  12  13
HETATM   13  C9  UNL     1      18.083 -13.719  17.559  1.00  0.00     0.234 C 
BRANCH  13  14
HETATM   14  C10 UNL     1      16.635 -14.089  17.364  1.00  0.00     0.357 C 
HETATM   15  O3  UNL     1      16.496 -14.964  16.315  1.00  0.00    -0.200 OA
HETATM   16  O4  UNL     1      15.348 -14.925  15.715  1.00  0.00    -0.196 OA
HETATM   17  C11 UNL     1      14.875 -13.658  15.454  1.00  0.00     0.222 C 
HETATM   18  C12 UNL     1      13.608 -13.439  16.292  1.00  0.00     0.084 C 
HETATM   19  C13 UNL     1      14.607 -13.381  14.011  1.00  0.00     0.084 C 
HETATM   20  O5  UNL     1      15.797 -12.697  15.906  1.00  0.00    -0.196 OA
HETATM   21  O6  UNL     1      15.925 -12.900  17.199  1.00  0.00    -0.200 OA
ENDBRANCH  13  14
ENDBRANCH  12  13
ENDBRANCH   1  12
TORSDOF 7
ENDMDL
MODEL 5
REMARK VINA RESULT: -6.965356899      0.918      1.028
REMARK  7 active torsions:
REMARK  status: ('A' for Active; 'I' for Inactive)
REMARK    1  A    between atoms: C2_2  and  O1_3 
REMARK    2  A    between atoms: O1_3  and  C3_4 
REMARK    3  A    between atoms: C3_4  and  C4_5 
REMARK    4  A    between atoms: C7_8  and  C8_9 
REMARK    5  A    between atoms: C8_9  and  O2_10 
REMARK    6  A    between atoms: O2_10  and  C9_11 
REMARK    7  A    between atoms: C9_11  and  C10_12 
ROOT
HETATM    1  C8  UNL     1      19.111 -11.358  19.572  1.00  0.00     0.199 C 
ENDROOT
BRANCH   1   2
HETATM    2  C7  UNL     1      18.184 -10.321  20.161  1.00  0.00     0.145 C 
HETATM    3  C6  UNL     1      18.679  -9.732  21.427  1.00  0.00     0.034 C 
HETATM    4  C5  UNL     1      17.511  -9.319  22.278  1.00  0.00     0.011 C 
HETATM    5  C4  UNL     1      16.424  -8.741  21.345  1.00  0.00     0.033 C 
HETATM    6  C14 UNL     1      15.946  -9.845  20.442  1.00  0.00     0.174 C 
HETATM    7  O7  UNL     1      16.930 -10.842  20.306  1.00  0.00    -0.383 OA
BRANCH   5   8
HETATM    8  C3  UNL     1      15.338  -8.290  22.270  1.00  0.00     0.174 C 
BRANCH   8   9
HETATM    9  O1  UNL     1      14.113  -8.028  21.830  1.00  0.00    -0.391 OA
BRANCH   9  10
HETATM   10  C2  UNL     1      13.007  -8.376  22.490  1.00  0.00     0.163 C 
HETATM   11  C1  UNL     1      12.595  -9.792  21.991  1.00  0.00     0.033 C 
ENDBRANCH   9  10
ENDBRANCH   8   9
ENDBRANCH   5   8
ENDBRANCH   1   2
BRANCH   1  12
HETATM   12  O2  UNL     1      18.514 -12.576  19.360  1.00  0.00    -0.384 OA
BRANCH  12  13
HETATM   13  C9  UNL     1      18.615 -12.889  18.020  1.00  0.00     0.234 C 
BRANCH  13  14
HETATM   14  C10 UNL     1      17.495 -13.765  17.521  1.00  0.00     0.357 C 
HETATM   15  O3  UNL     1      17.924 -14.554  16.482  1.00  0.00    -0.200 OA
HETATM   16  O4  UNL     1      17.000 -14.912  15.645  1.00  0.00    -0.196 OA
HETATM   17  C11 UNL     1      16.142 -13.903  15.266  1.00  0.00     0.222 C 
HETATM   18  C12 UNL     1      14.744 -14.237  15.804  1.00  0.00     0.084 C 
HETATM   19  C13 UNL     1      16.094 -13.651  13.795  1.00  0.00     0.084 C 
HETATM   20  O5  UNL     1      16.509 -12.697  15.891  1.00  0.00    -0.196 OA
HETATM   21  O6  UNL     1      16.434 -12.924  17.184  1.00  0.00    -0.200 OA
ENDBRANCH  13  14
ENDBRANCH  12  13
ENDBRANCH   1  12
TORSDOF 7
ENDMDL
