MODEL 1
REMARK VINA RESULT: -6.425053336      0.000      0.000
REMARK  11 active torsions:
REMARK  status: ('A' for Active; 'I' for Inactive)
REMARK    1  A    between atoms: N1_2  and  N2_3 
REMARK    2  A    between atoms: N1_2  and  C2_6 
REMARK    3  A    between atoms: N1_2  and  C5_13 
REMARK    4  A    between atoms: C2_6  and  C3_7 
REMARK    5  A    between atoms: C3_7  and  C4_8 
REMARK    6  A    between atoms: C4_8  and  N3_9 
REMARK    7  A    between atoms: C5_13  and  C6_14 
REMARK    8  A    between atoms: C6_14  and  N4_15 
REMARK    9  A    between atoms: C8_17  and  C9_18 
REMARK   10  A    between atoms: C9_18  and  N5_19 
REMARK   11  A    between atoms: C9_18  and  N6_23 
ROOT
HETATM    1  N4  UNL     1      -3.487   2.909  52.646  1.00  0.00    -0.307 N 
HETATM    2  C7  UNL     1      -2.417   2.053  52.588  1.00  0.00     0.110 A 
HETATM    3  C8  UNL     1      -1.110   2.491  52.670  1.00  0.00     0.058 A 
HETATM    4  C10 UNL     1      -0.932   3.844  52.814  1.00  0.00     0.114 A 
HETATM    5  N7  UNL     1       0.221   4.366  52.866  1.00  0.00    -0.385 N 
ATOM      6  H71 UNL     1       0.353   5.372  52.974  1.00  0.00     0.157 HD
ATOM      7  H72 UNL     1       1.034   3.752  52.825  1.00  0.00     0.157 HD
HETATM    8  N8  UNL     1      -2.027   4.671  52.869  1.00  0.00    -0.294 N 
ATOM      9  H8  UNL     1      -1.876   5.674  52.979  1.00  0.00     0.172 HD
HETATM   10  C11 UNL     1      -3.285   4.220  52.787  1.00  0.00     0.328 A 
HETATM   11  O1  UNL     1      -4.239   5.079  52.843  1.00  0.00    -0.246 OA
ENDROOT
BRANCH   1  12
HETATM   12  C6  UNL     1      -4.803   2.348  52.577  1.00  0.00     0.163 C 
BRANCH  12  13
HETATM   13  C5  UNL     1      -5.159   1.177  53.370  1.00  0.00     0.284 C 
BRANCH  13  14
HETATM   14  N1  UNL     1      -5.614  -0.043  52.867  1.00  0.00     0.004 N 
HETATM   15  C1  UNL     1      -4.621  -0.750  52.099  1.00  0.00     0.302 C 
BRANCH  14  16
HETATM   16  N2  UNL     1      -6.122  -0.955  53.825  1.00  0.00    -0.261 N 
ATOM     17  H22 UNL     1      -6.764  -0.727  54.584  1.00  0.00     0.183 HD
ATOM     18  H21 UNL     1      -5.722  -1.868  53.607  1.00  0.00     0.183 HD
ENDBRANCH  14  16
BRANCH  14  19
HETATM   19  C2  UNL     1      -6.798   0.171  51.992  1.00  0.00     0.265 C 
BRANCH  19  20
HETATM   20  C3  UNL     1      -6.724  -0.601  50.724  1.00  0.00     0.057 C 
BRANCH  20  21
HETATM   21  C4  UNL     1      -8.019  -1.418  50.614  1.00  0.00     0.231 C 
BRANCH  21  22
HETATM   22  N3  UNL     1      -7.977  -2.244  49.425  1.00  0.00    -0.079 N 
ATOM     23  H33 UNL     1      -8.432  -1.796  48.630  1.00  0.00     0.274 HD
ATOM     24  H32 UNL     1      -7.036  -2.313  49.038  1.00  0.00     0.274 HD
ATOM     25  H31 UNL     1      -8.377  -3.161  49.628  1.00  0.00     0.274 HD
ENDBRANCH  21  22
ENDBRANCH  20  21
ENDBRANCH  19  20
ENDBRANCH  14  19
ENDBRANCH  13  14
ENDBRANCH  12  13
ENDBRANCH   1  12
BRANCH   3  26
HETATM   26  C9  UNL     1       0.016   1.520  52.638  1.00  0.00     0.416 C 
BRANCH  26  27
HETATM   27  N5  UNL     1       0.473   1.156  51.339  1.00  0.00    -0.046 N 
ATOM     28  H53 UNL     1      -0.311   0.835  50.769  1.00  0.00     0.277 HD
ATOM     29  H52 UNL     1       0.744   1.990  50.817  1.00  0.00     0.277 HD
ATOM     30  H51 UNL     1       1.226   0.469  51.316  1.00  0.00     0.277 HD
ENDBRANCH  26  27
BRANCH  26  31
HETATM   31  N6  UNL     1      -0.358   0.277  53.332  1.00  0.00    -0.046 N 
ATOM     32  H63 UNL     1      -0.793   0.463  54.236  1.00  0.00     0.277 HD
ATOM     33  H62 UNL     1      -1.144  -0.189  52.879  1.00  0.00     0.277 HD
ATOM     34  H61 UNL     1       0.451  -0.339  53.419  1.00  0.00     0.277 HD
ENDBRANCH  26  31
ENDBRANCH   3  26
TORSDOF 11
ENDMDL
MODEL 2
REMARK VINA RESULT: -6.397278546      1.115      1.358
REMARK  11 active torsions:
REMARK  status: ('A' for Active; 'I' for Inactive)
REMARK    1  A    between atoms: N1_2  and  N2_3 
REMARK    2  A    between atoms: N1_2  and  C2_6 
REMARK    3  A    between atoms: N1_2  and  C5_13 
REMARK    4  A    between atoms: C2_6  and  C3_7 
REMARK    5  A    between atoms: C3_7  and  C4_8 
REMARK    6  A    between atoms: C4_8  and  N3_9 
REMARK    7  A    between atoms: C5_13  and  C6_14 
REMARK    8  A    between atoms: C6_14  and  N4_15 
REMARK    9  A    between atoms: C8_17  and  C9_18 
REMARK   10  A    between atoms: C9_18  and  N5_19 
REMARK   11  A    between atoms: C9_18  and  N6_23 
ROOT
HETATM    1  N4  UNL     1      -3.889   3.320  52.758  1.00  0.00    -0.307 N 
HETATM    2  C7  UNL     1      -3.050   2.238  52.838  1.00  0.00     0.110 A 
HETATM    3  C8  UNL     1      -1.676   2.366  52.885  1.00  0.00     0.058 A 
HETATM    4  C10 UNL     1      -1.185   3.646  52.845  1.00  0.00     0.114 A 
HETATM    5  N7  UNL     1       0.059   3.887  52.848  1.00  0.00    -0.385 N 
ATOM      6  H71 UNL     1       0.424   4.839  52.818  1.00  0.00     0.157 HD
ATOM      7  H72 UNL     1       0.706   3.101  52.907  1.00  0.00     0.157 HD
HETATM    8  N8  UNL     1      -2.055   4.706  52.765  1.00  0.00    -0.294 N 
ATOM      9  H8  UNL     1      -1.672   5.651  52.739  1.00  0.00     0.172 HD
HETATM   10  C11 UNL     1      -3.385   4.554  52.721  1.00  0.00     0.328 A 
HETATM   11  O1  UNL     1      -4.111   5.611  52.640  1.00  0.00    -0.246 OA
ENDROOT
BRANCH   1  12
HETATM   12  C6  UNL     1      -5.301   3.077  52.741  1.00  0.00     0.163 C 
BRANCH  12  13
HETATM   13  C5  UNL     1      -5.850   1.903  52.073  1.00  0.00     0.284 C 
BRANCH  13  14
HETATM   14  N1  UNL     1      -6.709   0.964  52.646  1.00  0.00     0.004 N 
HETATM   15  C1  UNL     1      -6.602   0.892  54.081  1.00  0.00     0.302 C 
BRANCH  14  16
HETATM   16  N2  UNL     1      -8.084   1.119  52.342  1.00  0.00    -0.261 N 
ATOM     17  H22 UNL     1      -8.780   0.373  52.329  1.00  0.00     0.183 HD
ATOM     18  H21 UNL     1      -8.235   2.108  52.142  1.00  0.00     0.183 HD
ENDBRANCH  14  16
BRANCH  14  19
HETATM   19  C2  UNL     1      -6.427  -0.391  52.101  1.00  0.00     0.265 C 
BRANCH  19  20
HETATM   20  C3  UNL     1      -6.253  -0.395  50.625  1.00  0.00     0.057 C 
BRANCH  20  21
HETATM   21  C4  UNL     1      -6.868  -1.699  50.099  1.00  0.00     0.231 C 
BRANCH  21  22
HETATM   22  N3  UNL     1      -8.220  -1.455  49.640  1.00  0.00    -0.079 N 
ATOM     23  H33 UNL     1      -8.565  -0.541  49.934  1.00  0.00     0.274 HD
ATOM     24  H32 UNL     1      -8.262  -1.311  48.631  1.00  0.00     0.274 HD
ATOM     25  H31 UNL     1      -8.831  -2.212  49.946  1.00  0.00     0.274 HD
ENDBRANCH  21  22
ENDBRANCH  20  21
ENDBRANCH  19  20
ENDBRANCH  14  19
ENDBRANCH  13  14
ENDBRANCH  12  13
ENDBRANCH   1  12
BRANCH   3  26
HETATM   26  C9  UNL     1      -0.808   1.164  53.009  1.00  0.00     0.416 C 
BRANCH  26  27
HETATM   27  N5  UNL     1      -0.803   0.296  51.879  1.00  0.00    -0.046 N 
ATOM     28  H53 UNL     1      -0.400   0.774  51.072  1.00  0.00     0.277 HD
ATOM     29  H52 UNL     1      -0.115  -0.446  52.011  1.00  0.00     0.277 HD
ATOM     30  H51 UNL     1      -1.708  -0.106  51.632  1.00  0.00     0.277 HD
ENDBRANCH  26  27
BRANCH  26  31
HETATM   31  N6  UNL     1      -1.209   0.360  54.174  1.00  0.00    -0.046 N 
ATOM     32  H63 UNL     1      -0.413   0.126  54.767  1.00  0.00     0.277 HD
ATOM     33  H62 UNL     1      -1.744   0.908  54.848  1.00  0.00     0.277 HD
ATOM     34  H61 UNL     1      -1.717  -0.473  53.874  1.00  0.00     0.277 HD
ENDBRANCH  26  31
ENDBRANCH   3  26
TORSDOF 11
ENDMDL
MODEL 3
REMARK VINA RESULT: -6.196913050      2.786      6.804
REMARK  11 active torsions:
REMARK  status: ('A' for Active; 'I' for Inactive)
REMARK    1  A    between atoms: N1_2  and  N2_3 
REMARK    2  A    between atoms: N1_2  and  C2_6 
REMARK    3  A    between atoms: N1_2  and  C5_13 
REMARK    4  A    between atoms: C2_6  and  C3_7 
REMARK    5  A    between atoms: C3_7  and  C4_8 
REMARK    6  A    between atoms: C4_8  and  N3_9 
REMARK    7  A    between atoms: C5_13  and  C6_14 
REMARK    8  A    between atoms: C6_14  and  N4_15 
REMARK    9  A    between atoms: C8_17  and  C9_18 
REMARK   10  A    between atoms: C9_18  and  N5_19 
REMARK   11  A    between atoms: C9_18  and  N6_23 
ROOT
HETATM    1  N4  UNL     1      -4.048  -0.120  51.988  1.00  0.00    -0.307 N 
HETATM    2  C7  UNL     1      -4.929  -0.857  51.239  1.00  0.00     0.110 A 
HETATM    3  C8  UNL     1      -6.288  -0.609  51.233  1.00  0.00     0.058 A 
HETATM    4  C10 UNL     1      -6.718   0.425  52.026  1.00  0.00     0.114 A 
HETATM    5  N7  UNL     1      -7.945   0.725  52.128  1.00  0.00    -0.385 N 
ATOM      6  H71 UNL     1      -8.265   1.494  52.717  1.00  0.00     0.157 HD
ATOM      7  H72 UNL     1      -8.622   0.193  51.582  1.00  0.00     0.157 HD
HETATM    8  N8  UNL     1      -5.807   1.142  52.762  1.00  0.00    -0.294 N 
ATOM      9  H8  UNL     1      -6.145   1.909  53.344  1.00  0.00     0.172 HD
HETATM   10  C11 UNL     1      -4.494   0.880  52.749  1.00  0.00     0.328 A 
HETATM   11  O1  UNL     1      -3.726   1.607  53.480  1.00  0.00    -0.246 OA
ENDROOT
BRANCH   1  12
HETATM   12  C6  UNL     1      -2.655  -0.444  51.901  1.00  0.00     0.163 C 
BRANCH  12  13
HETATM   13  C5  UNL     1      -2.033  -1.333  52.875  1.00  0.00     0.284 C 
BRANCH  13  14
HETATM   14  N1  UNL     1      -1.007  -0.989  53.757  1.00  0.00     0.004 N 
HETATM   15  C1  UNL     1       0.243  -0.706  53.099  1.00  0.00     0.302 C 
BRANCH  14  16
HETATM   16  N2  UNL     1      -1.276   0.104  54.619  1.00  0.00    -0.261 N 
ATOM     17  H22 UNL     1      -2.200   0.473  54.844  1.00  0.00     0.183 HD
ATOM     18  H21 UNL     1      -0.375   0.440  54.962  1.00  0.00     0.183 HD
ENDBRANCH  14  16
BRANCH  14  19
HETATM   19  C2  UNL     1      -0.771  -2.091  54.727  1.00  0.00     0.265 C 
BRANCH  19  20
HETATM   20  C3  UNL     1       0.631  -2.584  54.708  1.00  0.00     0.057 C 
BRANCH  20  21
HETATM   21  C4  UNL     1       0.980  -3.016  56.140  1.00  0.00     0.231 C 
BRANCH  21  22
HETATM   22  N3  UNL     1       1.102  -1.848  56.988  1.00  0.00    -0.079 N 
ATOM     23  H33 UNL     1       1.698  -2.022  57.797  1.00  0.00     0.274 HD
ATOM     24  H32 UNL     1       1.657  -1.112  56.551  1.00  0.00     0.274 HD
ATOM     25  H31 UNL     1       0.175  -1.520  57.259  1.00  0.00     0.274 HD
ENDBRANCH  21  22
ENDBRANCH  20  21
ENDBRANCH  19  20
ENDBRANCH  14  19
ENDBRANCH  13  14
ENDBRANCH  12  13
ENDBRANCH   1  12
BRANCH   3  26
HETATM   26  C9  UNL     1      -7.200  -1.413  50.376  1.00  0.00     0.416 C 
BRANCH  26  27
HETATM   27  N5  UNL     1      -6.778  -2.750  50.121  1.00  0.00    -0.046 N 
ATOM     28  H53 UNL     1      -5.949  -2.748  49.526  1.00  0.00     0.277 HD
ATOM     29  H52 UNL     1      -6.390  -3.162  50.970  1.00  0.00     0.277 HD
ATOM     30  H51 UNL     1      -7.491  -3.365  49.728  1.00  0.00     0.277 HD
ENDBRANCH  26  27
BRANCH  26  31
HETATM   31  N6  UNL     1      -7.386  -0.758  49.071  1.00  0.00    -0.046 N 
ATOM     32  H63 UNL     1      -7.707   0.204  49.171  1.00  0.00     0.277 HD
ATOM     33  H62 UNL     1      -6.497  -0.574  48.608  1.00  0.00     0.277 HD
ATOM     34  H61 UNL     1      -8.014  -1.309  48.484  1.00  0.00     0.277 HD
ENDBRANCH  26  31
ENDBRANCH   3  26
TORSDOF 11
ENDMDL
MODEL 4
REMARK VINA RESULT: -6.160138120      2.021      6.625
REMARK  11 active torsions:
REMARK  status: ('A' for Active; 'I' for Inactive)
REMARK    1  A    between atoms: N1_2  and  N2_3 
REMARK    2  A    between atoms: N1_2  and  C2_6 
REMARK    3  A    between atoms: N1_2  and  C5_13 
REMARK    4  A    between atoms: C2_6  and  C3_7 
REMARK    5  A    between atoms: C3_7  and  C4_8 
REMARK    6  A    between atoms: C4_8  and  N3_9 
REMARK    7  A    between atoms: C5_13  and  C6_14 
REMARK    8  A    between atoms: C6_14  and  N4_15 
REMARK    9  A    between atoms: C8_17  and  C9_18 
REMARK   10  A    between atoms: C9_18  and  N5_19 
REMARK   11  A    between atoms: C9_18  and  N6_23 
ROOT
HETATM    1  N4  UNL     1      -4.149  -0.233  52.276  1.00  0.00    -0.307 N 
HETATM    2  C7  UNL     1      -4.977  -0.915  51.423  1.00  0.00     0.110 A 
HETATM    3  C8  UNL     1      -6.325  -0.636  51.315  1.00  0.00     0.058 A 
HETATM    4  C10 UNL     1      -6.801   0.371  52.115  1.00  0.00     0.114 A 
HETATM    5  N7  UNL     1      -8.027   0.695  52.128  1.00  0.00    -0.385 N 
ATOM      6  H71 UNL     1      -8.380   1.444  52.723  1.00  0.00     0.157 HD
ATOM      7  H72 UNL     1      -8.665   0.203  51.503  1.00  0.00     0.157 HD
HETATM    8  N8  UNL     1      -5.942   1.034  52.957  1.00  0.00    -0.294 N 
ATOM      9  H8  UNL     1      -6.313   1.781  53.544  1.00  0.00     0.172 HD
HETATM   10  C11 UNL     1      -4.638   0.742  53.043  1.00  0.00     0.328 A 
HETATM   11  O1  UNL     1      -3.921   1.418  53.868  1.00  0.00    -0.246 OA
ENDROOT
BRANCH   1  12
HETATM   12  C6  UNL     1      -2.760  -0.585  52.291  1.00  0.00     0.163 C 
BRANCH  12  13
HETATM   13  C5  UNL     1      -1.768   0.253  51.628  1.00  0.00     0.284 C 
BRANCH  13  14
HETATM   14  N1  UNL     1      -0.953   1.201  52.249  1.00  0.00     0.004 N 
HETATM   15  C1  UNL     1      -1.231   2.554  51.835  1.00  0.00     0.302 C 
BRANCH  14  16
HETATM   16  N2  UNL     1      -0.965   1.193  53.666  1.00  0.00    -0.261 N 
ATOM     17  H22 UNL     1      -0.164   1.003  54.268  1.00  0.00     0.183 HD
ATOM     18  H21 UNL     1      -1.919   1.411  53.956  1.00  0.00     0.183 HD
ENDBRANCH  14  16
BRANCH  14  19
HETATM   19  C2  UNL     1       0.477   0.922  51.954  1.00  0.00     0.265 C 
BRANCH  19  20
HETATM   20  C3  UNL     1       0.658  -0.062  50.854  1.00  0.00     0.057 C 
BRANCH  20  21
HETATM   21  C4  UNL     1       2.077   0.131  50.302  1.00  0.00     0.231 C 
BRANCH  21  22
HETATM   22  N3  UNL     1       2.174  -0.459  48.983  1.00  0.00    -0.079 N 
ATOM     23  H33 UNL     1       2.578  -1.396  49.009  1.00  0.00     0.274 HD
ATOM     24  H32 UNL     1       1.259  -0.703  48.603  1.00  0.00     0.274 HD
ATOM     25  H31 UNL     1       2.693   0.163  48.363  1.00  0.00     0.274 HD
ENDBRANCH  21  22
ENDBRANCH  20  21
ENDBRANCH  19  20
ENDBRANCH  14  19
ENDBRANCH  13  14
ENDBRANCH  12  13
ENDBRANCH   1  12
BRANCH   3  26
HETATM   26  C9  UNL     1      -7.177  -1.379  50.348  1.00  0.00     0.416 C 
BRANCH  26  27
HETATM   27  N5  UNL     1      -6.777  -2.722  50.088  1.00  0.00    -0.046 N 
ATOM     28  H53 UNL     1      -7.597  -3.323  50.007  1.00  0.00     0.277 HD
ATOM     29  H52 UNL     1      -6.403  -2.799  49.142  1.00  0.00     0.277 HD
ATOM     30  H51 UNL     1      -6.117  -3.119  50.758  1.00  0.00     0.277 HD
ENDBRANCH  26  27
BRANCH  26  31
HETATM   31  N6  UNL     1      -7.216  -0.678  49.054  1.00  0.00    -0.046 N 
ATOM     32  H63 UNL     1      -7.126   0.331  49.166  1.00  0.00     0.277 HD
ATOM     33  H62 UNL     1      -6.372  -0.845  48.506  1.00  0.00     0.277 HD
ATOM     34  H61 UNL     1      -8.060  -0.930  48.539  1.00  0.00     0.277 HD
ENDBRANCH  26  31
ENDBRANCH   3  26
TORSDOF 11
ENDMDL
MODEL 5
REMARK VINA RESULT: -6.086083030      1.534      2.120
REMARK  11 active torsions:
REMARK  status: ('A' for Active; 'I' for Inactive)
REMARK    1  A    between atoms: N1_2  and  N2_3 
REMARK    2  A    between atoms: N1_2  and  C2_6 
REMARK    3  A    between atoms: N1_2  and  C5_13 
REMARK    4  A    between atoms: C2_6  and  C3_7 
REMARK    5  A    between atoms: C3_7  and  C4_8 
REMARK    6  A    between atoms: C4_8  and  N3_9 
REMARK    7  A    between atoms: C5_13  and  C6_14 
REMARK    8  A    between atoms: C6_14  and  N4_15 
REMARK    9  A    between atoms: C8_17  and  C9_18 
REMARK   10  A    between atoms: C9_18  and  N5_19 
REMARK   11  A    between atoms: C9_18  and  N6_23 
ROOT
HETATM    1  N4  UNL     1      -2.586   2.486  52.960  1.00  0.00    -0.307 N 
HETATM    2  C7  UNL     1      -2.200   1.170  52.935  1.00  0.00     0.110 A 
HETATM    3  C8  UNL     1      -0.919   0.778  52.598  1.00  0.00     0.058 A 
HETATM    4  C10 UNL     1      -0.041   1.784  52.284  1.00  0.00     0.114 A 
HETATM    5  N7  UNL     1       1.152   1.545  51.927  1.00  0.00    -0.385 N 
ATOM      6  H71 UNL     1       1.805   2.293  51.694  1.00  0.00     0.157 HD
ATOM      7  H72 UNL     1       1.465   0.575  51.900  1.00  0.00     0.157 HD
HETATM    8  N8  UNL     1      -0.462   3.091  52.321  1.00  0.00    -0.294 N 
ATOM      9  H8  UNL     1       0.205   3.826  52.086  1.00  0.00     0.172 HD
HETATM   10  C11 UNL     1      -1.711   3.444  52.651  1.00  0.00     0.328 A 
HETATM   11  O1  UNL     1      -2.006   4.694  52.648  1.00  0.00    -0.246 OA
ENDROOT
BRANCH   1  12
HETATM   12  C6  UNL     1      -3.932   2.785  53.349  1.00  0.00     0.163 C 
BRANCH  12  13
HETATM   13  C5  UNL     1      -5.032   2.649  52.402  1.00  0.00     0.284 C 
BRANCH  13  14
HETATM   14  N1  UNL     1      -5.906   1.564  52.315  1.00  0.00     0.004 N 
HETATM   15  C1  UNL     1      -5.900   0.730  53.490  1.00  0.00     0.302 C 
BRANCH  14  16
HETATM   16  N2  UNL     1      -7.260   1.883  52.042  1.00  0.00    -0.261 N 
ATOM     17  H22 UNL     1      -7.592   2.459  51.269  1.00  0.00     0.183 HD
ATOM     18  H21 UNL     1      -7.823   1.427  52.761  1.00  0.00     0.183 HD
ENDBRANCH  14  16
BRANCH  14  19
HETATM   19  C2  UNL     1      -5.552   0.710  51.150  1.00  0.00     0.265 C 
BRANCH  19  20
HETATM   20  C3  UNL     1      -5.492  -0.735  51.492  1.00  0.00     0.057 C 
BRANCH  20  21
HETATM   21  C4  UNL     1      -6.454  -1.466  50.546  1.00  0.00     0.231 C 
BRANCH  21  22
HETATM   22  N3  UNL     1      -7.668  -1.816  51.255  1.00  0.00    -0.079 N 
ATOM     23  H33 UNL     1      -8.045  -2.714  50.953  1.00  0.00     0.274 HD
ATOM     24  H32 UNL     1      -7.488  -2.052  52.231  1.00  0.00     0.274 HD
ATOM     25  H31 UNL     1      -8.351  -1.064  51.163  1.00  0.00     0.274 HD
ENDBRANCH  21  22
ENDBRANCH  20  21
ENDBRANCH  19  20
ENDBRANCH  14  19
ENDBRANCH  13  14
ENDBRANCH  12  13
ENDBRANCH   1  12
BRANCH   3  26
HETATM   26  C9  UNL     1      -0.538  -0.659  52.621  1.00  0.00     0.416 C 
BRANCH  26  27
HETATM   27  N5  UNL     1      -1.565  -1.570  52.239  1.00  0.00    -0.046 N 
ATOM     28  H53 UNL     1      -1.643  -2.319  52.928  1.00  0.00     0.277 HD
ATOM     29  H52 UNL     1      -2.479  -1.131  52.347  1.00  0.00     0.277 HD
ATOM     30  H51 UNL     1      -1.474  -1.963  51.302  1.00  0.00     0.277 HD
ENDBRANCH  26  27
BRANCH  26  31
HETATM   31  N6  UNL     1      -0.088  -1.050  53.967  1.00  0.00    -0.046 N 
ATOM     32  H63 UNL     1       0.588  -1.813  53.935  1.00  0.00     0.277 HD
ATOM     33  H62 UNL     1       0.507  -0.337  54.390  1.00  0.00     0.277 HD
ATOM     34  H61 UNL     1      -0.889  -1.276  54.557  1.00  0.00     0.277 HD
ENDBRANCH  26  31
ENDBRANCH   3  26
TORSDOF 11
ENDMDL
