MODEL 1
REMARK VINA RESULT: -6.647830021      0.000      0.000
REMARK  9 active torsions:
REMARK  status: ('A' for Active; 'I' for Inactive)
REMARK    1  A    between atoms: O1_2  and  N1_3 
REMARK    2  A    between atoms: N1_3  and  N2_4 
REMARK    3  A    between atoms: N2_4  and  O2_5 
REMARK    4  A    between atoms: N2_4  and  N3_7 
REMARK       I    between atoms: N3_7  and  C2_9 
REMARK       I    between atoms: C2_9  and  N5_13 
REMARK    5  A    between atoms: N5_13  and  C3_15 
REMARK    6  A    between atoms: C3_15  and  C4_16 
REMARK    7  A    between atoms: C4_16  and  N6_17 
REMARK    8  A    between atoms: N6_17  and  N7_18 
REMARK    9  A    between atoms: N7_18  and  C5_20 
ROOT
HETATM    1  N3  UNL     1      -7.774  -0.870  50.868  1.00  0.00    -0.111 N 
ATOM      2  H3  UNL     1      -8.746  -1.144  51.010  1.00  0.00     0.203 HD
HETATM    3  C2  UNL     1      -7.107  -0.132  51.865  1.00  0.00     0.685 C 
HETATM    4  N4  UNL     1      -6.473  -0.724  52.795  1.00  0.00    -0.234 N 
ATOM      5  H41 UNL     1      -5.991  -0.190  53.517  1.00  0.00     0.174 HD
ATOM      6  H42 UNL     1      -6.446  -1.744  52.821  1.00  0.00     0.174 HD
HETATM    7  N5  UNL     1      -7.145   1.278  51.829  1.00  0.00    -0.224 N 
ATOM      8  H5  UNL     1      -6.665   1.797  51.094  1.00  0.00     0.177 HD
ENDROOT
BRANCH   7   9
HETATM    9  C3  UNL     1      -7.886   1.967  52.866  1.00  0.00     0.155 C 
BRANCH   9  10
HETATM   10  C4  UNL     1      -7.012   3.044  53.470  1.00  0.00     0.155 C 
BRANCH  10  11
HETATM   11  N6  UNL     1      -5.702   2.495  53.685  1.00  0.00    -0.139 NA
BRANCH  11  12
HETATM   12  N7  UNL     1      -4.685   3.437  53.677  1.00  0.00    -0.293 N 
ATOM     13  H7  UNL     1      -4.847   4.315  54.170  1.00  0.00     0.183 HD
BRANCH  12  14
HETATM   14  C5  UNL     1      -3.451   3.266  53.042  1.00  0.00     0.088 C 
HETATM   15  N8  UNL     1      -2.644   4.243  52.881  1.00  0.00    -0.379 N 
HETATM   16  C6  UNL     1      -1.388   3.981  52.212  1.00  0.00     0.121 C 
ATOM     17  H8  UNL     1      -2.878   5.179  53.212  1.00  0.00     0.160 HD
HETATM   18  C7  UNL     1      -0.724   2.701  52.581  1.00  0.00     0.020 C 
HETATM   19  C8  UNL     1      -1.678   1.678  53.135  1.00  0.00     0.009 C 
HETATM   20  C9  UNL     1      -3.046   1.940  52.543  1.00  0.00     0.077 C 
ENDBRANCH  12  14
ENDBRANCH  11  12
ENDBRANCH  10  11
ENDBRANCH   9  10
ENDBRANCH   7   9
BRANCH   1  21
HETATM   21  N2  UNL     1      -7.118  -1.231  49.686  1.00  0.00     0.032 NA
BRANCH  21  22
HETATM   22  N1  UNL     1      -5.760  -0.862  49.835  1.00  0.00     0.042 NA
BRANCH  22  23
HETATM   23  O1  UNL     1      -5.103  -2.003  50.189  1.00  0.00    -0.273 OA
HETATM   24  C1  UNL     1      -3.850  -1.727  50.734  1.00  0.00     0.233 C 
ENDBRANCH  22  23
ENDBRANCH  21  22
BRANCH  21  25
HETATM   25  O2  UNL     1      -7.212  -2.569  49.468  1.00  0.00    -0.277 OA
ATOM     26  H2  UNL     1      -8.099  -2.793  49.208  1.00  0.00     0.240 HD
ENDBRANCH  21  25
ENDBRANCH   1  21
TORSDOF 9
ENDMDL
MODEL 2
REMARK VINA RESULT: -6.528300143      5.735      7.506
REMARK  9 active torsions:
REMARK  status: ('A' for Active; 'I' for Inactive)
REMARK    1  A    between atoms: O1_2  and  N1_3 
REMARK    2  A    between atoms: N1_3  and  N2_4 
REMARK    3  A    between atoms: N2_4  and  O2_5 
REMARK    4  A    between atoms: N2_4  and  N3_7 
REMARK       I    between atoms: N3_7  and  C2_9 
REMARK       I    between atoms: C2_9  and  N5_13 
REMARK    5  A    between atoms: N5_13  and  C3_15 
REMARK    6  A    between atoms: C3_15  and  C4_16 
REMARK    7  A    between atoms: C4_16  and  N6_17 
REMARK    8  A    between atoms: N6_17  and  N7_18 
REMARK    9  A    between atoms: N7_18  and  C5_20 
ROOT
HETATM    1  N3  UNL     1       0.091  -0.962  57.619  1.00  0.00    -0.111 N 
ATOM      2  H3  UNL     1       0.106  -0.286  58.382  1.00  0.00     0.203 HD
HETATM    3  C2  UNL     1      -1.056  -1.074  56.810  1.00  0.00     0.685 C 
HETATM    4  N4  UNL     1      -1.182  -0.364  55.762  1.00  0.00    -0.234 N 
ATOM      5  H41 UNL     1      -2.013  -0.444  55.177  1.00  0.00     0.174 HD
ATOM      6  H42 UNL     1      -0.446   0.293  55.503  1.00  0.00     0.174 HD
HETATM    7  N5  UNL     1      -2.074  -1.983  57.169  1.00  0.00    -0.224 N 
ATOM      8  H5  UNL     1      -1.918  -2.990  57.123  1.00  0.00     0.177 HD
ENDROOT
BRANCH   7   9
HETATM    9  C3  UNL     1      -3.347  -1.444  57.604  1.00  0.00     0.155 C 
BRANCH   9  10
HETATM   10  C4  UNL     1      -4.441  -1.955  56.693  1.00  0.00     0.155 C 
BRANCH  10  11
HETATM   11  N6  UNL     1      -4.307  -1.309  55.419  1.00  0.00    -0.139 NA
BRANCH  11  12
HETATM   12  N7  UNL     1      -5.508  -1.111  54.754  1.00  0.00    -0.293 N 
ATOM     13  H7  UNL     1      -6.367  -1.355  55.245  1.00  0.00     0.183 HD
BRANCH  12  14
HETATM   14  C5  UNL     1      -5.622  -0.600  53.458  1.00  0.00     0.088 C 
HETATM   15  N8  UNL     1      -6.698  -0.731  52.782  1.00  0.00    -0.379 N 
HETATM   16  C6  UNL     1      -6.733  -0.173  51.447  1.00  0.00     0.121 C 
ATOM     17  H8  UNL     1      -7.508  -1.214  53.171  1.00  0.00     0.160 HD
HETATM   18  C7  UNL     1      -6.078   1.154  51.294  1.00  0.00     0.020 C 
HETATM   19  C8  UNL     1      -5.055   1.436  52.360  1.00  0.00     0.009 C 
HETATM   20  C9  UNL     1      -4.493   0.114  52.835  1.00  0.00     0.077 C 
ENDBRANCH  12  14
ENDBRANCH  11  12
ENDBRANCH  10  11
ENDBRANCH   9  10
ENDBRANCH   7   9
BRANCH   1  21
HETATM   21  N2  UNL     1       1.212  -1.768  57.386  1.00  0.00     0.032 NA
BRANCH  21  22
HETATM   22  N1  UNL     1       1.086  -2.287  56.076  1.00  0.00     0.042 NA
BRANCH  22  23
HETATM   23  O1  UNL     1       1.306  -3.628  56.186  1.00  0.00    -0.273 OA
HETATM   24  C1  UNL     1       0.247  -4.368  55.663  1.00  0.00     0.233 C 
ENDBRANCH  22  23
ENDBRANCH  21  22
BRANCH  21  25
HETATM   25  O2  UNL     1       2.359  -1.046  57.489  1.00  0.00    -0.277 OA
ATOM     26  H2  UNL     1       2.995  -1.523  58.009  1.00  0.00     0.240 HD
ENDBRANCH  21  25
ENDBRANCH   1  21
TORSDOF 9
ENDMDL
MODEL 3
REMARK VINA RESULT: -6.454701856      1.771      2.343
REMARK  9 active torsions:
REMARK  status: ('A' for Active; 'I' for Inactive)
REMARK    1  A    between atoms: O1_2  and  N1_3 
REMARK    2  A    between atoms: N1_3  and  N2_4 
REMARK    3  A    between atoms: N2_4  and  O2_5 
REMARK    4  A    between atoms: N2_4  and  N3_7 
REMARK       I    between atoms: N3_7  and  C2_9 
REMARK       I    between atoms: C2_9  and  N5_13 
REMARK    5  A    between atoms: N5_13  and  C3_15 
REMARK    6  A    between atoms: C3_15  and  C4_16 
REMARK    7  A    between atoms: C4_16  and  N6_17 
REMARK    8  A    between atoms: N6_17  and  N7_18 
REMARK    9  A    between atoms: N7_18  and  C5_20 
ROOT
HETATM    1  N3  UNL     1      -6.511  -0.451  50.190  1.00  0.00    -0.111 N 
ATOM      2  H3  UNL     1      -5.765   0.153  49.848  1.00  0.00     0.203 HD
HETATM    3  C2  UNL     1      -6.963  -0.314  51.517  1.00  0.00     0.685 C 
HETATM    4  N4  UNL     1      -7.913   0.485  51.798  1.00  0.00    -0.234 N 
ATOM      5  H41 UNL     1      -8.241   0.585  52.759  1.00  0.00     0.174 HD
ATOM      6  H42 UNL     1      -8.353   1.032  51.058  1.00  0.00     0.174 HD
HETATM    7  N5  UNL     1      -6.356  -1.070  52.541  1.00  0.00    -0.224 N 
ATOM      8  H5  UNL     1      -6.471  -2.082  52.585  1.00  0.00     0.177 HD
ENDROOT
BRANCH   7   9
HETATM    9  C3  UNL     1      -5.563  -0.366  53.529  1.00  0.00     0.155 C 
BRANCH   9  10
HETATM   10  C4  UNL     1      -4.099  -0.482  53.166  1.00  0.00     0.155 C 
BRANCH  10  11
HETATM   11  N6  UNL     1      -3.826   0.432  52.093  1.00  0.00    -0.139 NA
BRANCH  11  12
HETATM   12  N7  UNL     1      -3.818   1.766  52.471  1.00  0.00    -0.293 N 
ATOM     13  H7  UNL     1      -4.691   2.167  52.813  1.00  0.00     0.183 HD
BRANCH  12  14
HETATM   14  C5  UNL     1      -2.697   2.599  52.417  1.00  0.00     0.088 C 
HETATM   15  N8  UNL     1      -2.657   3.706  53.052  1.00  0.00    -0.379 N 
HETATM   16  C6  UNL     1      -1.459   4.509  52.941  1.00  0.00     0.121 C 
ATOM     17  H8  UNL     1      -3.446   4.015  53.621  1.00  0.00     0.160 HD
HETATM   18  C7  UNL     1      -0.179   3.751  52.964  1.00  0.00     0.020 C 
HETATM   19  C8  UNL     1      -0.337   2.311  52.559  1.00  0.00     0.009 C 
HETATM   20  C9  UNL     1      -1.518   2.213  51.619  1.00  0.00     0.077 C 
ENDBRANCH  12  14
ENDBRANCH  11  12
ENDBRANCH  10  11
ENDBRANCH   9  10
ENDBRANCH   7   9
BRANCH   1  21
HETATM   21  N2  UNL     1      -7.074  -1.408  49.338  1.00  0.00     0.032 NA
BRANCH  21  22
HETATM   22  N1  UNL     1      -6.508  -2.657  49.685  1.00  0.00     0.042 NA
BRANCH  22  23
HETATM   23  O1  UNL     1      -6.977  -3.546  48.763  1.00  0.00    -0.273 OA
HETATM   24  C1  UNL     1      -6.252  -4.736  48.780  1.00  0.00     0.233 C 
ENDBRANCH  22  23
ENDBRANCH  21  22
BRANCH  21  25
HETATM   25  O2  UNL     1      -8.424  -1.455  49.484  1.00  0.00    -0.277 OA
ATOM     26  H2  UNL     1      -8.705  -0.792  50.104  1.00  0.00     0.240 HD
ENDBRANCH  21  25
ENDBRANCH   1  21
TORSDOF 9
ENDMDL
MODEL 4
REMARK VINA RESULT: -6.386878841      3.958      6.215
REMARK  9 active torsions:
REMARK  status: ('A' for Active; 'I' for Inactive)
REMARK    1  A    between atoms: O1_2  and  N1_3 
REMARK    2  A    between atoms: N1_3  and  N2_4 
REMARK    3  A    between atoms: N2_4  and  O2_5 
REMARK    4  A    between atoms: N2_4  and  N3_7 
REMARK       I    between atoms: N3_7  and  C2_9 
REMARK       I    between atoms: C2_9  and  N5_13 
REMARK    5  A    between atoms: N5_13  and  C3_15 
REMARK    6  A    between atoms: C3_15  and  C4_16 
REMARK    7  A    between atoms: C4_16  and  N6_17 
REMARK    8  A    between atoms: N6_17  and  N7_18 
REMARK    9  A    between atoms: N7_18  and  C5_20 
ROOT
HETATM    1  N3  UNL     1       0.128   0.031  53.061  1.00  0.00    -0.111 N 
ATOM      2  H3  UNL     1      -0.017   0.190  54.057  1.00  0.00     0.203 HD
HETATM    3  C2  UNL     1       0.267   1.131  52.193  1.00  0.00     0.685 C 
HETATM    4  N4  UNL     1       1.414   1.629  51.957  1.00  0.00    -0.234 N 
ATOM      5  H41 UNL     1       1.515   2.426  51.329  1.00  0.00     0.174 HD
ATOM      6  H42 UNL     1       2.242   1.229  52.399  1.00  0.00     0.174 HD
HETATM    7  N5  UNL     1      -0.877   1.684  51.583  1.00  0.00    -0.224 N 
ATOM      8  H5  UNL     1      -1.397   1.166  50.874  1.00  0.00     0.177 HD
ENDROOT
BRANCH   7   9
HETATM    9  C3  UNL     1      -1.294   3.011  51.990  1.00  0.00     0.155 C 
BRANCH   9  10
HETATM   10  C4  UNL     1      -2.630   2.919  52.694  1.00  0.00     0.155 C 
BRANCH  10  11
HETATM   11  N6  UNL     1      -2.642   1.721  53.485  1.00  0.00    -0.139 NA
BRANCH  11  12
HETATM   12  N7  UNL     1      -3.827   1.006  53.413  1.00  0.00    -0.293 N 
ATOM     13  H7  UNL     1      -4.421   0.987  54.242  1.00  0.00     0.183 HD
BRANCH  12  14
HETATM   14  C5  UNL     1      -4.265   0.309  52.283  1.00  0.00     0.088 C 
HETATM   15  N8  UNL     1      -3.641  -0.718  51.849  1.00  0.00    -0.379 N 
HETATM   16  C6  UNL     1      -4.162  -1.381  50.673  1.00  0.00     0.121 C 
ATOM     17  H8  UNL     1      -2.801  -1.059  52.317  1.00  0.00     0.160 HD
HETATM   18  C7  UNL     1      -5.643  -1.502  50.613  1.00  0.00     0.020 C 
HETATM   19  C8  UNL     1      -6.356  -0.482  51.459  1.00  0.00     0.009 C 
HETATM   20  C9  UNL     1      -5.475   0.744  51.560  1.00  0.00     0.077 C 
ENDBRANCH  12  14
ENDBRANCH  11  12
ENDBRANCH  10  11
ENDBRANCH   9  10
ENDBRANCH   7   9
BRANCH   1  21
HETATM   21  N2  UNL     1       0.186  -1.279  52.571  1.00  0.00     0.032 NA
BRANCH  21  22
HETATM   22  N1  UNL     1      -0.046  -2.143  53.667  1.00  0.00     0.042 NA
BRANCH  22  23
HETATM   23  O1  UNL     1       1.174  -2.352  54.240  1.00  0.00    -0.273 OA
HETATM   24  C1  UNL     1       1.172  -3.480  55.058  1.00  0.00     0.233 C 
ENDBRANCH  22  23
ENDBRANCH  21  22
BRANCH  21  25
HETATM   25  O2  UNL     1      -0.757  -1.482  51.614  1.00  0.00    -0.277 OA
ATOM     26  H2  UNL     1      -1.363  -0.751  51.597  1.00  0.00     0.240 HD
ENDBRANCH  21  25
ENDBRANCH   1  21
TORSDOF 9
ENDMDL
MODEL 5
REMARK VINA RESULT: -6.339159262      5.318      7.614
REMARK  9 active torsions:
REMARK  status: ('A' for Active; 'I' for Inactive)
REMARK    1  A    between atoms: O1_2  and  N1_3 
REMARK    2  A    between atoms: N1_3  and  N2_4 
REMARK    3  A    between atoms: N2_4  and  O2_5 
REMARK    4  A    between atoms: N2_4  and  N3_7 
REMARK       I    between atoms: N3_7  and  C2_9 
REMARK       I    between atoms: C2_9  and  N5_13 
REMARK    5  A    between atoms: N5_13  and  C3_15 
REMARK    6  A    between atoms: C3_15  and  C4_16 
REMARK    7  A    between atoms: C4_16  and  N6_17 
REMARK    8  A    between atoms: N6_17  and  N7_18 
REMARK    9  A    between atoms: N7_18  and  C5_20 
ROOT
HETATM    1  N3  UNL     1      -1.189  -2.978  56.840  1.00  0.00    -0.111 N 
ATOM      2  H3  UNL     1      -2.142  -3.274  57.049  1.00  0.00     0.203 HD
HETATM    3  C2  UNL     1      -0.975  -1.833  56.048  1.00  0.00     0.685 C 
HETATM    4  N4  UNL     1      -0.875  -0.684  56.584  1.00  0.00    -0.234 N 
ATOM      5  H41 UNL     1      -0.720   0.146  56.011  1.00  0.00     0.174 HD
ATOM      6  H42 UNL     1      -0.951  -0.588  57.597  1.00  0.00     0.174 HD
HETATM    7  N5  UNL     1      -0.870  -1.966  54.648  1.00  0.00    -0.224 N 
ATOM      8  H5  UNL     1      -0.069  -2.434  54.223  1.00  0.00     0.177 HD
ENDROOT
BRANCH   7   9
HETATM    9  C3  UNL     1      -1.932  -1.416  53.829  1.00  0.00     0.155 C 
BRANCH   9  10
HETATM   10  C4  UNL     1      -1.580  -1.598  52.369  1.00  0.00     0.155 C 
BRANCH  10  11
HETATM   11  N6  UNL     1      -2.785  -1.900  51.648  1.00  0.00    -0.139 NA
BRANCH  11  12
HETATM   12  N7  UNL     1      -3.647  -0.823  51.511  1.00  0.00    -0.293 N 
ATOM     13  H7  UNL     1      -3.311   0.094  51.803  1.00  0.00     0.183 HD
BRANCH  12  14
HETATM   14  C5  UNL     1      -4.946  -0.907  50.999  1.00  0.00     0.088 C 
HETATM   15  N8  UNL     1      -5.415  -2.007  50.550  1.00  0.00    -0.379 N 
HETATM   16  C6  UNL     1      -6.769  -2.007  50.039  1.00  0.00     0.121 C 
ATOM     17  H8  UNL     1      -4.854  -2.859  50.552  1.00  0.00     0.160 HD
HETATM   18  C7  UNL     1      -7.747  -1.205  50.822  1.00  0.00     0.020 C 
HETATM   19  C8  UNL     1      -7.100  -0.131  51.654  1.00  0.00     0.009 C 
HETATM   20  C9  UNL     1      -5.815   0.283  50.971  1.00  0.00     0.077 C 
ENDBRANCH  12  14
ENDBRANCH  11  12
ENDBRANCH  10  11
ENDBRANCH   9  10
ENDBRANCH   7   9
BRANCH   1  21
HETATM   21  N2  UNL     1      -0.110  -3.714  57.341  1.00  0.00     0.032 NA
BRANCH  21  22
HETATM   22  N1  UNL     1       0.269  -4.634  56.335  1.00  0.00     0.042 NA
BRANCH  22  23
HETATM   23  O1  UNL     1      -0.896  -5.138  55.836  1.00  0.00    -0.273 OA
HETATM   24  C1  UNL     1      -0.720  -5.677  54.564  1.00  0.00     0.233 C 
ENDBRANCH  22  23
ENDBRANCH  21  22
BRANCH  21  25
HETATM   25  O2  UNL     1       0.936  -2.899  57.640  1.00  0.00    -0.277 OA
ATOM     26  H2  UNL     1       0.820  -2.529  58.507  1.00  0.00     0.240 HD
ENDBRANCH  21  25
ENDBRANCH   1  21
TORSDOF 9
ENDMDL
