MODEL 1
REMARK VINA RESULT: -5.984022383      0.000      0.000
REMARK  10 active torsions:
REMARK  status: ('A' for Active; 'I' for Inactive)
REMARK    1  A    between atoms: N1_1  and  C1_5 
REMARK    2  A    between atoms: C1_5  and  C2_6 
REMARK    3  A    between atoms: C2_6  and  C3_7 
REMARK    4  A    between atoms: C3_7  and  C4_8 
REMARK    5  A    between atoms: C4_8  and  C5_9 
REMARK    6  A    between atoms: C5_9  and  C6_10 
REMARK    7  A    between atoms: C6_10  and  N2_11 
REMARK    8  A    between atoms: N2_11  and  C7_14 
REMARK    9  A    between atoms: C9_19  and  N4_20 
REMARK   10  A    between atoms: N6_28  and  N7_30 
ROOT
HETATM    1  C7  UNL     1      -4.328  -0.087  52.267  1.00  0.00     0.325 C 
HETATM    2  C8  UNL     1      -5.571  -0.605  52.924  1.00  0.00     0.257 C 
HETATM    3  O1  UNL     1      -5.484  -0.898  54.140  1.00  0.00    -0.271 OA
HETATM    4  N3  UNL     1      -6.874  -0.819  52.349  1.00  0.00    -0.316 N 
ATOM      5  H3  UNL     1      -7.690  -0.807  52.961  1.00  0.00     0.166 HD
HETATM    6  C9  UNL     1      -7.069  -1.055  50.912  1.00  0.00     0.385 C 
HETATM    7  N5  UNL     1      -6.668   0.041  50.095  1.00  0.00    -0.375 N 
ATOM      8  H5  UNL     1      -7.346   0.703  49.719  1.00  0.00     0.157 HD
HETATM    9  C10 UNL     1      -5.273   0.166  49.827  1.00  0.00     0.174 C 
HETATM   10  C11 UNL     1      -4.418  -0.511  50.845  1.00  0.00     0.060 C 
HETATM   11  N6  UNL     1      -3.740  -1.508  50.443  1.00  0.00    -0.311 N 
ATOM     12  H6  UNL     1      -3.823  -1.776  49.462  1.00  0.00     0.185 HD
ENDROOT
BRANCH   1  13
HETATM   13  N2  UNL     1      -4.367   1.363  52.283  1.00  0.00    -0.057 N 
ATOM     14  H22 UNL     1      -5.330   1.697  52.319  1.00  0.00     0.278 HD
ATOM     15  H21 UNL     1      -4.090   1.740  51.376  1.00  0.00     0.278 HD
BRANCH  13  16
HETATM   16  C6  UNL     1      -3.590   1.948  53.331  1.00  0.00     0.233 C 
BRANCH  16  17
HETATM   17  C5  UNL     1      -2.891   3.182  52.829  1.00  0.00     0.027 C 
BRANCH  17  18
HETATM   18  C4  UNL     1      -1.648   2.908  52.050  1.00  0.00     0.002 C 
BRANCH  18  19
HETATM   19  C3  UNL     1      -0.833   1.746  52.584  1.00  0.00     0.002 C 
BRANCH  19  20
HETATM   20  C2  UNL     1      -0.679   0.775  51.436  1.00  0.00     0.027 C 
BRANCH  20  21
HETATM   21  C1  UNL     1       0.708   0.196  51.333  1.00  0.00     0.229 C 
BRANCH  21  22
HETATM   22  N1  UNL     1       1.745   1.188  51.365  1.00  0.00    -0.079 N 
ATOM     23  H13 UNL     1       2.659   0.760  51.218  1.00  0.00     0.274 HD
ATOM     24  H12 UNL     1       1.701   1.782  50.537  1.00  0.00     0.274 HD
ATOM     25  H11 UNL     1       1.742   1.751  52.215  1.00  0.00     0.274 HD
ENDBRANCH  21  22
ENDBRANCH  20  21
ENDBRANCH  19  20
ENDBRANCH  18  19
ENDBRANCH  17  18
ENDBRANCH  16  17
ENDBRANCH  13  16
ENDBRANCH   1  13
BRANCH  11  26
HETATM   26  N7  UNL     1      -2.903  -2.251  51.241  1.00  0.00    -0.345 N 
ATOM     27  H72 UNL     1      -2.821  -1.961  52.216  1.00  0.00     0.176 HD
ATOM     28  H71 UNL     1      -2.368  -3.059  50.922  1.00  0.00     0.176 HD
ENDBRANCH  11  26
BRANCH   6  29
HETATM   29  N4  UNL     1      -8.514  -1.234  50.697  1.00  0.00    -0.041 N 
ATOM     30  H43 UNL     1      -9.080  -0.912  51.482  1.00  0.00     0.279 HD
ATOM     31  H42 UNL     1      -8.897  -0.602  49.994  1.00  0.00     0.279 HD
ATOM     32  H41 UNL     1      -8.662  -2.219  50.473  1.00  0.00     0.279 HD
ENDBRANCH   6  29
TORSDOF 10
ENDMDL
MODEL 2
REMARK VINA RESULT: -5.938063037      2.242      4.269
REMARK  10 active torsions:
REMARK  status: ('A' for Active; 'I' for Inactive)
REMARK    1  A    between atoms: N1_1  and  C1_5 
REMARK    2  A    between atoms: C1_5  and  C2_6 
REMARK    3  A    between atoms: C2_6  and  C3_7 
REMARK    4  A    between atoms: C3_7  and  C4_8 
REMARK    5  A    between atoms: C4_8  and  C5_9 
REMARK    6  A    between atoms: C5_9  and  C6_10 
REMARK    7  A    between atoms: C6_10  and  N2_11 
REMARK    8  A    between atoms: N2_11  and  C7_14 
REMARK    9  A    between atoms: C9_19  and  N4_20 
REMARK   10  A    between atoms: N6_28  and  N7_30 
ROOT
HETATM    1  C7  UNL     1      -4.404   0.006  52.177  1.00  0.00     0.325 C 
HETATM    2  C8  UNL     1      -5.647  -0.473  52.863  1.00  0.00     0.257 C 
HETATM    3  O1  UNL     1      -5.565  -0.676  54.097  1.00  0.00    -0.271 OA
HETATM    4  N3  UNL     1      -6.945  -0.740  52.298  1.00  0.00    -0.316 N 
ATOM      5  H3  UNL     1      -7.765  -0.691  52.903  1.00  0.00     0.166 HD
HETATM    6  C9  UNL     1      -7.129  -1.081  50.881  1.00  0.00     0.385 C 
HETATM    7  N5  UNL     1      -6.732  -0.045  49.988  1.00  0.00    -0.375 N 
ATOM      8  H5  UNL     1      -7.413   0.583  49.562  1.00  0.00     0.157 HD
HETATM    9  C10 UNL     1      -5.336   0.073  49.720  1.00  0.00     0.174 C 
HETATM   10  C11 UNL     1      -4.482  -0.520  50.789  1.00  0.00     0.060 C 
HETATM   11  N6  UNL     1      -3.793  -1.539  50.465  1.00  0.00    -0.311 N 
ATOM     12  H6  UNL     1      -3.869  -1.878  49.505  1.00  0.00     0.185 HD
ENDROOT
BRANCH   1  13
HETATM   13  N2  UNL     1      -4.455   1.453  52.087  1.00  0.00    -0.057 N 
ATOM     14  H22 UNL     1      -5.407   1.769  51.903  1.00  0.00     0.278 HD
ATOM     15  H21 UNL     1      -4.000   1.776  51.233  1.00  0.00     0.278 HD
BRANCH  13  16
HETATM   16  C6  UNL     1      -3.913   2.120  53.229  1.00  0.00     0.233 C 
BRANCH  16  17
HETATM   17  C5  UNL     1      -4.763   3.311  53.583  1.00  0.00     0.027 C 
BRANCH  17  18
HETATM   18  C4  UNL     1      -5.993   2.977  54.358  1.00  0.00     0.002 C 
BRANCH  18  19
HETATM   19  C3  UNL     1      -7.256   2.944  53.520  1.00  0.00     0.002 C 
BRANCH  19  20
HETATM   20  C2  UNL     1      -8.271   2.156  54.316  1.00  0.00     0.027 C 
BRANCH  20  21
HETATM   21  C1  UNL     1      -7.736   1.666  55.636  1.00  0.00     0.229 C 
BRANCH  21  22
HETATM   22  N1  UNL     1      -7.913   0.257  55.838  1.00  0.00    -0.079 N 
ATOM     23  H13 UNL     1      -8.899   0.032  55.975  1.00  0.00     0.274 HD
ATOM     24  H12 UNL     1      -7.741  -0.256  54.973  1.00  0.00     0.274 HD
ATOM     25  H11 UNL     1      -7.349  -0.119  56.601  1.00  0.00     0.274 HD
ENDBRANCH  21  22
ENDBRANCH  20  21
ENDBRANCH  19  20
ENDBRANCH  18  19
ENDBRANCH  17  18
ENDBRANCH  16  17
ENDBRANCH  13  16
ENDBRANCH   1  13
BRANCH  11  26
HETATM   26  N7  UNL     1      -2.955  -2.215  51.319  1.00  0.00    -0.345 N 
ATOM     27  H72 UNL     1      -3.062  -2.021  52.315  1.00  0.00     0.176 HD
ATOM     28  H71 UNL     1      -2.246  -2.885  51.021  1.00  0.00     0.176 HD
ENDBRANCH  11  26
BRANCH   6  29
HETATM   29  N4  UNL     1      -8.572  -1.288  50.671  1.00  0.00    -0.041 N 
ATOM     30  H43 UNL     1      -9.052  -1.635  51.502  1.00  0.00     0.279 HD
ATOM     31  H42 UNL     1      -9.092  -0.416  50.575  1.00  0.00     0.279 HD
ATOM     32  H41 UNL     1      -8.670  -1.905  49.865  1.00  0.00     0.279 HD
ENDBRANCH   6  29
TORSDOF 10
ENDMDL
MODEL 3
REMARK VINA RESULT: -5.909669105      1.730      2.375
REMARK  10 active torsions:
REMARK  status: ('A' for Active; 'I' for Inactive)
REMARK    1  A    between atoms: N1_1  and  C1_5 
REMARK    2  A    between atoms: C1_5  and  C2_6 
REMARK    3  A    between atoms: C2_6  and  C3_7 
REMARK    4  A    between atoms: C3_7  and  C4_8 
REMARK    5  A    between atoms: C4_8  and  C5_9 
REMARK    6  A    between atoms: C5_9  and  C6_10 
REMARK    7  A    between atoms: C6_10  and  N2_11 
REMARK    8  A    between atoms: N2_11  and  C7_14 
REMARK    9  A    between atoms: C9_19  and  N4_20 
REMARK   10  A    between atoms: N6_28  and  N7_30 
ROOT
HETATM    1  C7  UNL     1      -6.107   1.070  52.968  1.00  0.00     0.325 C 
HETATM    2  C8  UNL     1      -7.464   1.006  52.337  1.00  0.00     0.257 C 
HETATM    3  O1  UNL     1      -8.314   1.831  52.745  1.00  0.00    -0.271 OA
HETATM    4  N3  UNL     1      -7.941   0.115  51.310  1.00  0.00    -0.316 N 
ATOM      5  H3  UNL     1      -8.722   0.412  50.725  1.00  0.00     0.166 HD
HETATM    6  C9  UNL     1      -7.342  -1.206  51.077  1.00  0.00     0.385 C 
HETATM    7  N5  UNL     1      -5.977  -1.151  50.674  1.00  0.00    -0.375 N 
ATOM      8  H5  UNL     1      -5.704  -1.246  49.696  1.00  0.00     0.157 HD
HETATM    9  C10 UNL     1      -5.011  -0.958  51.705  1.00  0.00     0.174 C 
HETATM   10  C11 UNL     1      -5.578  -0.318  52.927  1.00  0.00     0.060 C 
HETATM   11  N6  UNL     1      -5.599  -1.029  53.982  1.00  0.00    -0.311 N 
ATOM     12  H6  UNL     1      -5.230  -1.978  53.923  1.00  0.00     0.185 HD
ENDROOT
BRANCH   1  13
HETATM   13  N2  UNL     1      -5.244   1.879  52.128  1.00  0.00    -0.057 N 
ATOM     14  H22 UNL     1      -5.702   2.092  51.242  1.00  0.00     0.278 HD
ATOM     15  H21 UNL     1      -4.457   1.328  51.784  1.00  0.00     0.278 HD
BRANCH  13  16
HETATM   16  C6  UNL     1      -4.784   3.076  52.759  1.00  0.00     0.233 C 
BRANCH  16  17
HETATM   17  C5  UNL     1      -3.335   2.934  53.142  1.00  0.00     0.027 C 
BRANCH  17  18
HETATM   18  C4  UNL     1      -2.464   4.047  52.662  1.00  0.00     0.002 C 
BRANCH  18  19
HETATM   19  C3  UNL     1      -1.046   3.618  52.337  1.00  0.00     0.002 C 
BRANCH  19  20
HETATM   20  C2  UNL     1      -1.150   2.233  51.742  1.00  0.00     0.027 C 
BRANCH  20  21
HETATM   21  C1  UNL     1      -0.128   1.274  52.296  1.00  0.00     0.229 C 
BRANCH  21  22
HETATM   22  N1  UNL     1       1.225   1.640  51.989  1.00  0.00    -0.079 N 
ATOM     23  H13 UNL     1       1.316   1.898  51.007  1.00  0.00     0.274 HD
ATOM     24  H12 UNL     1       1.465   2.532  52.421  1.00  0.00     0.274 HD
ATOM     25  H11 UNL     1       1.906   0.922  52.238  1.00  0.00     0.274 HD
ENDBRANCH  21  22
ENDBRANCH  20  21
ENDBRANCH  19  20
ENDBRANCH  18  19
ENDBRANCH  17  18
ENDBRANCH  16  17
ENDBRANCH  13  16
ENDBRANCH   1  13
BRANCH  11  26
HETATM   26  N7  UNL     1      -6.086  -0.605  55.195  1.00  0.00    -0.345 N 
ATOM     27  H72 UNL     1      -6.056   0.398  55.376  1.00  0.00     0.176 HD
ATOM     28  H71 UNL     1      -6.468  -1.223  55.911  1.00  0.00     0.176 HD
ENDBRANCH  11  26
BRANCH   6  29
HETATM   29  N4  UNL     1      -8.085  -1.826  49.966  1.00  0.00    -0.041 N 
ATOM     30  H43 UNL     1      -7.818  -1.459  49.052  1.00  0.00     0.279 HD
ATOM     31  H42 UNL     1      -7.819  -2.797  49.799  1.00  0.00     0.279 HD
ATOM     32  H41 UNL     1      -9.077  -1.711  50.171  1.00  0.00     0.279 HD
ENDBRANCH   6  29
TORSDOF 10
ENDMDL
MODEL 4
REMARK VINA RESULT: -5.880662901      3.967      5.733
REMARK  10 active torsions:
REMARK  status: ('A' for Active; 'I' for Inactive)
REMARK    1  A    between atoms: N1_1  and  C1_5 
REMARK    2  A    between atoms: C1_5  and  C2_6 
REMARK    3  A    between atoms: C2_6  and  C3_7 
REMARK    4  A    between atoms: C3_7  and  C4_8 
REMARK    5  A    between atoms: C4_8  and  C5_9 
REMARK    6  A    between atoms: C5_9  and  C6_10 
REMARK    7  A    between atoms: C6_10  and  N2_11 
REMARK    8  A    between atoms: N2_11  and  C7_14 
REMARK    9  A    between atoms: C9_19  and  N4_20 
REMARK   10  A    between atoms: N6_28  and  N7_30 
ROOT
HETATM    1  C7  UNL     1      -0.060  -1.093  53.101  1.00  0.00     0.325 C 
HETATM    2  C8  UNL     1       0.393  -1.877  54.295  1.00  0.00     0.257 C 
HETATM    3  O1  UNL     1       1.340  -2.677  54.116  1.00  0.00    -0.271 OA
HETATM    4  N3  UNL     1      -0.115  -1.844  55.643  1.00  0.00    -0.316 N 
ATOM      5  H3  UNL     1       0.500  -2.123  56.407  1.00  0.00     0.166 HD
HETATM    6  C9  UNL     1      -1.487  -1.421  55.955  1.00  0.00     0.385 C 
HETATM    7  N5  UNL     1      -1.760  -0.068  55.605  1.00  0.00    -0.375 N 
ATOM      8  H5  UNL     1      -1.748   0.677  56.302  1.00  0.00     0.157 HD
HETATM    9  C10 UNL     1      -2.052   0.196  54.234  1.00  0.00     0.174 C 
HETATM   10  C11 UNL     1      -1.510  -0.843  53.311  1.00  0.00     0.060 C 
HETATM   11  N6  UNL     1      -2.365  -1.542  52.681  1.00  0.00    -0.311 N 
ATOM     12  H6  UNL     1      -3.353  -1.348  52.846  1.00  0.00     0.185 HD
ENDROOT
BRANCH   1  13
HETATM   13  N2  UNL     1       0.601   0.198  53.118  1.00  0.00    -0.057 N 
ATOM     14  H22 UNL     1       1.579   0.098  53.389  1.00  0.00     0.278 HD
ATOM     15  H21 UNL     1       0.266   0.764  53.899  1.00  0.00     0.278 HD
BRANCH  13  16
HETATM   16  C6  UNL     1       0.488   0.918  51.889  1.00  0.00     0.233 C 
BRANCH  16  17
HETATM   17  C5  UNL     1       1.134   0.141  50.773  1.00  0.00     0.027 C 
BRANCH  17  18
HETATM   18  C4  UNL     1       2.583   0.437  50.579  1.00  0.00     0.002 C 
BRANCH  18  19
HETATM   19  C3  UNL     1       3.209  -0.300  49.412  1.00  0.00     0.002 C 
BRANCH  19  20
HETATM   20  C2  UNL     1       4.423   0.504  49.006  1.00  0.00     0.027 C 
BRANCH  20  21
HETATM   21  C1  UNL     1       4.419   1.903  49.565  1.00  0.00     0.229 C 
BRANCH  21  22
HETATM   22  N1  UNL     1       4.309   2.920  48.558  1.00  0.00    -0.079 N 
ATOM     23  H13 UNL     1       4.974   2.754  47.803  1.00  0.00     0.274 HD
ATOM     24  H12 UNL     1       3.436   2.822  48.040  1.00  0.00     0.274 HD
ATOM     25  H11 UNL     1       4.409   3.867  48.925  1.00  0.00     0.274 HD
ENDBRANCH  21  22
ENDBRANCH  20  21
ENDBRANCH  19  20
ENDBRANCH  18  19
ENDBRANCH  17  18
ENDBRANCH  16  17
ENDBRANCH  13  16
ENDBRANCH   1  13
BRANCH  11  26
HETATM   26  N7  UNL     1      -2.049  -2.542  51.793  1.00  0.00    -0.345 N 
ATOM     27  H72 UNL     1      -2.050  -2.294  50.803  1.00  0.00     0.176 HD
ATOM     28  H71 UNL     1      -1.818  -3.499  52.060  1.00  0.00     0.176 HD
ENDBRANCH  11  26
BRANCH   6  29
HETATM   29  N4  UNL     1      -1.647  -1.519  57.415  1.00  0.00    -0.041 N 
ATOM     30  H43 UNL     1      -2.622  -1.584  57.708  1.00  0.00     0.279 HD
ATOM     31  H42 UNL     1      -1.338  -2.415  57.793  1.00  0.00     0.279 HD
ATOM     32  H41 UNL     1      -1.158  -0.722  57.823  1.00  0.00     0.279 HD
ENDBRANCH   6  29
TORSDOF 10
ENDMDL
MODEL 5
REMARK VINA RESULT: -5.872619730      1.530      1.907
REMARK  10 active torsions:
REMARK  status: ('A' for Active; 'I' for Inactive)
REMARK    1  A    between atoms: N1_1  and  C1_5 
REMARK    2  A    between atoms: C1_5  and  C2_6 
REMARK    3  A    between atoms: C2_6  and  C3_7 
REMARK    4  A    between atoms: C3_7  and  C4_8 
REMARK    5  A    between atoms: C4_8  and  C5_9 
REMARK    6  A    between atoms: C5_9  and  C6_10 
REMARK    7  A    between atoms: C6_10  and  N2_11 
REMARK    8  A    between atoms: N2_11  and  C7_14 
REMARK    9  A    between atoms: C9_19  and  N4_20 
REMARK   10  A    between atoms: N6_28  and  N7_30 
ROOT
HETATM    1  C7  UNL     1      -4.437  -0.078  52.303  1.00  0.00     0.325 C 
HETATM    2  C8  UNL     1      -5.672  -0.649  52.930  1.00  0.00     0.257 C 
HETATM    3  O1  UNL     1      -5.590  -0.978  54.136  1.00  0.00    -0.271 OA
HETATM    4  N3  UNL     1      -6.963  -0.880  52.334  1.00  0.00    -0.316 N 
ATOM      5  H3  UNL     1      -7.785  -0.910  52.937  1.00  0.00     0.166 HD
HETATM    6  C9  UNL     1      -7.136  -1.075  50.888  1.00  0.00     0.385 C 
HETATM    7  N5  UNL     1      -6.757   0.056  50.110  1.00  0.00    -0.375 N 
ATOM      8  H5  UNL     1      -7.450   0.712  49.748  1.00  0.00     0.157 HD
HETATM    9  C10 UNL     1      -5.363   0.228  49.863  1.00  0.00     0.174 C 
HETATM   10  C11 UNL     1      -4.501  -0.458  50.868  1.00  0.00     0.060 C 
HETATM   11  N6  UNL     1      -3.792  -1.424  50.442  1.00  0.00    -0.311 N 
ATOM     12  H6  UNL     1      -3.858  -1.662  49.452  1.00  0.00     0.185 HD
ENDROOT
BRANCH   1  13
HETATM   13  N2  UNL     1      -4.515   1.370  52.364  1.00  0.00    -0.057 N 
ATOM     14  H22 UNL     1      -5.478   1.672  52.508  1.00  0.00     0.278 HD
ATOM     15  H21 UNL     1      -4.344   1.778  51.446  1.00  0.00     0.278 HD
BRANCH  13  16
HETATM   16  C6  UNL     1      -3.652   1.951  53.344  1.00  0.00     0.233 C 
BRANCH  16  17
HETATM   17  C5  UNL     1      -2.441   1.082  53.547  1.00  0.00     0.027 C 
BRANCH  17  18
HETATM   18  C4  UNL     1      -1.163   1.692  53.075  1.00  0.00     0.002 C 
BRANCH  18  19
HETATM   19  C3  UNL     1      -1.254   2.314  51.695  1.00  0.00     0.002 C 
BRANCH  19  20
HETATM   20  C2  UNL     1      -1.225   3.811  51.905  1.00  0.00     0.027 C 
BRANCH  20  21
HETATM   21  C1  UNL     1      -0.322   4.232  53.035  1.00  0.00     0.229 C 
BRANCH  21  22
HETATM   22  N1  UNL     1      -0.874   5.277  53.849  1.00  0.00    -0.079 N 
ATOM     23  H13 UNL     1      -0.204   5.576  54.557  1.00  0.00     0.274 HD
ATOM     24  H12 UNL     1      -0.957   6.143  53.317  1.00  0.00     0.274 HD
ATOM     25  H11 UNL     1      -1.766   5.029  54.278  1.00  0.00     0.274 HD
ENDBRANCH  21  22
ENDBRANCH  20  21
ENDBRANCH  19  20
ENDBRANCH  18  19
ENDBRANCH  17  18
ENDBRANCH  16  17
ENDBRANCH  13  16
ENDBRANCH   1  13
BRANCH  11  26
HETATM   26  N7  UNL     1      -2.943  -2.169  51.225  1.00  0.00    -0.345 N 
ATOM     27  H72 UNL     1      -3.229  -2.324  52.192  1.00  0.00     0.176 HD
ATOM     28  H71 UNL     1      -2.061  -2.568  50.903  1.00  0.00     0.176 HD
ENDBRANCH  11  26
BRANCH   6  29
HETATM   29  N4  UNL     1      -8.574  -1.286  50.651  1.00  0.00    -0.041 N 
ATOM     30  H43 UNL     1      -8.908  -0.849  49.792  1.00  0.00     0.279 HD
ATOM     31  H42 UNL     1      -8.803  -2.249  50.403  1.00  0.00     0.279 HD
ATOM     32  H41 UNL     1      -9.065  -0.960  51.484  1.00  0.00     0.279 HD
ENDBRANCH   6  29
TORSDOF 10
ENDMDL
