MODEL 1
REMARK VINA RESULT: -7.983258040      0.000      0.000
REMARK  3 active torsions:
REMARK  status: ('A' for Active; 'I' for Inactive)
REMARK    1  A    between atoms: N1_2  and  N2_3 
REMARK    2  A    between atoms: N1_2  and  N3_6 
REMARK    3  A    between atoms: N4_8  and  N5_10 
ROOT
HETATM    1  N5  UNL     1      48.827   5.742  14.809  1.00  0.00    -0.249 N 
ATOM      2  H5  UNL     1      49.623   6.377  14.883  1.00  0.00     0.192 HD
HETATM    3  C2  UNL     1      47.816   6.096  14.059  1.00  0.00     0.247 A 
HETATM    4  N6  UNL     1      46.739   5.309  13.918  1.00  0.00    -0.314 N 
ATOM      5  H6  UNL     1      46.729   4.419  14.416  1.00  0.00     0.170 HD
HETATM    6  C3  UNL     1      45.681   5.617  13.169  1.00  0.00     0.138 A 
HETATM    7  C4  UNL     1      44.478   5.029  12.846  1.00  0.00     0.291 A 
HETATM    8  O1  UNL     1      44.079   3.907  13.263  1.00  0.00    -0.264 OA
HETATM    9  N7  UNL     1      43.779   5.822  12.019  1.00  0.00    -0.258 N 
HETATM   10  C5  UNL     1      42.469   5.561  11.454  1.00  0.00     0.181 C 
HETATM   11  N8  UNL     1      44.527   6.918  11.807  1.00  0.00    -0.286 N 
HETATM   12  C6  UNL     1      44.094   8.006  10.960  1.00  0.00     0.178 C 
HETATM   13  C7  UNL     1      45.685   6.836  12.483  1.00  0.00     0.134 A 
HETATM   14  C8  UNL     1      46.794   7.631  12.636  1.00  0.00     0.176 A 
HETATM   15  N9  UNL     1      46.899   8.745  12.064  1.00  0.00    -0.378 N 
ATOM     16  H91 UNL     1      47.723   9.335  12.179  1.00  0.00     0.158 HD
ATOM     17  H92 UNL     1      46.128   9.052  11.471  1.00  0.00     0.158 HD
HETATM   18  O2  UNL     1      47.806   7.228  13.415  1.00  0.00    -0.259 OA
ENDROOT
BRANCH   1  19
HETATM   19  N4  UNL     1      48.869   4.557  15.501  1.00  0.00    -0.224 N 
HETATM   20  N3  UNL     1      49.626   4.453  16.497  1.00  0.00    -0.212 N 
ATOM     21  H3  UNL     1      50.209   5.234  16.797  1.00  0.00     0.211 HD
ATOM     22  H4  UNL     1      48.290   3.769  15.210  1.00  0.00     0.210 HD
BRANCH  20  23
HETATM   23  N1  UNL     1      49.647   3.239  17.179  1.00  0.00    -0.230 N 
HETATM   24  C1  UNL     1      49.250   3.115  18.570  1.00  0.00     0.201 C 
BRANCH  23  25
HETATM   25  N2  UNL     1      50.063   2.092  16.514  1.00  0.00    -0.328 N 
ATOM     26  H22 UNL     1      51.061   1.915  16.398  1.00  0.00     0.178 HD
ATOM     27  H21 UNL     1      49.347   1.457  16.161  1.00  0.00     0.178 HD
ENDBRANCH  23  25
ENDBRANCH  20  23
ENDBRANCH   1  19
TORSDOF 3
ENDMDL
MODEL 2
REMARK VINA RESULT: -7.789692982      3.164      7.100
REMARK  3 active torsions:
REMARK  status: ('A' for Active; 'I' for Inactive)
REMARK    1  A    between atoms: N1_2  and  N2_3 
REMARK    2  A    between atoms: N1_2  and  N3_6 
REMARK    3  A    between atoms: N4_8  and  N5_10 
ROOT
HETATM    1  N5  UNL     1      44.206  10.625  11.751  1.00  0.00    -0.249 N 
ATOM      2  H5  UNL     1      44.585  11.564  11.630  1.00  0.00     0.192 HD
HETATM    3  C2  UNL     1      45.031   9.652  12.038  1.00  0.00     0.247 A 
HETATM    4  N6  UNL     1      44.598   8.394  12.211  1.00  0.00    -0.314 N 
ATOM      5  H6  UNL     1      43.599   8.214  12.112  1.00  0.00     0.170 HD
HETATM    6  C3  UNL     1      45.392   7.364  12.504  1.00  0.00     0.138 A 
HETATM    7  C4  UNL     1      45.236   6.014  12.731  1.00  0.00     0.291 A 
HETATM    8  O1  UNL     1      44.141   5.390  12.700  1.00  0.00    -0.264 OA
HETATM    9  N7  UNL     1      46.425   5.447  12.992  1.00  0.00    -0.258 N 
HETATM   10  C5  UNL     1      46.684   4.050  13.282  1.00  0.00     0.181 C 
HETATM   11  N8  UNL     1      47.344   6.425  12.934  1.00  0.00    -0.286 N 
HETATM   12  C6  UNL     1      48.752   6.187  13.162  1.00  0.00     0.178 C 
HETATM   13  C7  UNL     1      46.764   7.600  12.642  1.00  0.00     0.134 A 
HETATM   14  C8  UNL     1      47.191   8.893  12.463  1.00  0.00     0.176 A 
HETATM   15  N9  UNL     1      48.402   9.214  12.564  1.00  0.00    -0.378 N 
ATOM     16  H91 UNL     1      48.720  10.174  12.431  1.00  0.00     0.158 HD
ATOM     17  H92 UNL     1      49.073   8.479  12.788  1.00  0.00     0.158 HD
HETATM   18  O2  UNL     1      46.310   9.858  12.170  1.00  0.00    -0.259 OA
ENDROOT
BRANCH   1  19
HETATM   19  N4  UNL     1      42.852  10.441  11.605  1.00  0.00    -0.224 N 
HETATM   20  N3  UNL     1      42.061  11.243  12.158  1.00  0.00    -0.212 N 
ATOM     21  H3  UNL     1      42.407  12.026  12.711  1.00  0.00     0.211 HD
ATOM     22  H4  UNL     1      42.494   9.661  11.053  1.00  0.00     0.210 HD
BRANCH  20  23
HETATM   23  N1  UNL     1      40.694  11.032  11.992  1.00  0.00    -0.230 N 
HETATM   24  C1  UNL     1      39.691  11.945  12.511  1.00  0.00     0.201 C 
BRANCH  23  25
HETATM   25  N2  UNL     1      40.257   9.906  11.305  1.00  0.00    -0.328 N 
ATOM     26  H22 UNL     1      39.890  10.008  10.359  1.00  0.00     0.178 HD
ATOM     27  H21 UNL     1      40.319   9.003  11.778  1.00  0.00     0.178 HD
ENDBRANCH  23  25
ENDBRANCH  20  23
ENDBRANCH   1  19
TORSDOF 3
ENDMDL
MODEL 3
REMARK VINA RESULT: -7.784449129      1.651      3.457
REMARK  3 active torsions:
REMARK  status: ('A' for Active; 'I' for Inactive)
REMARK    1  A    between atoms: N1_2  and  N2_3 
REMARK    2  A    between atoms: N1_2  and  N3_6 
REMARK    3  A    between atoms: N4_8  and  N5_10 
ROOT
HETATM    1  N5  UNL     1      45.952   4.157  13.543  1.00  0.00    -0.249 N 
ATOM      2  H5  UNL     1      45.393   3.318  13.386  1.00  0.00     0.192 HD
HETATM    3  C2  UNL     1      45.557   5.279  13.001  1.00  0.00     0.247 A 
HETATM    4  N6  UNL     1      46.245   6.418  13.168  1.00  0.00    -0.314 N 
ATOM      5  H6  UNL     1      47.093   6.386  13.735  1.00  0.00     0.170 HD
HETATM    6  C3  UNL     1      45.891   7.590  12.640  1.00  0.00     0.138 A 
HETATM    7  C4  UNL     1      46.382   8.877  12.642  1.00  0.00     0.291 A 
HETATM    8  O1  UNL     1      47.428   9.259  13.235  1.00  0.00    -0.264 OA
HETATM    9  N7  UNL     1      45.587   9.679  11.916  1.00  0.00    -0.258 N 
HETATM   10  C5  UNL     1      45.760  11.098  11.674  1.00  0.00     0.181 C 
HETATM   11  N8  UNL     1      44.586   8.914  11.447  1.00  0.00    -0.286 N 
HETATM   12  C6  UNL     1      43.527   9.439  10.615  1.00  0.00     0.178 C 
HETATM   13  C7  UNL     1      44.730   7.644  11.861  1.00  0.00     0.134 A 
HETATM   14  C8  UNL     1      44.037   6.471  11.700  1.00  0.00     0.176 A 
HETATM   15  N9  UNL     1      42.982   6.409  11.019  1.00  0.00    -0.378 N 
ATOM     16  H91 UNL     1      42.466   5.537  10.899  1.00  0.00     0.158 HD
ATOM     17  H92 UNL     1      42.645   7.267  10.582  1.00  0.00     0.158 HD
HETATM   18  O2  UNL     1      44.479   5.344  12.274  1.00  0.00    -0.259 OA
ENDROOT
BRANCH   1  19
HETATM   19  N4  UNL     1      47.084   4.054  14.315  1.00  0.00    -0.224 N 
HETATM   20  N3  UNL     1      47.007   4.266  15.549  1.00  0.00    -0.212 N 
ATOM     21  H3  UNL     1      46.119   4.513  15.985  1.00  0.00     0.211 HD
ATOM     22  H4  UNL     1      47.978   3.808  13.888  1.00  0.00     0.210 HD
BRANCH  20  23
HETATM   23  N1  UNL     1      48.171   4.155  16.305  1.00  0.00    -0.230 N 
HETATM   24  C1  UNL     1      48.260   3.318  17.489  1.00  0.00     0.201 C 
BRANCH  23  25
HETATM   25  N2  UNL     1      49.301   4.868  15.925  1.00  0.00    -0.328 N 
ATOM     26  H22 UNL     1      49.685   5.571  16.555  1.00  0.00     0.178 HD
ATOM     27  H21 UNL     1      49.714   4.660  15.014  1.00  0.00     0.178 HD
ENDBRANCH  23  25
ENDBRANCH  20  23
ENDBRANCH   1  19
TORSDOF 3
ENDMDL
MODEL 4
REMARK VINA RESULT: -7.772288857      1.429      2.851
REMARK  3 active torsions:
REMARK  status: ('A' for Active; 'I' for Inactive)
REMARK    1  A    between atoms: N1_2  and  N2_3 
REMARK    2  A    between atoms: N1_2  and  N3_6 
REMARK    3  A    between atoms: N4_8  and  N5_10 
ROOT
HETATM    1  N5  UNL     1      47.740   3.349  14.771  1.00  0.00    -0.249 N 
ATOM      2  H5  UNL     1      47.760   2.329  14.790  1.00  0.00     0.192 HD
HETATM    3  C2  UNL     1      46.936   3.941  13.927  1.00  0.00     0.247 A 
HETATM    4  N6  UNL     1      46.862   5.278  13.850  1.00  0.00    -0.314 N 
ATOM      5  H6  UNL     1      47.454   5.826  14.474  1.00  0.00     0.170 HD
HETATM    6  C3  UNL     1      46.063   5.935  13.010  1.00  0.00     0.138 A 
HETATM    7  C4  UNL     1      45.784   7.252  12.719  1.00  0.00     0.291 A 
HETATM    8  O1  UNL     1      46.313   8.252  13.277  1.00  0.00    -0.264 OA
HETATM    9  N7  UNL     1      44.861   7.328  11.747  1.00  0.00    -0.258 N 
HETATM   10  C5  UNL     1      44.302   8.532  11.161  1.00  0.00     0.181 C 
HETATM   11  N8  UNL     1      44.544   6.066  11.411  1.00  0.00    -0.286 N 
HETATM   12  C6  UNL     1      43.574   5.751  10.387  1.00  0.00     0.178 C 
HETATM   13  C7  UNL     1      45.247   5.192  12.150  1.00  0.00     0.134 A 
HETATM   14  C8  UNL     1      45.334   3.825  12.240  1.00  0.00     0.176 A 
HETATM   15  N9  UNL     1      44.646   3.064  11.514  1.00  0.00    -0.378 N 
ATOM     16  H91 UNL     1      44.711   2.048  11.581  1.00  0.00     0.158 HD
ATOM     17  H92 UNL     1      44.008   3.493  10.844  1.00  0.00     0.158 HD
HETATM   18  O2  UNL     1      46.172   3.261  13.120  1.00  0.00    -0.259 OA
ENDROOT
BRANCH   1  19
HETATM   19  N4  UNL     1      48.559   4.036  15.634  1.00  0.00    -0.224 N 
HETATM   20  N3  UNL     1      49.195   3.403  16.511  1.00  0.00    -0.212 N 
ATOM     21  H3  UNL     1      49.113   2.390  16.592  1.00  0.00     0.211 HD
ATOM     22  H4  UNL     1      48.649   5.049  15.562  1.00  0.00     0.210 HD
BRANCH  20  23
HETATM   23  N1  UNL     1      50.018   4.126  17.372  1.00  0.00    -0.230 N 
HETATM   24  C1  UNL     1      49.859   4.099  18.815  1.00  0.00     0.201 C 
BRANCH  23  25
HETATM   25  N2  UNL     1      51.035   4.910  16.843  1.00  0.00    -0.328 N 
ATOM     26  H22 UNL     1      52.000   4.584  16.900  1.00  0.00     0.178 HD
ATOM     27  H21 UNL     1      50.779   5.798  16.409  1.00  0.00     0.178 HD
ENDBRANCH  23  25
ENDBRANCH  20  23
ENDBRANCH   1  19
TORSDOF 3
ENDMDL
MODEL 5
REMARK VINA RESULT: -7.665483984      3.108      7.001
REMARK  3 active torsions:
REMARK  status: ('A' for Active; 'I' for Inactive)
REMARK    1  A    between atoms: N1_2  and  N2_3 
REMARK    2  A    between atoms: N1_2  and  N3_6 
REMARK    3  A    between atoms: N4_8  and  N5_10 
ROOT
HETATM    1  N5  UNL     1      44.734  10.408  12.160  1.00  0.00    -0.249 N 
ATOM      2  H5  UNL     1      45.354  11.139  12.511  1.00  0.00     0.192 HD
HETATM    3  C2  UNL     1      45.074   9.160  12.349  1.00  0.00     0.247 A 
HETATM    4  N6  UNL     1      44.306   8.151  11.914  1.00  0.00    -0.314 N 
ATOM      5  H6  UNL     1      43.440   8.384  11.428  1.00  0.00     0.170 HD
HETATM    6  C3  UNL     1      44.602   6.861  12.077  1.00  0.00     0.138 A 
HETATM    7  C4  UNL     1      44.025   5.653  11.751  1.00  0.00     0.291 A 
HETATM    8  O1  UNL     1      42.933   5.507  11.136  1.00  0.00    -0.264 OA
HETATM    9  N7  UNL     1      44.794   4.640  12.180  1.00  0.00    -0.258 N 
HETATM   10  C5  UNL     1      44.536   3.221  12.032  1.00  0.00     0.181 C 
HETATM   11  N8  UNL     1      45.862   5.190  12.782  1.00  0.00    -0.286 N 
HETATM   12  C6  UNL     1      46.919   4.399  13.372  1.00  0.00     0.178 C 
HETATM   13  C7  UNL     1      45.787   6.530  12.743  1.00  0.00     0.134 A 
HETATM   14  C8  UNL     1      46.563   7.574  13.182  1.00  0.00     0.176 A 
HETATM   15  N9  UNL     1      47.647   7.387  13.791  1.00  0.00    -0.378 N 
ATOM     16  H91 UNL     1      48.224   8.163  14.118  1.00  0.00     0.158 HD
ATOM     17  H92 UNL     1      47.942   6.425  13.956  1.00  0.00     0.158 HD
HETATM   18  O2  UNL     1      46.175   8.838  12.967  1.00  0.00    -0.259 OA
ENDROOT
BRANCH   1  19
HETATM   19  N4  UNL     1      43.582  10.781  11.513  1.00  0.00    -0.224 N 
HETATM   20  N3  UNL     1      42.580  11.120  12.188  1.00  0.00    -0.212 N 
ATOM     21  H3  UNL     1      42.610  11.122  13.208  1.00  0.00     0.211 HD
ATOM     22  H4  UNL     1      43.541  10.783  10.493  1.00  0.00     0.210 HD
BRANCH  20  23
HETATM   23  N1  UNL     1      41.426  11.493  11.504  1.00  0.00    -0.230 N 
HETATM   24  C1  UNL     1      40.906  10.742  10.375  1.00  0.00     0.201 C 
BRANCH  23  25
HETATM   25  N2  UNL     1      40.733  12.629  11.906  1.00  0.00    -0.328 N 
ATOM     26  H22 UNL     1      41.252  13.471  12.153  1.00  0.00     0.178 HD
ATOM     27  H21 UNL     1      39.714  12.580  11.942  1.00  0.00     0.178 HD
ENDBRANCH  23  25
ENDBRANCH  20  23
ENDBRANCH   1  19
TORSDOF 3
ENDMDL
