MODEL 1
REMARK VINA RESULT: -6.999386170      0.000      0.000
REMARK  9 active torsions:
REMARK  status: ('A' for Active; 'I' for Inactive)
REMARK    1  A    between atoms: O1_2  and  C2_3 
REMARK    2  A    between atoms: C2_3  and  C3_5 
REMARK    3  A    between atoms: C4_6  and  O3_7 
REMARK    4  A    between atoms: C5_9  and  C6_10 
REMARK    5  A    between atoms: C6_10  and  O4_11 
REMARK    6  A    between atoms: O4_11  and  C7_12 
REMARK    7  A    between atoms: C7_12  and  N1_13 
REMARK    8  A    between atoms: C7_12  and  N2_17 
REMARK    9  A    between atoms: C9_23  and  O5_25 
ROOT
HETATM    1  C7  UNL     1      48.251   3.564  16.799  1.00  0.00     0.484 C 
HETATM    2  C8  UNL     1      49.386   3.828  17.682  1.00  0.00     0.160 C 
HETATM    3  N3  UNL     1      50.291   4.022  18.374  1.00  0.00    -0.190 NA
ENDROOT
BRANCH   1   4
HETATM    4  O4  UNL     1      47.744   4.773  16.255  1.00  0.00    -0.291 OA
BRANCH   4   5
HETATM    5  C6  UNL     1      48.364   5.277  15.113  1.00  0.00     0.154 C 
BRANCH   5   6
HETATM    6  C5  UNL     1      47.683   5.613  14.030  1.00  0.00     0.036 A 
HETATM    7  C4  UNL     1      46.705   4.995  13.228  1.00  0.00     0.092 A 
HETATM    8  C3  UNL     1      46.615   6.004  12.425  1.00  0.00     0.089 A 
HETATM    9  C9  UNL     1      47.614   6.754  13.162  1.00  0.00     0.121 A 
HETATM   10  C10 UNL     1      48.842   6.962  12.279  1.00  0.00     0.057 C 
BRANCH   7  11
HETATM   11  O3  UNL     1      46.018   3.741  13.227  1.00  0.00    -0.359 OA
ATOM     12  H3  UNL     1      45.436   3.354  13.871  1.00  0.00     0.217 HD
ENDBRANCH   7  11
BRANCH   8  13
HETATM   13  C2  UNL     1      45.812   6.309  11.213  1.00  0.00     0.295 C 
HETATM   14  O2  UNL     1      44.777   6.993  11.263  1.00  0.00    -0.259 OA
BRANCH  13  15
HETATM   15  O1  UNL     1      46.212   5.828   9.974  1.00  0.00    -0.323 OA
HETATM   16  C1  UNL     1      45.662   4.637   9.420  1.00  0.00     0.213 C 
ENDBRANCH  13  15
ENDBRANCH   8  13
BRANCH   9  17
HETATM   17  O5  UNL     1      47.147   7.950  13.723  1.00  0.00    -0.380 OA
ATOM     18  H5  UNL     1      46.999   8.649  13.097  1.00  0.00     0.211 HD
ENDBRANCH   9  17
ENDBRANCH   5   6
ENDBRANCH   4   5
ENDBRANCH   1   4
BRANCH   1  19
HETATM   19  N1  UNL     1      47.226   2.853  17.565  1.00  0.00    -0.007 N 
ATOM     20  H13 UNL     1      46.327   3.331  17.521  1.00  0.00     0.281 HD
ATOM     21  H12 UNL     1      46.963   1.978  17.114  1.00  0.00     0.281 HD
ATOM     22  H11 UNL     1      47.522   2.702  18.530  1.00  0.00     0.281 HD
ENDBRANCH   1  19
BRANCH   1  23
HETATM   23  N2  UNL     1      48.627   2.719  15.677  1.00  0.00    -0.007 N 
ATOM     24  H23 UNL     1      47.940   1.993  15.474  1.00  0.00     0.281 HD
ATOM     25  H22 UNL     1      48.578   3.200  14.779  1.00  0.00     0.281 HD
ATOM     26  H21 UNL     1      49.555   2.348  15.882  1.00  0.00     0.281 HD
ENDBRANCH   1  23
TORSDOF 9
ENDMDL
MODEL 2
REMARK VINA RESULT: -6.992638681      0.598      1.077
REMARK  9 active torsions:
REMARK  status: ('A' for Active; 'I' for Inactive)
REMARK    1  A    between atoms: O1_2  and  C2_3 
REMARK    2  A    between atoms: C2_3  and  C3_5 
REMARK    3  A    between atoms: C4_6  and  O3_7 
REMARK    4  A    between atoms: C5_9  and  C6_10 
REMARK    5  A    between atoms: C6_10  and  O4_11 
REMARK    6  A    between atoms: O4_11  and  C7_12 
REMARK    7  A    between atoms: C7_12  and  N1_13 
REMARK    8  A    between atoms: C7_12  and  N2_17 
REMARK    9  A    between atoms: C9_23  and  O5_25 
ROOT
HETATM    1  C7  UNL     1      48.266   3.568  16.814  1.00  0.00     0.484 C 
HETATM    2  C8  UNL     1      49.402   3.820  17.700  1.00  0.00     0.160 C 
HETATM    3  N3  UNL     1      50.307   4.006  18.394  1.00  0.00    -0.190 NA
ENDROOT
BRANCH   1   4
HETATM    4  O4  UNL     1      47.762   4.783  16.283  1.00  0.00    -0.291 OA
BRANCH   4   5
HETATM    5  C6  UNL     1      48.368   5.284  15.132  1.00  0.00     0.154 C 
BRANCH   5   6
HETATM    6  C5  UNL     1      47.678   5.583  14.043  1.00  0.00     0.036 A 
HETATM    7  C4  UNL     1      46.715   4.927  13.254  1.00  0.00     0.092 A 
HETATM    8  C3  UNL     1      46.598   5.919  12.434  1.00  0.00     0.089 A 
HETATM    9  C9  UNL     1      47.579   6.707  13.156  1.00  0.00     0.121 A 
HETATM   10  C10 UNL     1      48.801   6.929  12.268  1.00  0.00     0.057 C 
BRANCH   7  11
HETATM   11  O3  UNL     1      46.059   3.656  13.276  1.00  0.00    -0.359 OA
ATOM     12  H3  UNL     1      45.528   3.247  13.949  1.00  0.00     0.217 HD
ENDBRANCH   7  11
BRANCH   8  13
HETATM   13  C2  UNL     1      45.787   6.182  11.217  1.00  0.00     0.295 C 
HETATM   14  O2  UNL     1      46.202   5.912  10.078  1.00  0.00    -0.259 OA
BRANCH  13  15
HETATM   15  O1  UNL     1      44.525   6.746  11.330  1.00  0.00    -0.323 OA
HETATM   16  C1  UNL     1      43.345   5.950  11.321  1.00  0.00     0.213 C 
ENDBRANCH  13  15
ENDBRANCH   8  13
BRANCH   9  17
HETATM   17  O5  UNL     1      47.083   7.900  13.696  1.00  0.00    -0.380 OA
ATOM     18  H5  UNL     1      46.507   7.786  14.443  1.00  0.00     0.211 HD
ENDBRANCH   9  17
ENDBRANCH   5   6
ENDBRANCH   4   5
ENDBRANCH   1   4
BRANCH   1  19
HETATM   19  N1  UNL     1      47.241   2.851  17.574  1.00  0.00    -0.007 N 
ATOM     20  H13 UNL     1      47.559   2.632  18.517  1.00  0.00     0.281 HD
ATOM     21  H12 UNL     1      46.456   3.459  17.809  1.00  0.00     0.281 HD
ATOM     22  H11 UNL     1      46.930   2.014  17.080  1.00  0.00     0.281 HD
ENDBRANCH   1  19
BRANCH   1  23
HETATM   23  N2  UNL     1      48.641   2.733  15.684  1.00  0.00    -0.007 N 
ATOM     24  H23 UNL     1      48.881   3.270  14.851  1.00  0.00     0.281 HD
ATOM     25  H22 UNL     1      49.544   2.274  15.807  1.00  0.00     0.281 HD
ATOM     26  H21 UNL     1      47.875   2.076  15.532  1.00  0.00     0.281 HD
ENDBRANCH   1  23
TORSDOF 9
ENDMDL
MODEL 3
REMARK VINA RESULT: -6.984662188      1.802      2.279
REMARK  9 active torsions:
REMARK  status: ('A' for Active; 'I' for Inactive)
REMARK    1  A    between atoms: O1_2  and  C2_3 
REMARK    2  A    between atoms: C2_3  and  C3_5 
REMARK    3  A    between atoms: C4_6  and  O3_7 
REMARK    4  A    between atoms: C5_9  and  C6_10 
REMARK    5  A    between atoms: C6_10  and  O4_11 
REMARK    6  A    between atoms: O4_11  and  C7_12 
REMARK    7  A    between atoms: C7_12  and  N1_13 
REMARK    8  A    between atoms: C7_12  and  N2_17 
REMARK    9  A    between atoms: C9_23  and  O5_25 
ROOT
HETATM    1  C7  UNL     1      47.996   4.018  15.917  1.00  0.00     0.484 C 
HETATM    2  C8  UNL     1      48.890   2.979  16.423  1.00  0.00     0.160 C 
HETATM    3  N3  UNL     1      49.592   2.160  16.840  1.00  0.00    -0.190 NA
ENDROOT
BRANCH   1   4
HETATM    4  O4  UNL     1      47.355   3.595  14.723  1.00  0.00    -0.291 OA
BRANCH   4   5
HETATM    5  C6  UNL     1      47.419   4.445  13.621  1.00  0.00     0.154 C 
BRANCH   5   6
HETATM    6  C5  UNL     1      46.374   4.667  12.840  1.00  0.00     0.036 A 
HETATM    7  C4  UNL     1      45.333   3.883  12.308  1.00  0.00     0.092 A 
HETATM    8  C3  UNL     1      44.793   4.879  11.689  1.00  0.00     0.089 A 
HETATM    9  C9  UNL     1      45.806   5.801  12.168  1.00  0.00     0.121 A 
HETATM   10  C10 UNL     1      46.619   6.316  10.983  1.00  0.00     0.057 C 
BRANCH   7  11
HETATM   11  O3  UNL     1      44.945   2.507  12.376  1.00  0.00    -0.359 OA
ATOM     12  H3  UNL     1      44.970   1.893  13.100  1.00  0.00     0.217 HD
ENDBRANCH   7  11
BRANCH   8  13
HETATM   13  C2  UNL     1      43.600   5.051  10.819  1.00  0.00     0.295 C 
HETATM   14  O2  UNL     1      42.530   5.506  11.252  1.00  0.00    -0.259 OA
BRANCH  13  15
HETATM   15  O1  UNL     1      43.661   4.699   9.479  1.00  0.00    -0.323 OA
HETATM   16  C1  UNL     1      44.729   3.915   8.957  1.00  0.00     0.213 C 
ENDBRANCH  13  15
ENDBRANCH   8  13
BRANCH   9  17
HETATM   17  O5  UNL     1      45.317   6.837  12.974  1.00  0.00    -0.380 OA
ATOM     18  H5  UNL     1      45.974   7.461  13.258  1.00  0.00     0.211 HD
ENDBRANCH   9  17
ENDBRANCH   5   6
ENDBRANCH   4   5
ENDBRANCH   1   4
BRANCH   1  19
HETATM   19  N1  UNL     1      48.781   5.234  15.698  1.00  0.00    -0.007 N 
ATOM     20  H13 UNL     1      49.704   5.166  16.126  1.00  0.00     0.281 HD
ATOM     21  H12 UNL     1      49.065   5.325  14.723  1.00  0.00     0.281 HD
ATOM     22  H11 UNL     1      48.280   6.063  16.020  1.00  0.00     0.281 HD
ENDBRANCH   1  19
BRANCH   1  23
HETATM   23  N2  UNL     1      46.947   4.337  16.872  1.00  0.00    -0.007 N 
ATOM     24  H23 UNL     1      46.579   5.283  16.762  1.00  0.00     0.281 HD
ATOM     25  H22 UNL     1      46.076   3.837  16.693  1.00  0.00     0.281 HD
ATOM     26  H21 UNL     1      47.326   4.159  17.802  1.00  0.00     0.281 HD
ENDBRANCH   1  23
TORSDOF 9
ENDMDL
MODEL 4
REMARK VINA RESULT: -6.965670191      1.564      1.815
REMARK  9 active torsions:
REMARK  status: ('A' for Active; 'I' for Inactive)
REMARK    1  A    between atoms: O1_2  and  C2_3 
REMARK    2  A    between atoms: C2_3  and  C3_5 
REMARK    3  A    between atoms: C4_6  and  O3_7 
REMARK    4  A    between atoms: C5_9  and  C6_10 
REMARK    5  A    between atoms: C6_10  and  O4_11 
REMARK    6  A    between atoms: O4_11  and  C7_12 
REMARK    7  A    between atoms: C7_12  and  N1_13 
REMARK    8  A    between atoms: C7_12  and  N2_17 
REMARK    9  A    between atoms: C9_23  and  O5_25 
ROOT
HETATM    1  C7  UNL     1      47.937   3.655  16.158  1.00  0.00     0.484 C 
HETATM    2  C8  UNL     1      49.042   4.523  16.561  1.00  0.00     0.160 C 
HETATM    3  N3  UNL     1      49.926   5.197  16.877  1.00  0.00    -0.190 NA
ENDROOT
BRANCH   1   4
HETATM    4  O4  UNL     1      47.018   4.357  15.336  1.00  0.00    -0.291 OA
BRANCH   4   5
HETATM    5  C6  UNL     1      47.315   4.459  13.978  1.00  0.00     0.154 C 
BRANCH   5   6
HETATM    6  C5  UNL     1      46.382   4.678  13.065  1.00  0.00     0.036 A 
HETATM    7  C4  UNL     1      45.427   3.890  12.397  1.00  0.00     0.092 A 
HETATM    8  C3  UNL     1      44.967   4.887  11.716  1.00  0.00     0.089 A 
HETATM    9  C9  UNL     1      45.901   5.812  12.328  1.00  0.00     0.121 A 
HETATM   10  C10 UNL     1      46.862   6.338  11.264  1.00  0.00     0.057 C 
BRANCH   7  11
HETATM   11  O3  UNL     1      45.042   2.513  12.406  1.00  0.00    -0.359 OA
ATOM     12  H3  UNL     1      44.618   1.985  11.739  1.00  0.00     0.217 HD
ENDBRANCH   7  11
BRANCH   8  13
HETATM   13  C2  UNL     1      43.900   5.056  10.695  1.00  0.00     0.295 C 
HETATM   14  O2  UNL     1      42.930   5.810  10.876  1.00  0.00    -0.259 OA
BRANCH  13  15
HETATM   15  O1  UNL     1      43.967   4.361   9.497  1.00  0.00    -0.323 OA
HETATM   16  C1  UNL     1      45.194   4.198   8.792  1.00  0.00     0.213 C 
ENDBRANCH  13  15
ENDBRANCH   8  13
BRANCH   9  17
HETATM   17  O5  UNL     1      45.303   6.841  13.066  1.00  0.00    -0.380 OA
ATOM     18  H5  UNL     1      45.906   7.506  13.379  1.00  0.00     0.211 HD
ENDBRANCH   9  17
ENDBRANCH   5   6
ENDBRANCH   4   5
ENDBRANCH   1   4
BRANCH   1  19
HETATM   19  N1  UNL     1      47.289   3.144  17.367  1.00  0.00    -0.007 N 
ATOM     20  H13 UNL     1      47.611   3.635  18.200  1.00  0.00     0.281 HD
ATOM     21  H12 UNL     1      46.303   3.404  17.401  1.00  0.00     0.281 HD
ATOM     22  H11 UNL     1      47.412   2.135  17.456  1.00  0.00     0.281 HD
ENDBRANCH   1  19
BRANCH   1  23
HETATM   23  N2  UNL     1      48.404   2.511  15.392  1.00  0.00    -0.007 N 
ATOM     24  H23 UNL     1      47.856   1.666  15.557  1.00  0.00     0.281 HD
ATOM     25  H22 UNL     1      48.217   2.593  14.392  1.00  0.00     0.281 HD
ATOM     26  H21 UNL     1      49.396   2.394  15.605  1.00  0.00     0.281 HD
ENDBRANCH   1  23
TORSDOF 9
ENDMDL
MODEL 5
REMARK VINA RESULT: -6.922306196      3.314      5.044
REMARK  9 active torsions:
REMARK  status: ('A' for Active; 'I' for Inactive)
REMARK    1  A    between atoms: O1_2  and  C2_3 
REMARK    2  A    between atoms: C2_3  and  C3_5 
REMARK    3  A    between atoms: C4_6  and  O3_7 
REMARK    4  A    between atoms: C5_9  and  C6_10 
REMARK    5  A    between atoms: C6_10  and  O4_11 
REMARK    6  A    between atoms: O4_11  and  C7_12 
REMARK    7  A    between atoms: C7_12  and  N1_13 
REMARK    8  A    between atoms: C7_12  and  N2_17 
REMARK    9  A    between atoms: C9_23  and  O5_25 
ROOT
HETATM    1  C7  UNL     1      47.082   7.560  13.231  1.00  0.00     0.484 C 
HETATM    2  C8  UNL     1      48.061   7.707  12.156  1.00  0.00     0.160 C 
HETATM    3  N3  UNL     1      48.848   7.815  11.315  1.00  0.00    -0.190 NA
ENDROOT
BRANCH   1   4
HETATM    4  O4  UNL     1      45.828   7.139  12.717  1.00  0.00    -0.291 OA
BRANCH   4   5
HETATM    5  C6  UNL     1      45.476   5.802  12.893  1.00  0.00     0.154 C 
BRANCH   5   6
HETATM    6  C5  UNL     1      45.338   4.968  11.875  1.00  0.00     0.036 A 
HETATM    7  C4  UNL     1      45.634   5.006  10.500  1.00  0.00     0.092 A 
HETATM    8  C3  UNL     1      45.183   3.814  10.290  1.00  0.00     0.089 A 
HETATM    9  C9  UNL     1      44.825   3.641  11.685  1.00  0.00     0.121 A 
HETATM   10  C10 UNL     1      43.308   3.518  11.806  1.00  0.00     0.057 C 
BRANCH   7  11
HETATM   11  O3  UNL     1      46.213   5.954   9.599  1.00  0.00    -0.359 OA
ATOM     12  H3  UNL     1      45.910   6.812   9.325  1.00  0.00     0.217 HD
ENDBRANCH   7  11
BRANCH   8  13
HETATM   13  C2  UNL     1      45.061   2.934   9.099  1.00  0.00     0.295 C 
HETATM   14  O2  UNL     1      44.852   1.714   9.201  1.00  0.00    -0.259 OA
BRANCH  13  15
HETATM   15  O1  UNL     1      45.181   3.467   7.824  1.00  0.00    -0.323 OA
HETATM   16  C1  UNL     1      46.405   3.410   7.099  1.00  0.00     0.213 C 
ENDBRANCH  13  15
ENDBRANCH   8  13
BRANCH   9  17
HETATM   17  O5  UNL     1      45.502   2.601  12.335  1.00  0.00    -0.380 OA
ATOM     18  H5  UNL     1      46.406   2.795  12.557  1.00  0.00     0.211 HD
ENDBRANCH   9  17
ENDBRANCH   5   6
ENDBRANCH   4   5
ENDBRANCH   1   4
BRANCH   1  19
HETATM   19  N1  UNL     1      46.969   8.843  13.928  1.00  0.00    -0.007 N 
ATOM     20  H13 UNL     1      46.318   9.469  13.455  1.00  0.00     0.281 HD
ATOM     21  H12 UNL     1      46.477   8.743  14.816  1.00  0.00     0.281 HD
ATOM     22  H11 UNL     1      47.883   9.279  14.054  1.00  0.00     0.281 HD
ENDBRANCH   1  19
BRANCH   1  23
HETATM   23  N2  UNL     1      47.498   6.565  14.206  1.00  0.00    -0.007 N 
ATOM     24  H23 UNL     1      46.716   6.048  14.610  1.00  0.00     0.281 HD
ATOM     25  H22 UNL     1      47.977   5.768  13.786  1.00  0.00     0.281 HD
ATOM     26  H21 UNL     1      48.063   7.049  14.904  1.00  0.00     0.281 HD
ENDBRANCH   1  23
TORSDOF 9
ENDMDL
