MODEL 1
REMARK VINA RESULT: -8.570673259      0.000      0.000
REMARK  4 active torsions:
REMARK  status: ('A' for Active; 'I' for Inactive)
REMARK    1  A    between atoms: C4_9  and  N4_10 
REMARK    2  A    between atoms: C5_13  and  N5_14 
REMARK    3  A    between atoms: C7_20  and  O3_21 
REMARK    4  A    between atoms: C7_20  and  C8_23 
ROOT
HETATM    1  C8  UNL     1      45.293   3.570   9.524  1.00  0.00     0.290 C 
HETATM    2  O4  UNL     1      45.217   2.318   9.650  1.00  0.00    -0.275 OA
HETATM    3  C9  UNL     1      45.977   4.048   8.358  1.00  0.00     0.144 C 
HETATM    4  N7  UNL     1      46.548   4.447   7.415  1.00  0.00    -0.188 NA
ENDROOT
BRANCH   1   5
HETATM    5  C7  UNL     1      44.721   4.515  10.502  1.00  0.00     0.259 C 
HETATM    6  N1  UNL     1      43.498   4.065  11.083  1.00  0.00    -0.337 N 
HETATM    7  C1  UNL     1      42.621   5.118  11.463  1.00  0.00     0.154 C 
HETATM    8  C2  UNL     1      43.575   2.956  11.947  1.00  0.00     0.182 C 
HETATM    9  N2  UNL     1      44.808   2.842  12.686  1.00  0.00    -0.337 N 
HETATM   10  C3  UNL     1      45.758   3.885  12.623  1.00  0.00     0.136 A 
ATOM     11  H2  UNL     1      44.992   2.013  13.251  1.00  0.00     0.168 HD
HETATM   12  N3  UNL     1      46.660   4.037  13.603  1.00  0.00    -0.324 N 
HETATM   13  C6  UNL     1      45.745   4.738  11.552  1.00  0.00     0.120 A 
HETATM   14  C4  UNL     1      47.543   5.041  13.503  1.00  0.00     0.151 A 
ATOM     15  H3  UNL     1      46.674   3.405  14.404  1.00  0.00     0.169 HD
HETATM   16  C5  UNL     1      47.560   5.927  12.429  1.00  0.00     0.218 A 
HETATM   17  N6  UNL     1      46.643   5.751  11.461  1.00  0.00    -0.330 N 
ATOM     18  H6  UNL     1      46.623   6.379  10.658  1.00  0.00     0.168 HD
BRANCH  14  19
HETATM   19  N4  UNL     1      48.438   5.234  14.422  1.00  0.00    -0.382 N 
ATOM     20  H42 UNL     1      49.350   5.562  14.104  1.00  0.00     0.157 HD
ATOM     21  H41 UNL     1      48.224   5.062  15.405  1.00  0.00     0.157 HD
ENDBRANCH  14  19
BRANCH  16  22
HETATM   22  N5  UNL     1      48.527   6.974  12.386  1.00  0.00    -0.094 N 
HETATM   23  O1  UNL     1      48.113   8.142  12.411  1.00  0.00    -0.530 OA
HETATM   24  O2  UNL     1      49.876   6.737  12.319  1.00  0.00    -0.530 OA
ENDBRANCH  16  22
BRANCH   5  25
HETATM   25  O3  UNL     1      44.458   5.719   9.835  1.00  0.00    -0.359 OA
ATOM     26  H3  UNL     1      43.695   5.584   9.284  1.00  0.00     0.213 HD
ENDBRANCH   5  25
ENDBRANCH   1   5
TORSDOF 4
ENDMDL
MODEL 2
REMARK VINA RESULT: -8.454254923      2.295      2.826
REMARK  4 active torsions:
REMARK  status: ('A' for Active; 'I' for Inactive)
REMARK    1  A    between atoms: C4_9  and  N4_10 
REMARK    2  A    between atoms: C5_13  and  N5_14 
REMARK    3  A    between atoms: C7_20  and  O3_21 
REMARK    4  A    between atoms: C7_20  and  C8_23 
ROOT
HETATM    1  C8  UNL     1      45.691   4.776   9.480  1.00  0.00     0.290 C 
HETATM    2  O4  UNL     1      46.428   5.677   8.995  1.00  0.00    -0.275 OA
HETATM    3  C9  UNL     1      45.823   3.471   8.902  1.00  0.00     0.144 C 
HETATM    4  N7  UNL     1      45.914   2.404   8.424  1.00  0.00    -0.188 NA
ENDROOT
BRANCH   1   5
HETATM    5  C7  UNL     1      44.739   5.020  10.581  1.00  0.00     0.259 C 
HETATM    6  N1  UNL     1      44.473   3.864  11.372  1.00  0.00    -0.337 N 
HETATM    7  C1  UNL     1      43.174   3.848  11.950  1.00  0.00     0.154 C 
HETATM    8  C2  UNL     1      45.530   3.382  12.169  1.00  0.00     0.182 C 
HETATM    9  N2  UNL     1      46.440   4.392  12.651  1.00  0.00    -0.337 N 
HETATM   10  C3  UNL     1      46.144   5.756  12.438  1.00  0.00     0.136 A 
ATOM     11  H2  UNL     1      47.292   4.122  13.143  1.00  0.00     0.168 HD
HETATM   12  N3  UNL     1      46.683   6.695  13.229  1.00  0.00    -0.324 N 
HETATM   13  C6  UNL     1      45.301   6.107  11.418  1.00  0.00     0.120 A 
HETATM   14  C4  UNL     1      46.375   7.979  12.992  1.00  0.00     0.151 A 
ATOM     15  H3  UNL     1      47.312   6.440  13.992  1.00  0.00     0.169 HD
HETATM   16  C5  UNL     1      45.522   8.372  11.964  1.00  0.00     0.218 A 
HETATM   17  N6  UNL     1      44.996   7.409  11.188  1.00  0.00    -0.330 N 
ATOM     18  H6  UNL     1      44.367   7.657  10.425  1.00  0.00     0.168 HD
BRANCH  14  19
HETATM   19  N4  UNL     1      46.868   8.929  13.726  1.00  0.00    -0.382 N 
ATOM     20  H42 UNL     1      47.628   9.470  13.314  1.00  0.00     0.157 HD
ATOM     21  H41 UNL     1      46.504   9.109  14.661  1.00  0.00     0.157 HD
ENDBRANCH  14  19
BRANCH  16  22
HETATM   22  N5  UNL     1      45.236   9.755  11.768  1.00  0.00    -0.094 N 
HETATM   23  O1  UNL     1      44.067  10.131  11.939  1.00  0.00    -0.530 OA
HETATM   24  O2  UNL     1      46.192  10.667  11.404  1.00  0.00    -0.530 OA
ENDBRANCH  16  22
BRANCH   5  25
HETATM   25  O3  UNL     1      43.526   5.437  10.016  1.00  0.00    -0.359 OA
ATOM     26  H3  UNL     1      43.158   6.107  10.582  1.00  0.00     0.213 HD
ENDBRANCH   5  25
ENDBRANCH   1   5
TORSDOF 4
ENDMDL
MODEL 3
REMARK VINA RESULT: -7.941478698      2.051      5.218
REMARK  4 active torsions:
REMARK  status: ('A' for Active; 'I' for Inactive)
REMARK    1  A    between atoms: C4_9  and  N4_10 
REMARK    2  A    between atoms: C5_13  and  N5_14 
REMARK    3  A    between atoms: C7_20  and  O3_21 
REMARK    4  A    between atoms: C7_20  and  C8_23 
ROOT
HETATM    1  C8  UNL     1      46.601   4.787  13.135  1.00  0.00     0.290 C 
HETATM    2  O4  UNL     1      47.571   5.331  12.543  1.00  0.00    -0.275 OA
HETATM    3  C9  UNL     1      46.851   4.326  14.469  1.00  0.00     0.144 C 
HETATM    4  N7  UNL     1      47.051   3.932  15.555  1.00  0.00    -0.188 NA
ENDROOT
BRANCH   1   5
HETATM    5  C7  UNL     1      45.270   4.622  12.518  1.00  0.00     0.259 C 
HETATM    6  N1  UNL     1      44.408   5.741  12.712  1.00  0.00    -0.337 N 
HETATM    7  C1  UNL     1      43.027   5.403  12.750  1.00  0.00     0.154 C 
HETATM    8  C2  UNL     1      44.754   6.934  12.047  1.00  0.00     0.182 C 
HETATM    9  N2  UNL     1      45.429   6.755  10.786  1.00  0.00    -0.337 N 
HETATM   10  C3  UNL     1      45.557   5.458  10.240  1.00  0.00     0.136 A 
ATOM     11  H2  UNL     1      45.811   7.560  10.290  1.00  0.00     0.168 HD
HETATM   12  N3  UNL     1      45.748   5.296   8.924  1.00  0.00    -0.324 N 
HETATM   13  C6  UNL     1      45.483   4.372  11.071  1.00  0.00     0.120 A 
HETATM   14  C4  UNL     1      45.864   4.047   8.449  1.00  0.00     0.151 A 
ATOM     15  H3  UNL     1      45.804   6.101   8.299  1.00  0.00     0.169 HD
HETATM   16  C5  UNL     1      45.794   2.920   9.263  1.00  0.00     0.218 A 
HETATM   17  N6  UNL     1      45.601   3.114  10.580  1.00  0.00    -0.330 N 
ATOM     18  H6  UNL     1      45.544   2.313  11.209  1.00  0.00     0.168 HD
BRANCH  14  19
HETATM   19  N4  UNL     1      46.050   3.831   7.182  1.00  0.00    -0.382 N 
ATOM     20  H42 UNL     1      46.879   4.258   6.768  1.00  0.00     0.157 HD
ATOM     21  H41 UNL     1      45.394   3.263   6.647  1.00  0.00     0.157 HD
ENDBRANCH  14  19
BRANCH  16  22
HETATM   22  N5  UNL     1      45.924   1.620   8.692  1.00  0.00    -0.094 N 
HETATM   23  O1  UNL     1      44.981   0.829   8.839  1.00  0.00    -0.530 OA
HETATM   24  O2  UNL     1      47.037   1.222   7.997  1.00  0.00    -0.530 OA
ENDBRANCH  16  22
BRANCH   5  25
HETATM   25  O3  UNL     1      44.659   3.506  13.105  1.00  0.00    -0.359 OA
ATOM     26  H3  UNL     1      45.208   3.222  13.827  1.00  0.00     0.213 HD
ENDBRANCH   5  25
ENDBRANCH   1   5
TORSDOF 4
ENDMDL
MODEL 4
REMARK VINA RESULT: -7.805941337      3.050      4.075
REMARK  4 active torsions:
REMARK  status: ('A' for Active; 'I' for Inactive)
REMARK    1  A    between atoms: C4_9  and  N4_10 
REMARK    2  A    between atoms: C5_13  and  N5_14 
REMARK    3  A    between atoms: C7_20  and  O3_21 
REMARK    4  A    between atoms: C7_20  and  C8_23 
ROOT
HETATM    1  C8  UNL     1      45.436   4.802  10.095  1.00  0.00     0.290 C 
HETATM    2  O4  UNL     1      46.231   5.646   9.603  1.00  0.00    -0.275 OA
HETATM    3  C9  UNL     1      45.474   3.488   9.523  1.00  0.00     0.144 C 
HETATM    4  N7  UNL     1      45.488   2.415   9.050  1.00  0.00    -0.188 NA
ENDROOT
BRANCH   1   5
HETATM    5  C7  UNL     1      44.507   5.116  11.198  1.00  0.00     0.259 C 
HETATM    6  N1  UNL     1      44.714   4.321  12.363  1.00  0.00    -0.337 N 
HETATM    7  C1  UNL     1      43.535   4.103  13.128  1.00  0.00     0.154 C 
HETATM    8  C2  UNL     1      45.907   4.541  13.080  1.00  0.00     0.182 C 
HETATM    9  N2  UNL     1      46.406   5.893  13.033  1.00  0.00    -0.337 N 
HETATM   10  C3  UNL     1      45.625   6.905  12.432  1.00  0.00     0.136 A 
ATOM     11  H2  UNL     1      47.317   6.117  13.432  1.00  0.00     0.168 HD
HETATM   12  N3  UNL     1      45.818   8.190  12.759  1.00  0.00    -0.324 N 
HETATM   13  C6  UNL     1      44.669   6.556  11.514  1.00  0.00     0.120 A 
HETATM   14  C4  UNL     1      45.053   9.118  12.163  1.00  0.00     0.151 A 
ATOM     15  H3  UNL     1      46.527   8.456  13.442  1.00  0.00     0.169 HD
HETATM   16  C5  UNL     1      44.073   8.801  11.227  1.00  0.00     0.218 A 
HETATM   17  N6  UNL     1      43.902   7.503  10.919  1.00  0.00    -0.330 N 
ATOM     18  H6  UNL     1      43.194   7.231  10.238  1.00  0.00     0.168 HD
BRANCH  14  19
HETATM   19  N4  UNL     1      45.197  10.378  12.442  1.00  0.00    -0.382 N 
ATOM     20  H42 UNL     1      45.954  10.615  13.083  1.00  0.00     0.157 HD
ATOM     21  H41 UNL     1      44.579  11.078  12.032  1.00  0.00     0.157 HD
ENDBRANCH  14  19
BRANCH  16  22
HETATM   22  N5  UNL     1      43.295   9.838  10.633  1.00  0.00    -0.094 N 
HETATM   23  O1  UNL     1      43.877  10.642   9.890  1.00  0.00    -0.530 OA
HETATM   24  O2  UNL     1      41.949   9.975  10.852  1.00  0.00    -0.530 OA
ENDBRANCH  16  22
BRANCH   5  25
HETATM   25  O3  UNL     1      43.203   4.877  10.745  1.00  0.00    -0.359 OA
ATOM     26  H3  UNL     1      43.158   5.149   9.835  1.00  0.00     0.213 HD
ENDBRANCH   5  25
ENDBRANCH   1   5
TORSDOF 4
ENDMDL
MODEL 5
REMARK VINA RESULT: -7.723910987      2.179      4.899
REMARK  4 active torsions:
REMARK  status: ('A' for Active; 'I' for Inactive)
REMARK    1  A    between atoms: C4_9  and  N4_10 
REMARK    2  A    between atoms: C5_13  and  N5_14 
REMARK    3  A    between atoms: C7_20  and  O3_21 
REMARK    4  A    between atoms: C7_20  and  C8_23 
ROOT
HETATM    1  C8  UNL     1      45.246   7.117  12.499  1.00  0.00     0.290 C 
HETATM    2  O4  UNL     1      44.200   6.556  12.921  1.00  0.00    -0.275 OA
HETATM    3  C9  UNL     1      45.185   8.541  12.350  1.00  0.00     0.144 C 
HETATM    4  N7  UNL     1      45.138   9.704  12.211  1.00  0.00    -0.188 NA
ENDROOT
BRANCH   1   5
HETATM    5  C7  UNL     1      46.480   6.377  12.170  1.00  0.00     0.259 C 
HETATM    6  N1  UNL     1      47.258   6.026  13.313  1.00  0.00    -0.337 N 
HETATM    7  C1  UNL     1      48.653   5.943  13.056  1.00  0.00     0.154 C 
HETATM    8  C2  UNL     1      46.711   5.062  14.183  1.00  0.00     0.182 C 
HETATM    9  N2  UNL     1      45.876   4.073  13.549  1.00  0.00    -0.337 N 
HETATM   10  C3  UNL     1      45.786   4.035  12.140  1.00  0.00     0.136 A 
ATOM     11  H2  UNL     1      45.354   3.404  14.115  1.00  0.00     0.168 HD
HETATM   12  N3  UNL     1      45.418   2.906  11.517  1.00  0.00    -0.324 N 
HETATM   13  C6  UNL     1      46.080   5.162  11.420  1.00  0.00     0.120 A 
HETATM   14  C4  UNL     1      45.346   2.915  10.178  1.00  0.00     0.151 A 
ATOM     15  H3  UNL     1      45.198   2.063  12.048  1.00  0.00     0.169 HD
HETATM   16  C5  UNL     1      45.637   4.042   9.414  1.00  0.00     0.218 A 
HETATM   17  N6  UNL     1      46.004   5.159  10.065  1.00  0.00    -0.330 N 
ATOM     18  H6  UNL     1      46.225   6.005   9.541  1.00  0.00     0.168 HD
BRANCH  14  19
HETATM   19  N4  UNL     1      44.995   1.850   9.523  1.00  0.00    -0.382 N 
ATOM     20  H42 UNL     1      44.142   1.921   8.969  1.00  0.00     0.157 HD
ATOM     21  H41 UNL     1      45.554   0.999   9.572  1.00  0.00     0.157 HD
ENDBRANCH  14  19
BRANCH  16  22
HETATM   22  N5  UNL     1      45.541   3.981   7.992  1.00  0.00    -0.094 N 
HETATM   23  O1  UNL     1      44.438   3.702   7.501  1.00  0.00    -0.530 OA
HETATM   24  O2  UNL     1      46.608   4.216   7.164  1.00  0.00    -0.530 OA
ENDBRANCH  16  22
BRANCH   5  25
HETATM   25  O3  UNL     1      47.270   7.198  11.354  1.00  0.00    -0.359 OA
ATOM     26  H3  UNL     1      46.694   7.825  10.931  1.00  0.00     0.213 HD
ENDBRANCH   5  25
ENDBRANCH   1   5
TORSDOF 4
ENDMDL
