MODEL 1
REMARK VINA RESULT: -6.750315186      0.000      0.000
REMARK  9 active torsions:
REMARK  status: ('A' for Active; 'I' for Inactive)
REMARK    1  A    between atoms: C2_2  and  C3_3 
REMARK    2  A    between atoms: C10_10  and  O1_11 
REMARK    3  A    between atoms: C11_13  and  O2_15 
REMARK    4  A    between atoms: O2_15  and  S1_16 
REMARK    5  A    between atoms: C13_19  and  C14_20 
REMARK    6  A    between atoms: C14_20  and  O5_21 
REMARK    7  A    between atoms: O5_21  and  C15_22 
REMARK    8  A    between atoms: C15_22  and  C16_24 
REMARK    9  A    between atoms: C25_33  and  O7_34 
ROOT
HETATM    1  C3  UNL     1      15.191  51.986  68.277  1.00  0.00    -0.040 C 
HETATM    2  C4  UNL     1      14.806  53.425  68.169  1.00  0.00     0.015 C 
HETATM    3  C5  UNL     1      13.890  51.238  68.396  1.00  0.00     0.010 C 
HETATM    4  C6  UNL     1      14.225  49.794  68.521  1.00  0.00     0.014 C 
HETATM    5  C7  UNL     1      14.166  49.184  67.181  1.00  0.00    -0.005 C 
HETATM    6  C8  UNL     1      12.788  49.314  66.646  1.00  0.00     0.023 C 
HETATM    7  C9  UNL     1      12.849  47.877  66.306  1.00  0.00     0.052 C 
HETATM    8  C10 UNL     1      13.841  47.702  67.398  1.00  0.00     0.134 C 
HETATM    9  C11 UNL     1      13.658  47.787  65.002  1.00  0.00     0.090 C 
HETATM   10  C12 UNL     1      13.820  46.290  64.889  1.00  0.00     0.048 C 
HETATM   11  C13 UNL     1      14.887  48.598  65.022  1.00  0.00     0.056 C 
HETATM   12  C19 UNL     1      15.304  49.327  66.234  1.00  0.00    -0.018 C 
HETATM   13  C20 UNL     1      16.461  48.559  66.898  1.00  0.00     0.017 C 
HETATM   14  C21 UNL     1      15.775  50.764  66.054  1.00  0.00    -0.031 C 
HETATM   15  C22 UNL     1      14.924  51.588  65.146  1.00  0.00     0.016 C 
HETATM   16  C23 UNL     1      17.140  50.822  65.333  1.00  0.00     0.013 C 
HETATM   17  C24 UNL     1      17.431  52.224  64.805  1.00  0.00     0.032 C 
HETATM   18  C25 UNL     1      17.674  53.046  66.013  1.00  0.00     0.118 C 
HETATM   19  C26 UNL     1      17.351  52.352  67.295  1.00  0.00     0.038 C 
HETATM   20  C27 UNL     1      16.166  51.429  67.341  1.00  0.00     0.005 C 
ENDROOT
BRANCH  11  21
HETATM   21  C14 UNL     1      15.919  47.882  64.177  1.00  0.00     0.187 C 
BRANCH  21  22
HETATM   22  O5  UNL     1      16.172  48.300  62.981  1.00  0.00    -0.321 OA
BRANCH  22  23
HETATM   23  C15 UNL     1      16.423  48.715  61.791  1.00  0.00     0.262 C 
HETATM   24  O6  UNL     1      16.290  47.764  60.930  1.00  0.00    -0.265 OA
BRANCH  23  25
HETATM   25  C16 UNL     1      16.822  50.074  61.329  1.00  0.00     0.077 C 
HETATM   26  C17 UNL     1      15.794  51.114  61.686  1.00  0.00     0.020 C 
HETATM   27  C18 UNL     1      17.057  50.112  59.856  1.00  0.00     0.020 C 
ENDBRANCH  23  25
ENDBRANCH  22  23
ENDBRANCH  21  22
ENDBRANCH  11  21
BRANCH   9  28
HETATM   28  O2  UNL     1      12.742  48.159  64.031  1.00  0.00    -0.251 OA
BRANCH  28  29
HETATM   29  S1  UNL     1      12.525  46.943  62.863  1.00  0.00     0.401 S 
HETATM   30  O3  UNL     1      11.030  46.674  62.754  1.00  0.00    -0.179 OA
HETATM   31  O4  UNL     1      13.073  47.427  61.328  1.00  0.00    -0.179 OA
ENDBRANCH  28  29
ENDBRANCH   9  28
BRANCH   8  32
HETATM   32  O1  UNL     1      13.133  47.449  68.599  1.00  0.00    -0.394 OA
ATOM     33  H1  UNL     1      13.685  47.133  69.305  1.00  0.00     0.210 HD
ENDBRANCH   8  32
BRANCH   1  34
HETATM   34  C2  UNL     1      15.824  51.884  69.686  1.00  0.00     0.005 C 
HETATM   35  C1  UNL     1      15.127  52.693  70.725  1.00  0.00     0.006 C 
ENDBRANCH   1  34
BRANCH  18  36
HETATM   36  O7  UNL     1      19.009  53.456  66.059  1.00  0.00    -0.396 OA
ATOM     37  H7  UNL     1      19.094  54.337  65.714  1.00  0.00     0.210 HD
ENDBRANCH  18  36
TORSDOF 9
ENDMDL
MODEL 2
REMARK VINA RESULT: -6.674336546      2.517      5.539
REMARK  9 active torsions:
REMARK  status: ('A' for Active; 'I' for Inactive)
REMARK    1  A    between atoms: C2_2  and  C3_3 
REMARK    2  A    between atoms: C10_10  and  O1_11 
REMARK    3  A    between atoms: C11_13  and  O2_15 
REMARK    4  A    between atoms: O2_15  and  S1_16 
REMARK    5  A    between atoms: C13_19  and  C14_20 
REMARK    6  A    between atoms: C14_20  and  O5_21 
REMARK    7  A    between atoms: O5_21  and  C15_22 
REMARK    8  A    between atoms: C15_22  and  C16_24 
REMARK    9  A    between atoms: C25_33  and  O7_34 
ROOT
HETATM    1  C3  UNL     1      17.000  49.741  66.922  1.00  0.00    -0.040 C 
HETATM    2  C4  UNL     1      17.326  48.542  67.752  1.00  0.00     0.015 C 
HETATM    3  C5  UNL     1      18.288  50.104  66.233  1.00  0.00     0.010 C 
HETATM    4  C6  UNL     1      18.015  51.306  65.401  1.00  0.00     0.014 C 
HETATM    5  C7  UNL     1      17.698  50.865  64.032  1.00  0.00    -0.005 C 
HETATM    6  C8  UNL     1      18.867  50.144  63.469  1.00  0.00     0.023 C 
HETATM    7  C9  UNL     1      18.725  50.984  62.260  1.00  0.00     0.052 C 
HETATM    8  C10 UNL     1      18.085  52.023  63.106  1.00  0.00     0.134 C 
HETATM    9  C11 UNL     1      17.580  50.360  61.445  1.00  0.00     0.090 C 
HETATM   10  C12 UNL     1      17.406  51.411  60.376  1.00  0.00     0.048 C 
HETATM   11  C13 UNL     1      16.400  50.026  62.260  1.00  0.00     0.056 C 
HETATM   12  C19 UNL     1      16.337  50.370  63.694  1.00  0.00    -0.018 C 
HETATM   13  C20 UNL     1      15.423  51.596  63.867  1.00  0.00     0.017 C 
HETATM   14  C21 UNL     1      15.821  49.298  64.644  1.00  0.00    -0.031 C 
HETATM   15  C22 UNL     1      16.372  47.932  64.398  1.00  0.00     0.016 C 
HETATM   16  C23 UNL     1      14.307  49.057  64.452  1.00  0.00     0.013 C 
HETATM   17  C24 UNL     1      13.865  47.746  65.098  1.00  0.00     0.032 C 
HETATM   18  C25 UNL     1      13.967  47.985  66.556  1.00  0.00     0.118 C 
HETATM   19  C26 UNL     1      14.647  49.264  66.917  1.00  0.00     0.038 C 
HETATM   20  C27 UNL     1      15.805  49.730  66.080  1.00  0.00     0.005 C 
ENDROOT
BRANCH  11  21
HETATM   21  C14 UNL     1      15.177  50.204  61.386  1.00  0.00     0.187 C 
BRANCH  21  22
HETATM   22  O5  UNL     1      14.637  49.175  60.821  1.00  0.00    -0.321 OA
BRANCH  22  23
HETATM   23  C15 UNL     1      14.099  48.153  60.258  1.00  0.00     0.262 C 
HETATM   24  O6  UNL     1      14.936  47.557  59.479  1.00  0.00    -0.265 OA
BRANCH  23  25
HETATM   25  C16 UNL     1      12.715  47.618  60.395  1.00  0.00     0.077 C 
HETATM   26  C17 UNL     1      11.770  48.239  59.401  1.00  0.00     0.020 C 
HETATM   27  C18 UNL     1      12.175  47.826  61.771  1.00  0.00     0.020 C 
ENDBRANCH  23  25
ENDBRANCH  22  23
ENDBRANCH  21  22
ENDBRANCH  11  21
BRANCH   9  28
HETATM   28  O2  UNL     1      18.180  49.271  60.834  1.00  0.00    -0.251 OA
BRANCH  28  29
HETATM   29  S1  UNL     1      18.564  49.586  59.209  1.00  0.00     0.401 S 
HETATM   30  O3  UNL     1      20.080  49.520  59.076  1.00  0.00    -0.179 OA
HETATM   31  O4  UNL     1      17.905  48.423  58.158  1.00  0.00    -0.179 OA
ENDBRANCH  28  29
ENDBRANCH   9  28
BRANCH   8  32
HETATM   32  O1  UNL     1      19.107  52.851  63.634  1.00  0.00    -0.394 OA
ATOM     33  H1  UNL     1      19.862  52.931  63.063  1.00  0.00     0.210 HD
ENDBRANCH   8  32
BRANCH   1  34
HETATM   34  C2  UNL     1      16.793  50.862  67.968  1.00  0.00     0.005 C 
HETATM   35  C1  UNL     1      17.393  50.569  69.300  1.00  0.00     0.006 C 
ENDBRANCH   1  34
BRANCH  18  36
HETATM   36  O7  UNL     1      12.696  47.982  67.137  1.00  0.00    -0.396 OA
ATOM     37  H7  UNL     1      12.262  48.812  66.982  1.00  0.00     0.210 HD
ENDBRANCH  18  36
TORSDOF 9
ENDMDL
MODEL 3
REMARK VINA RESULT: -6.452103636      2.243      5.143
REMARK  9 active torsions:
REMARK  status: ('A' for Active; 'I' for Inactive)
REMARK    1  A    between atoms: C2_2  and  C3_3 
REMARK    2  A    between atoms: C10_10  and  O1_11 
REMARK    3  A    between atoms: C11_13  and  O2_15 
REMARK    4  A    between atoms: O2_15  and  S1_16 
REMARK    5  A    between atoms: C13_19  and  C14_20 
REMARK    6  A    between atoms: C14_20  and  O5_21 
REMARK    7  A    between atoms: O5_21  and  C15_22 
REMARK    8  A    between atoms: C15_22  and  C16_24 
REMARK    9  A    between atoms: C25_33  and  O7_34 
ROOT
HETATM    1  C3  UNL     1      16.088  50.560  68.657  1.00  0.00    -0.040 C 
HETATM    2  C4  UNL     1      16.394  49.474  69.637  1.00  0.00     0.015 C 
HETATM    3  C5  UNL     1      17.427  51.128  68.268  1.00  0.00     0.010 C 
HETATM    4  C6  UNL     1      17.170  52.226  67.298  1.00  0.00     0.014 C 
HETATM    5  C7  UNL     1      17.284  51.681  65.934  1.00  0.00    -0.005 C 
HETATM    6  C8  UNL     1      18.661  51.168  65.728  1.00  0.00     0.023 C 
HETATM    7  C9  UNL     1      18.686  51.921  64.455  1.00  0.00     0.052 C 
HETATM    8  C10 UNL     1      17.688  52.855  65.035  1.00  0.00     0.134 C 
HETATM    9  C11 UNL     1      17.903  51.065  63.445  1.00  0.00     0.090 C 
HETATM   10  C12 UNL     1      17.826  52.024  62.283  1.00  0.00     0.048 C 
HETATM   11  C13 UNL     1      16.631  50.550  63.980  1.00  0.00     0.056 C 
HETATM   12  C19 UNL     1      16.155  50.931  65.323  1.00  0.00    -0.018 C 
HETATM   13  C20 UNL     1      15.033  51.973  65.172  1.00  0.00     0.017 C 
HETATM   14  C21 UNL     1      15.608  49.819  66.208  1.00  0.00    -0.031 C 
HETATM   15  C22 UNL     1      16.426  48.571  66.215  1.00  0.00     0.016 C 
HETATM   16  C23 UNL     1      14.253  49.296  65.681  1.00  0.00     0.013 C 
HETATM   17  C24 UNL     1      13.893  47.952  66.308  1.00  0.00     0.032 C 
HETATM   18  C25 UNL     1      13.585  48.261  67.724  1.00  0.00     0.118 C 
HETATM   19  C26 UNL     1      13.926  49.656  68.130  1.00  0.00     0.038 C 
HETATM   20  C27 UNL     1      15.161  50.297  67.558  1.00  0.00     0.005 C 
ENDROOT
BRANCH  11  21
HETATM   21  C14 UNL     1      15.654  50.466  62.828  1.00  0.00     0.187 C 
BRANCH  21  22
HETATM   22  O5  UNL     1      15.330  49.312  62.343  1.00  0.00    -0.321 OA
BRANCH  22  23
HETATM   23  C15 UNL     1      15.009  48.165  61.860  1.00  0.00     0.262 C 
HETATM   24  O6  UNL     1      16.056  47.459  61.603  1.00  0.00    -0.265 OA
BRANCH  23  25
HETATM   25  C16 UNL     1      13.657  47.602  61.583  1.00  0.00     0.077 C 
HETATM   26  C17 UNL     1      12.777  48.583  60.855  1.00  0.00     0.020 C 
HETATM   27  C18 UNL     1      12.969  47.173  62.836  1.00  0.00     0.020 C 
ENDBRANCH  23  25
ENDBRANCH  22  23
ENDBRANCH  21  22
ENDBRANCH  11  21
BRANCH   9  28
HETATM   28  O2  UNL     1      18.812  50.082  63.087  1.00  0.00    -0.251 OA
BRANCH  28  29
HETATM   29  S1  UNL     1      19.346  50.265  61.484  1.00  0.00     0.401 S 
HETATM   30  O3  UNL     1      20.784  49.765  61.421  1.00  0.00    -0.179 OA
HETATM   31  O4  UNL     1      18.430  49.334  60.395  1.00  0.00    -0.179 OA
ENDBRANCH  28  29
ENDBRANCH   9  28
BRANCH   8  32
HETATM   32  O1  UNL     1      18.390  53.877  65.721  1.00  0.00    -0.394 OA
ATOM     33  H1  UNL     1      18.725  53.604  66.567  1.00  0.00     0.210 HD
ENDBRANCH   8  32
BRANCH   1  34
HETATM   34  C2  UNL     1      15.440  51.662  69.528  1.00  0.00     0.005 C 
HETATM   35  C1  UNL     1      15.500  51.395  70.992  1.00  0.00     0.006 C 
ENDBRANCH   1  34
BRANCH  18  36
HETATM   36  O7  UNL     1      12.229  48.046  67.983  1.00  0.00    -0.396 OA
ATOM     37  H7  UNL     1      11.869  48.775  68.474  1.00  0.00     0.210 HD
ENDBRANCH  18  36
TORSDOF 9
ENDMDL
MODEL 4
REMARK VINA RESULT: -6.438079148      2.564      5.525
REMARK  9 active torsions:
REMARK  status: ('A' for Active; 'I' for Inactive)
REMARK    1  A    between atoms: C2_2  and  C3_3 
REMARK    2  A    between atoms: C10_10  and  O1_11 
REMARK    3  A    between atoms: C11_13  and  O2_15 
REMARK    4  A    between atoms: O2_15  and  S1_16 
REMARK    5  A    between atoms: C13_19  and  C14_20 
REMARK    6  A    between atoms: C14_20  and  O5_21 
REMARK    7  A    between atoms: O5_21  and  C15_22 
REMARK    8  A    between atoms: C15_22  and  C16_24 
REMARK    9  A    between atoms: C25_33  and  O7_34 
ROOT
HETATM    1  C3  UNL     1      15.818  49.485  67.366  1.00  0.00    -0.040 C 
HETATM    2  C4  UNL     1      15.937  48.201  68.122  1.00  0.00     0.015 C 
HETATM    3  C5  UNL     1      17.225  50.011  67.262  1.00  0.00     0.010 C 
HETATM    4  C6  UNL     1      17.156  51.302  66.525  1.00  0.00     0.014 C 
HETATM    5  C7  UNL     1      17.414  51.039  65.098  1.00  0.00    -0.005 C 
HETATM    6  C8  UNL     1      18.776  50.470  64.946  1.00  0.00     0.023 C 
HETATM    7  C9  UNL     1      19.005  51.462  63.873  1.00  0.00     0.052 C 
HETATM    8  C10 UNL     1      17.993  52.335  64.521  1.00  0.00     0.134 C 
HETATM    9  C11 UNL     1      18.312  50.895  62.622  1.00  0.00     0.090 C 
HETATM   10  C12 UNL     1      18.438  52.075  61.689  1.00  0.00     0.048 C 
HETATM   11  C13 UNL     1      16.956  50.386  62.887  1.00  0.00     0.056 C 
HETATM   12  C19 UNL     1      16.333  50.522  64.217  1.00  0.00    -0.018 C 
HETATM   13  C20 UNL     1      15.298  51.660  64.163  1.00  0.00     0.017 C 
HETATM   14  C21 UNL     1      15.617  49.301  64.777  1.00  0.00    -0.031 C 
HETATM   15  C22 UNL     1      16.358  48.015  64.612  1.00  0.00     0.016 C 
HETATM   16  C23 UNL     1      14.315  49.007  64.000  1.00  0.00     0.013 C 
HETATM   17  C24 UNL     1      13.804  47.596  64.283  1.00  0.00     0.032 C 
HETATM   18  C25 UNL     1      13.335  47.634  65.688  1.00  0.00     0.118 C 
HETATM   19  C26 UNL     1      13.697  48.885  66.417  1.00  0.00     0.038 C 
HETATM   20  C27 UNL     1      15.027  49.527  66.138  1.00  0.00     0.005 C 
ENDROOT
BRANCH  11  21
HETATM   21  C14 UNL     1      16.131  50.617  61.639  1.00  0.00     0.187 C 
BRANCH  21  22
HETATM   22  O5  UNL     1      15.840  49.622  60.868  1.00  0.00    -0.321 OA
BRANCH  22  23
HETATM   23  C15 UNL     1      15.552  48.632  60.101  1.00  0.00     0.262 C 
HETATM   24  O6  UNL     1      16.526  48.365  59.300  1.00  0.00    -0.265 OA
BRANCH  23  25
HETATM   25  C16 UNL     1      14.306  47.816  60.039  1.00  0.00     0.077 C 
HETATM   26  C17 UNL     1      13.948  47.441  58.626  1.00  0.00     0.020 C 
HETATM   27  C18 UNL     1      13.149  48.525  60.660  1.00  0.00     0.020 C 
ENDBRANCH  23  25
ENDBRANCH  22  23
ENDBRANCH  21  22
ENDBRANCH  11  21
BRANCH   9  28
HETATM   28  O2  UNL     1      19.205  49.937  62.170  1.00  0.00    -0.251 OA
BRANCH  28  29
HETATM   29  S1  UNL     1      19.997  50.427  60.748  1.00  0.00     0.401 S 
HETATM   30  O3  UNL     1      21.494  50.426  61.034  1.00  0.00    -0.179 OA
HETATM   31  O4  UNL     1      19.720  49.354  59.459  1.00  0.00    -0.179 OA
ENDBRANCH  28  29
ENDBRANCH   9  28
BRANCH   8  32
HETATM   32  O1  UNL     1      18.656  53.136  65.484  1.00  0.00    -0.394 OA
ATOM     33  H1  UNL     1      18.978  53.959  65.135  1.00  0.00     0.210 HD
ENDBRANCH   8  32
BRANCH   1  34
HETATM   34  C2  UNL     1      15.125  50.435  68.371  1.00  0.00     0.005 C 
HETATM   35  C1  UNL     1      15.077  49.915  69.766  1.00  0.00     0.006 C 
ENDBRANCH   1  34
BRANCH  18  36
HETATM   36  O7  UNL     1      11.947  47.480  65.739  1.00  0.00    -0.396 OA
ATOM     37  H7  UNL     1      11.576  47.554  64.868  1.00  0.00     0.210 HD
ENDBRANCH  18  36
TORSDOF 9
ENDMDL
MODEL 5
REMARK VINA RESULT: -6.363230746      2.459      6.296
REMARK  9 active torsions:
REMARK  status: ('A' for Active; 'I' for Inactive)
REMARK    1  A    between atoms: C2_2  and  C3_3 
REMARK    2  A    between atoms: C10_10  and  O1_11 
REMARK    3  A    between atoms: C11_13  and  O2_15 
REMARK    4  A    between atoms: O2_15  and  S1_16 
REMARK    5  A    between atoms: C13_19  and  C14_20 
REMARK    6  A    between atoms: C14_20  and  O5_21 
REMARK    7  A    between atoms: O5_21  and  C15_22 
REMARK    8  A    between atoms: C15_22  and  C16_24 
REMARK    9  A    between atoms: C25_33  and  O7_34 
ROOT
HETATM    1  C3  UNL     1      18.197  52.403  61.019  1.00  0.00    -0.040 C 
HETATM    2  C4  UNL     1      17.500  53.113  59.905  1.00  0.00     0.015 C 
HETATM    3  C5  UNL     1      18.009  53.284  62.226  1.00  0.00     0.010 C 
HETATM    4  C6  UNL     1      18.701  52.620  63.363  1.00  0.00     0.014 C 
HETATM    5  C7  UNL     1      17.714  51.817  64.106  1.00  0.00    -0.005 C 
HETATM    6  C8  UNL     1      16.659  52.714  64.640  1.00  0.00     0.023 C 
HETATM    7  C9  UNL     1      16.839  52.047  65.947  1.00  0.00     0.052 C 
HETATM    8  C10 UNL     1      18.231  51.724  65.545  1.00  0.00     0.134 C 
HETATM    9  C11 UNL     1      16.069  50.719  65.851  1.00  0.00     0.090 C 
HETATM   10  C12 UNL     1      16.503  50.063  67.139  1.00  0.00     0.048 C 
HETATM   11  C13 UNL     1      16.327  49.985  64.601  1.00  0.00     0.056 C 
HETATM   12  C19 UNL     1      17.312  50.472  63.617  1.00  0.00    -0.018 C 
HETATM   13  C20 UNL     1      18.587  49.619  63.732  1.00  0.00     0.017 C 
HETATM   14  C21 UNL     1      16.898  50.451  62.151  1.00  0.00    -0.031 C 
HETATM   15  C22 UNL     1      15.517  50.953  61.887  1.00  0.00     0.016 C 
HETATM   16  C23 UNL     1      16.808  49.006  61.613  1.00  0.00     0.013 C 
HETATM   17  C24 UNL     1      16.033  48.949  60.299  1.00  0.00     0.032 C 
HETATM   18  C25 UNL     1      16.915  49.604  59.305  1.00  0.00     0.118 C 
HETATM   19  C26 UNL     1      18.105  50.280  59.901  1.00  0.00     0.038 C 
HETATM   20  C27 UNL     1      17.956  50.976  61.225  1.00  0.00     0.005 C 
ENDROOT
BRANCH  11  21
HETATM   21  C14 UNL     1      16.238  48.507  64.913  1.00  0.00     0.187 C 
BRANCH  21  22
HETATM   22  O5  UNL     1      15.142  47.865  64.675  1.00  0.00    -0.321 OA
BRANCH  22  23
HETATM   23  C15 UNL     1      14.053  47.226  64.437  1.00  0.00     0.262 C 
HETATM   24  O6  UNL     1      13.525  46.785  65.527  1.00  0.00    -0.265 OA
BRANCH  23  25
HETATM   25  C16 UNL     1      13.381  46.958  63.134  1.00  0.00     0.077 C 
HETATM   26  C17 UNL     1      13.136  48.223  62.356  1.00  0.00     0.020 C 
HETATM   27  C18 UNL     1      12.083  46.244  63.316  1.00  0.00     0.020 C 
ENDBRANCH  23  25
ENDBRANCH  22  23
ENDBRANCH  21  22
ENDBRANCH  11  21
BRANCH   9  28
HETATM   28  O2  UNL     1      14.749  51.102  66.028  1.00  0.00    -0.251 OA
BRANCH  28  29
HETATM   29  S1  UNL     1      14.175  50.707  67.579  1.00  0.00     0.401 S 
HETATM   30  O3  UNL     1      13.335  51.880  68.069  1.00  0.00    -0.179 OA
HETATM   31  O4  UNL     1      13.176  49.331  67.560  1.00  0.00    -0.179 OA
ENDBRANCH  28  29
ENDBRANCH   9  28
BRANCH   8  32
HETATM   32  O1  UNL     1      19.060  52.811  65.920  1.00  0.00    -0.394 OA
ATOM     33  H1  UNL     1      18.965  53.063  66.831  1.00  0.00     0.210 HD
ENDBRANCH   8  32
BRANCH   1  34
HETATM   34  C2  UNL     1      19.695  52.551  60.664  1.00  0.00     0.005 C 
HETATM   35  C1  UNL     1      20.035  53.831  59.983  1.00  0.00     0.006 C 
ENDBRANCH   1  34
BRANCH  18  36
HETATM   36  O7  UNL     1      17.363  48.671  58.366  1.00  0.00    -0.396 OA
ATOM     37  H7  UNL     1      17.545  49.099  57.538  1.00  0.00     0.210 HD
ENDBRANCH  18  36
TORSDOF 9
ENDMDL
