MODEL 1
REMARK VINA RESULT: -9.780812918      0.000      0.000
REMARK  6 active torsions:
REMARK  status: ('A' for Active; 'I' for Inactive)
REMARK    1  A    between atoms: O1_2  and  C2_3 
REMARK    2  A    between atoms: C5_6  and  N1_7 
REMARK    3  A    between atoms: N1_7  and  C6_10 
REMARK    4  A    between atoms: C9_13  and  C10_14 
REMARK    5  A    between atoms: C11_15  and  O2_16 
REMARK    6  A    between atoms: C15_22  and  N3_23 
ROOT
HETATM    1  C10 UNL     1      15.869  48.558  64.535  1.00  0.00     0.031 A 
HETATM    2  C11 UNL     1      16.960  49.192  63.941  1.00  0.00     0.154 A 
HETATM    3  N2  UNL     1      16.880  49.145  62.621  1.00  0.00    -0.331 N 
HETATM    4  C12 UNL     1      17.849  49.665  61.686  1.00  0.00     0.158 C 
HETATM    5  C13 UNL     1      15.737  48.486  62.311  1.00  0.00     0.051 A 
HETATM    6  C14 UNL     1      15.154  48.301  61.068  1.00  0.00     0.060 A 
HETATM    7  C15 UNL     1      13.921  47.721  60.998  1.00  0.00     0.033 A 
HETATM    8  C24 UNL     1      13.274  47.316  62.114  1.00  0.00     0.053 A 
HETATM    9  C25 UNL     1      13.841  47.492  63.398  1.00  0.00     0.060 A 
HETATM   10  C26 UNL     1      13.144  46.999  64.527  1.00  0.00     0.100 C 
HETATM   11  N5  UNL     1      12.527  46.563  65.433  1.00  0.00    -0.191 NA
HETATM   12  C27 UNL     1      15.064  48.087  63.486  1.00  0.00     0.026 A 
ENDROOT
BRANCH   7  13
HETATM   13  N3  UNL     1      13.250  47.792  59.727  1.00  0.00    -0.380 N 
HETATM   14  C16 UNL     1      13.464  47.365  58.410  1.00  0.00     0.123 C 
HETATM   15  C17 UNL     1      12.090  47.370  57.733  1.00  0.00     0.031 C 
HETATM   16  C18 UNL     1      11.088  47.736  58.774  1.00  0.00    -0.020 C 
HETATM   17  C19 UNL     1      10.473  46.580  59.488  1.00  0.00     0.039 C 
HETATM   18  C22 UNL     1       9.974  48.643  58.262  1.00  0.00     0.039 C 
HETATM   19  C23 UNL     1      11.941  48.520  59.753  1.00  0.00     0.132 C 
HETATM   20  C20 UNL     1       9.446  45.874  58.645  1.00  0.00     0.233 C 
HETATM   21  N4  UNL     1       8.412  46.786  58.165  1.00  0.00    -0.075 N 
HETATM   22  C21 UNL     1       9.001  47.884  57.438  1.00  0.00     0.233 C 
ATOM     23  H42 UNL     1       7.706  46.301  57.611  1.00  0.00     0.277 HD
ATOM     24  H41 UNL     1       7.814  47.112  58.924  1.00  0.00     0.277 HD
ENDBRANCH   7  13
BRANCH   1  25
HETATM   25  C9  UNL     1      15.518  48.730  65.896  1.00  0.00    -0.064 C 
HETATM   26  C8  UNL     1      16.400  48.552  67.056  1.00  0.00     0.037 C 
HETATM   27  C7  UNL     1      16.388  49.823  67.991  1.00  0.00     0.037 C 
HETATM   28  C6  UNL     1      15.053  50.241  68.377  1.00  0.00     0.187 C 
HETATM   29  C29 UNL     1      13.970  49.816  67.389  1.00  0.00     0.037 C 
HETATM   30  C28 UNL     1      14.707  50.038  66.034  1.00  0.00     0.037 C 
BRANCH  28  31
HETATM   31  N1  UNL     1      14.589  50.379  69.702  1.00  0.00    -0.067 N 
ATOM     32  H12 UNL     1      15.127  49.790  70.337  1.00  0.00     0.278 HD
ATOM     33  H11 UNL     1      13.670  49.949  69.810  1.00  0.00     0.278 HD
BRANCH  31  34
HETATM   34  C5  UNL     1      14.571  51.777  70.174  1.00  0.00     0.186 C 
HETATM   35  C4  UNL     1      14.163  51.880  71.563  1.00  0.00     0.035 C 
HETATM   36  C3  UNL     1      13.215  53.016  71.919  1.00  0.00     0.034 C 
HETATM   37  C2  UNL     1      12.158  53.087  70.866  1.00  0.00     0.120 C 
HETATM   38  C31 UNL     1      12.897  53.608  69.608  1.00  0.00     0.034 C 
HETATM   39  C30 UNL     1      13.699  52.460  69.129  1.00  0.00     0.035 C 
BRANCH  37  40
HETATM   40  O1  UNL     1      11.048  53.830  71.139  1.00  0.00    -0.391 OA
HETATM   41  C1  UNL     1      11.428  55.194  71.159  1.00  0.00     0.202 C 
ENDBRANCH  37  40
ENDBRANCH  31  34
ENDBRANCH  28  31
ENDBRANCH   1  25
BRANCH   2  42
HETATM   42  O2  UNL     1      17.984  49.784  64.659  1.00  0.00    -0.345 OA
ATOM     43  H2  UNL     1      18.732  50.207  64.254  1.00  0.00     0.219 HD
ENDBRANCH   2  42
TORSDOF 6
ENDMDL
MODEL 2
REMARK VINA RESULT: -9.670481181      3.306      5.568
REMARK  6 active torsions:
REMARK  status: ('A' for Active; 'I' for Inactive)
REMARK    1  A    between atoms: O1_2  and  C2_3 
REMARK    2  A    between atoms: C5_6  and  N1_7 
REMARK    3  A    between atoms: N1_7  and  C6_10 
REMARK    4  A    between atoms: C9_13  and  C10_14 
REMARK    5  A    between atoms: C11_15  and  O2_16 
REMARK    6  A    between atoms: C15_22  and  N3_23 
ROOT
HETATM    1  C10 UNL     1      14.341  47.691  59.572  1.00  0.00     0.031 A 
HETATM    2  C11 UNL     1      14.851  47.475  58.292  1.00  0.00     0.154 A 
HETATM    3  N2  UNL     1      13.878  47.297  57.414  1.00  0.00    -0.331 N 
HETATM    4  C12 UNL     1      14.036  47.012  56.007  1.00  0.00     0.158 C 
HETATM    5  C13 UNL     1      12.706  47.393  58.087  1.00  0.00     0.051 A 
HETATM    6  C14 UNL     1      11.416  47.410  57.582  1.00  0.00     0.060 A 
HETATM    7  C15 UNL     1      10.378  47.657  58.433  1.00  0.00     0.033 A 
HETATM    8  C24 UNL     1      10.590  47.871  59.751  1.00  0.00     0.053 A 
HETATM    9  C25 UNL     1      11.895  47.863  60.297  1.00  0.00     0.060 A 
HETATM   10  C26 UNL     1      12.053  48.037  61.694  1.00  0.00     0.100 C 
HETATM   11  N5  UNL     1      12.129  48.178  62.862  1.00  0.00    -0.191 NA
HETATM   12  C27 UNL     1      12.943  47.636  59.458  1.00  0.00     0.026 A 
ENDROOT
BRANCH   7  13
HETATM   13  N3  UNL     1       9.101  47.925  57.826  1.00  0.00    -0.380 N 
HETATM   14  C16 UNL     1       7.776  47.490  57.951  1.00  0.00     0.123 C 
HETATM   15  C17 UNL     1       6.907  48.585  57.324  1.00  0.00     0.031 C 
HETATM   16  C18 UNL     1       7.819  49.696  56.927  1.00  0.00    -0.020 C 
HETATM   17  C19 UNL     1       8.004  50.756  57.959  1.00  0.00     0.039 C 
HETATM   18  C22 UNL     1       7.440  50.358  55.607  1.00  0.00     0.039 C 
HETATM   19  C23 UNL     1       9.131  48.958  56.741  1.00  0.00     0.132 C 
HETATM   20  C20 UNL     1       6.812  51.671  58.051  1.00  0.00     0.233 C 
HETATM   21  N4  UNL     1       6.479  52.266  56.761  1.00  0.00    -0.075 N 
HETATM   22  C21 UNL     1       6.259  51.242  55.770  1.00  0.00     0.233 C 
ATOM     23  H42 UNL     1       5.684  52.902  56.831  1.00  0.00     0.277 HD
ATOM     24  H41 UNL     1       7.186  52.938  56.460  1.00  0.00     0.277 HD
ENDBRANCH   7  13
BRANCH   1  25
HETATM   25  C9  UNL     1      15.110  48.227  60.633  1.00  0.00    -0.064 C 
HETATM   26  C8  UNL     1      15.115  49.620  61.093  1.00  0.00     0.037 C 
HETATM   27  C7  UNL     1      14.851  49.717  62.645  1.00  0.00     0.037 C 
HETATM   28  C6  UNL     1      15.733  48.878  63.433  1.00  0.00     0.187 C 
HETATM   29  C29 UNL     1      16.279  47.677  62.667  1.00  0.00     0.037 C 
HETATM   30  C28 UNL     1      15.025  47.264  61.838  1.00  0.00     0.037 C 
BRANCH  28  31
HETATM   31  N1  UNL     1      16.584  49.326  64.466  1.00  0.00    -0.067 N 
ATOM     32  H12 UNL     1      17.190  50.077  64.135  1.00  0.00     0.278 HD
ATOM     33  H11 UNL     1      17.291  48.623  64.683  1.00  0.00     0.278 HD
BRANCH  31  34
HETATM   34  C5  UNL     1      15.862  49.734  65.685  1.00  0.00     0.186 C 
HETATM   35  C4  UNL     1      16.764  50.152  66.742  1.00  0.00     0.035 C 
HETATM   36  C3  UNL     1      16.432  49.689  68.153  1.00  0.00     0.034 C 
HETATM   37  C2  UNL     1      16.038  48.251  68.091  1.00  0.00     0.120 C 
HETATM   38  C31 UNL     1      14.664  48.255  67.374  1.00  0.00     0.034 C 
HETATM   39  C30 UNL     1      14.971  48.528  65.953  1.00  0.00     0.035 C 
BRANCH  37  40
HETATM   40  O1  UNL     1      15.988  47.561  69.265  1.00  0.00    -0.391 OA
HETATM   41  C1  UNL     1      14.672  47.062  69.425  1.00  0.00     0.202 C 
ENDBRANCH  37  40
ENDBRANCH  31  34
ENDBRANCH  28  31
ENDBRANCH   1  25
BRANCH   2  42
HETATM   42  O2  UNL     1      16.204  47.451  58.002  1.00  0.00    -0.345 OA
ATOM     43  H2  UNL     1      16.825  48.084  58.341  1.00  0.00     0.219 HD
ENDBRANCH   2  42
TORSDOF 6
ENDMDL
MODEL 3
REMARK VINA RESULT: -9.660404571      5.353      6.920
REMARK  6 active torsions:
REMARK  status: ('A' for Active; 'I' for Inactive)
REMARK    1  A    between atoms: O1_2  and  C2_3 
REMARK    2  A    between atoms: C5_6  and  N1_7 
REMARK    3  A    between atoms: N1_7  and  C6_10 
REMARK    4  A    between atoms: C9_13  and  C10_14 
REMARK    5  A    between atoms: C11_15  and  O2_16 
REMARK    6  A    between atoms: C15_22  and  N3_23 
ROOT
HETATM    1  C10 UNL     1      14.325  47.841  59.839  1.00  0.00     0.031 A 
HETATM    2  C11 UNL     1      14.903  47.637  58.587  1.00  0.00     0.154 A 
HETATM    3  N2  UNL     1      13.981  47.416  57.665  1.00  0.00    -0.331 N 
HETATM    4  C12 UNL     1      14.218  47.129  56.270  1.00  0.00     0.158 C 
HETATM    5  C13 UNL     1      12.775  47.470  58.281  1.00  0.00     0.051 A 
HETATM    6  C14 UNL     1      11.511  47.433  57.715  1.00  0.00     0.060 A 
HETATM    7  C15 UNL     1      10.425  47.644  58.514  1.00  0.00     0.033 A 
HETATM    8  C24 UNL     1      10.565  47.874  59.839  1.00  0.00     0.053 A 
HETATM    9  C25 UNL     1      11.842  47.920  60.446  1.00  0.00     0.060 A 
HETATM   10  C26 UNL     1      11.926  48.108  61.847  1.00  0.00     0.100 C 
HETATM   11  N5  UNL     1      11.941  48.259  63.017  1.00  0.00    -0.191 NA
HETATM   12  C27 UNL     1      12.938  47.730  59.660  1.00  0.00     0.026 A 
ENDROOT
BRANCH   7  13
HETATM   13  N3  UNL     1       9.170  47.859  57.845  1.00  0.00    -0.380 N 
HETATM   14  C16 UNL     1       7.859  47.366  57.904  1.00  0.00     0.123 C 
HETATM   15  C17 UNL     1       6.976  48.425  57.236  1.00  0.00     0.031 C 
HETATM   16  C18 UNL     1       7.857  49.574  56.884  1.00  0.00    -0.020 C 
HETATM   17  C19 UNL     1       7.945  50.639  57.925  1.00  0.00     0.039 C 
HETATM   18  C22 UNL     1       7.516  50.224  55.548  1.00  0.00     0.039 C 
HETATM   19  C23 UNL     1       9.208  48.894  56.763  1.00  0.00     0.132 C 
HETATM   20  C20 UNL     1       6.712  51.501  57.959  1.00  0.00     0.233 C 
HETATM   21  N4  UNL     1       6.417  52.085  56.654  1.00  0.00    -0.075 N 
HETATM   22  C21 UNL     1       6.291  51.055  55.653  1.00  0.00     0.233 C 
ATOM     23  H42 UNL     1       5.593  52.685  56.685  1.00  0.00     0.277 HD
ATOM     24  H41 UNL     1       7.108  52.787  56.388  1.00  0.00     0.277 HD
ENDBRANCH   7  13
BRANCH   1  25
HETATM   25  C9  UNL     1      15.021  48.412  60.932  1.00  0.00    -0.064 C 
HETATM   26  C8  UNL     1      16.045  47.759  61.756  1.00  0.00     0.037 C 
HETATM   27  C7  UNL     1      17.363  48.623  61.833  1.00  0.00     0.037 C 
HETATM   28  C6  UNL     1      17.128  49.996  62.238  1.00  0.00     0.187 C 
HETATM   29  C29 UNL     1      15.720  50.493  61.926  1.00  0.00     0.037 C 
HETATM   30  C28 UNL     1      15.479  49.833  60.534  1.00  0.00     0.037 C 
BRANCH  28  31
HETATM   31  N1  UNL     1      17.722  50.636  63.347  1.00  0.00    -0.067 N 
ATOM     32  H12 UNL     1      18.221  49.962  63.929  1.00  0.00     0.278 HD
ATOM     33  H11 UNL     1      17.012  50.940  64.013  1.00  0.00     0.278 HD
BRANCH  31  34
HETATM   34  C5  UNL     1      18.604  51.758  62.973  1.00  0.00     0.186 C 
HETATM   35  C4  UNL     1      17.956  53.044  63.148  1.00  0.00     0.035 C 
HETATM   36  C3  UNL     1      18.181  54.083  62.059  1.00  0.00     0.034 C 
HETATM   37  C2  UNL     1      18.054  53.404  60.735  1.00  0.00     0.120 C 
HETATM   38  C31 UNL     1      19.307  52.496  60.641  1.00  0.00     0.034 C 
HETATM   39  C30 UNL     1      19.038  51.372  61.565  1.00  0.00     0.035 C 
BRANCH  37  40
HETATM   40  O1  UNL     1      17.925  54.194  59.633  1.00  0.00    -0.391 OA
HETATM   41  C1  UNL     1      18.979  55.141  59.646  1.00  0.00     0.202 C 
ENDBRANCH  37  40
ENDBRANCH  31  34
ENDBRANCH  28  31
ENDBRANCH   1  25
BRANCH   2  42
HETATM   42  O2  UNL     1      16.269  47.665  58.361  1.00  0.00    -0.345 OA
ATOM     43  H2  UNL     1      16.885  48.118  58.925  1.00  0.00     0.219 HD
ENDBRANCH   2  42
TORSDOF 6
ENDMDL
MODEL 4
REMARK VINA RESULT: -9.492822973      5.513      7.307
REMARK  6 active torsions:
REMARK  status: ('A' for Active; 'I' for Inactive)
REMARK    1  A    between atoms: O1_2  and  C2_3 
REMARK    2  A    between atoms: C5_6  and  N1_7 
REMARK    3  A    between atoms: N1_7  and  C6_10 
REMARK    4  A    between atoms: C9_13  and  C10_14 
REMARK    5  A    between atoms: C11_15  and  O2_16 
REMARK    6  A    between atoms: C15_22  and  N3_23 
ROOT
HETATM    1  C10 UNL     1      14.248  47.754  59.776  1.00  0.00     0.031 A 
HETATM    2  C11 UNL     1      14.813  47.567  58.515  1.00  0.00     0.154 A 
HETATM    3  N2  UNL     1      13.881  47.375  57.596  1.00  0.00    -0.331 N 
HETATM    4  C12 UNL     1      14.102  47.112  56.194  1.00  0.00     0.158 C 
HETATM    5  C13 UNL     1      12.681  47.434  58.223  1.00  0.00     0.051 A 
HETATM    6  C14 UNL     1      11.412  47.424  57.668  1.00  0.00     0.060 A 
HETATM    7  C15 UNL     1      10.335  47.634  58.479  1.00  0.00     0.033 A 
HETATM    8  C24 UNL     1      10.488  47.837  59.807  1.00  0.00     0.053 A 
HETATM    9  C25 UNL     1      11.771  47.855  60.404  1.00  0.00     0.060 A 
HETATM   10  C26 UNL     1      11.869  48.016  61.808  1.00  0.00     0.100 C 
HETATM   11  N5  UNL     1      11.895  48.144  62.980  1.00  0.00    -0.191 NA
HETATM   12  C27 UNL     1      12.857  47.665  59.605  1.00  0.00     0.026 A 
ENDROOT
BRANCH   7  13
HETATM   13  N3  UNL     1       9.077  47.877  57.825  1.00  0.00    -0.380 N 
HETATM   14  C16 UNL     1       7.756  47.417  57.900  1.00  0.00     0.123 C 
HETATM   15  C17 UNL     1       6.891  48.495  57.240  1.00  0.00     0.031 C 
HETATM   16  C18 UNL     1       7.795  49.622  56.875  1.00  0.00    -0.020 C 
HETATM   17  C19 UNL     1       7.921  50.687  57.912  1.00  0.00     0.039 C 
HETATM   18  C22 UNL     1       7.453  50.276  55.541  1.00  0.00     0.039 C 
HETATM   19  C23 UNL     1       9.127  48.909  56.740  1.00  0.00     0.132 C 
HETATM   20  C20 UNL     1       6.710  51.579  57.958  1.00  0.00     0.233 C 
HETATM   21  N4  UNL     1       6.414  52.166  56.655  1.00  0.00    -0.075 N 
HETATM   22  C21 UNL     1       6.251  51.137  55.659  1.00  0.00     0.233 C 
ATOM     23  H42 UNL     1       5.604  52.786  56.694  1.00  0.00     0.277 HD
ATOM     24  H41 UNL     1       7.118  52.851  56.380  1.00  0.00     0.277 HD
ENDBRANCH   7  13
BRANCH   1  25
HETATM   25  C9  UNL     1      14.960  48.296  60.873  1.00  0.00    -0.064 C 
HETATM   26  C8  UNL     1      16.209  47.781  61.446  1.00  0.00     0.037 C 
HETATM   27  C7  UNL     1      17.310  48.906  61.538  1.00  0.00     0.037 C 
HETATM   28  C6  UNL     1      16.853  50.106  62.213  1.00  0.00     0.187 C 
HETATM   29  C29 UNL     1      15.341  50.302  62.152  1.00  0.00     0.037 C 
HETATM   30  C28 UNL     1      15.043  49.829  60.697  1.00  0.00     0.037 C 
BRANCH  28  31
HETATM   31  N1  UNL     1      17.454  50.687  63.350  1.00  0.00    -0.067 N 
ATOM     32  H12 UNL     1      17.905  49.975  63.924  1.00  0.00     0.278 HD
ATOM     33  H11 UNL     1      16.746  51.011  64.008  1.00  0.00     0.278 HD
BRANCH  31  34
HETATM   34  C5  UNL     1      18.399  51.772  63.023  1.00  0.00     0.186 C 
HETATM   35  C4  UNL     1      17.926  52.597  61.927  1.00  0.00     0.035 C 
HETATM   36  C3  UNL     1      18.956  53.021  60.890  1.00  0.00     0.034 C 
HETATM   37  C2  UNL     1      19.803  51.835  60.565  1.00  0.00     0.120 C 
HETATM   38  C31 UNL     1      20.647  51.597  61.842  1.00  0.00     0.034 C 
HETATM   39  C30 UNL     1      19.705  51.013  62.823  1.00  0.00     0.035 C 
BRANCH  37  40
HETATM   40  O1  UNL     1      20.589  51.909  59.453  1.00  0.00    -0.391 OA
HETATM   41  C1  UNL     1      20.688  50.609  58.899  1.00  0.00     0.202 C 
ENDBRANCH  37  40
ENDBRANCH  31  34
ENDBRANCH  28  31
ENDBRANCH   1  25
BRANCH   2  42
HETATM   42  O2  UNL     1      16.177  47.582  58.279  1.00  0.00    -0.345 OA
ATOM     43  H2  UNL     1      16.811  47.147  58.836  1.00  0.00     0.219 HD
ENDBRANCH   2  42
TORSDOF 6
ENDMDL
MODEL 5
REMARK VINA RESULT: -9.482129262      3.342      5.634
REMARK  6 active torsions:
REMARK  status: ('A' for Active; 'I' for Inactive)
REMARK    1  A    between atoms: O1_2  and  C2_3 
REMARK    2  A    between atoms: C5_6  and  N1_7 
REMARK    3  A    between atoms: N1_7  and  C6_10 
REMARK    4  A    between atoms: C9_13  and  C10_14 
REMARK    5  A    between atoms: C11_15  and  O2_16 
REMARK    6  A    between atoms: C15_22  and  N3_23 
ROOT
HETATM    1  C10 UNL     1      14.175  47.760  59.946  1.00  0.00     0.031 A 
HETATM    2  C11 UNL     1      14.781  47.618  58.698  1.00  0.00     0.154 A 
HETATM    3  N2  UNL     1      13.880  47.444  57.746  1.00  0.00    -0.331 N 
HETATM    4  C12 UNL     1      14.147  47.226  56.344  1.00  0.00     0.158 C 
HETATM    5  C13 UNL     1      12.660  47.470  58.336  1.00  0.00     0.051 A 
HETATM    6  C14 UNL     1      11.409  47.462  57.742  1.00  0.00     0.060 A 
HETATM    7  C15 UNL     1      10.305  47.636  58.525  1.00  0.00     0.033 A 
HETATM    8  C24 UNL     1      10.416  47.800  59.862  1.00  0.00     0.053 A 
HETATM    9  C25 UNL     1      11.679  47.814  60.500  1.00  0.00     0.060 A 
HETATM   10  C26 UNL     1      11.732  47.933  61.910  1.00  0.00     0.100 C 
HETATM   11  N5  UNL     1      11.720  48.026  63.086  1.00  0.00    -0.191 NA
HETATM   12  C27 UNL     1      12.792  47.661  59.730  1.00  0.00     0.026 A 
ENDROOT
BRANCH   7  13
HETATM   13  N3  UNL     1       9.065  47.884  57.840  1.00  0.00    -0.380 N 
HETATM   14  C16 UNL     1       7.743  47.422  57.875  1.00  0.00     0.123 C 
HETATM   15  C17 UNL     1       6.895  48.506  57.203  1.00  0.00     0.031 C 
HETATM   16  C18 UNL     1       7.807  49.638  56.875  1.00  0.00    -0.020 C 
HETATM   17  C19 UNL     1       7.904  50.692  57.925  1.00  0.00     0.039 C 
HETATM   18  C22 UNL     1       7.501  50.306  55.539  1.00  0.00     0.039 C 
HETATM   19  C23 UNL     1       9.144  48.928  56.768  1.00  0.00     0.132 C 
HETATM   20  C20 UNL     1       6.691  51.582  57.949  1.00  0.00     0.233 C 
HETATM   21  N4  UNL     1       6.429  52.183  56.644  1.00  0.00    -0.075 N 
HETATM   22  C21 UNL     1       6.294  51.164  55.633  1.00  0.00     0.233 C 
ATOM     23  H42 UNL     1       5.618  52.802  56.668  1.00  0.00     0.277 HD
ATOM     24  H41 UNL     1       7.140  52.871  56.395  1.00  0.00     0.277 HD
ENDBRANCH   7  13
BRANCH   1  25
HETATM   25  C9  UNL     1      14.846  48.277  61.080  1.00  0.00    -0.064 C 
HETATM   26  C8  UNL     1      16.013  47.689  61.750  1.00  0.00     0.037 C 
HETATM   27  C7  UNL     1      17.183  48.736  61.898  1.00  0.00     0.037 C 
HETATM   28  C6  UNL     1      16.767  49.980  62.517  1.00  0.00     0.187 C 
HETATM   29  C29 UNL     1      15.281  50.281  62.346  1.00  0.00     0.037 C 
HETATM   30  C28 UNL     1      15.051  49.795  60.883  1.00  0.00     0.037 C 
BRANCH  28  31
HETATM   31  N1  UNL     1      17.328  50.545  63.682  1.00  0.00    -0.067 N 
ATOM     32  H12 UNL     1      17.626  51.505  63.511  1.00  0.00     0.278 HD
ATOM     33  H11 UNL     1      18.233  50.122  63.889  1.00  0.00     0.278 HD
BRANCH  31  34
HETATM   34  C5  UNL     1      16.438  50.473  64.856  1.00  0.00     0.186 C 
HETATM   35  C4  UNL     1      16.742  51.499  65.836  1.00  0.00     0.035 C 
HETATM   36  C3  UNL     1      16.714  51.083  67.300  1.00  0.00     0.034 C 
HETATM   37  C2  UNL     1      17.405  49.765  67.421  1.00  0.00     0.120 C 
HETATM   38  C31 UNL     1      16.447  48.758  66.736  1.00  0.00     0.034 C 
HETATM   39  C30 UNL     1      16.585  49.020  65.286  1.00  0.00     0.035 C 
BRANCH  37  40
HETATM   40  O1  UNL     1      17.755  49.351  68.672  1.00  0.00    -0.391 OA
HETATM   41  C1  UNL     1      17.058  48.149  68.947  1.00  0.00     0.202 C 
ENDBRANCH  37  40
ENDBRANCH  31  34
ENDBRANCH  28  31
ENDBRANCH   1  25
BRANCH   2  42
HETATM   42  O2  UNL     1      16.151  47.655  58.505  1.00  0.00    -0.345 OA
ATOM     43  H2  UNL     1      16.612  47.079  57.907  1.00  0.00     0.219 HD
ENDBRANCH   2  42
TORSDOF 6
ENDMDL
