MODEL 1
REMARK VINA RESULT: -9.499945173      0.000      0.000
REMARK  8 active torsions:
REMARK  status: ('A' for Active; 'I' for Inactive)
REMARK    1  A    between atoms: C5_5  and  C6_6 
REMARK    2  A    between atoms: C7_9  and  N2_10 
REMARK    3  A    between atoms: C10_13  and  C11_14 
REMARK    4  A    between atoms: C11_14  and  C12_15 
REMARK    5  A    between atoms: C17_26  and  C18_27 
REMARK    6  A    between atoms: C21_32  and  N7_33 
REMARK    7  A    between atoms: N7_33  and  C22_35 
REMARK    8  A    between atoms: C25_38  and  N8_39 
ROOT
HETATM    1  C6  UNL     1      12.598  47.868  61.953  1.00  0.00     0.089 A 
HETATM    2  N1  UNL     1      11.549  47.549  61.158  1.00  0.00    -0.189 N 
ATOM      3  H1  UNL     1      10.712  47.045  61.452  1.00  0.00     0.184 HD
HETATM    4  C7  UNL     1      11.791  48.002  59.923  1.00  0.00     0.681 A 
HETATM    5  N5  UNL     1      12.976  48.597  59.944  1.00  0.00    -0.187 N 
ATOM      6  H5  UNL     1      13.418  49.037  59.137  1.00  0.00     0.184 HD
HETATM    7  C17 UNL     1      13.514  48.542  61.173  1.00  0.00     0.104 A 
ENDROOT
BRANCH   7   8
HETATM    8  C18 UNL     1      14.804  49.069  61.652  1.00  0.00     0.080 A 
HETATM    9  C19 UNL     1      15.975  48.505  61.168  1.00  0.00     0.050 A 
HETATM   10  C20 UNL     1      17.209  48.958  61.577  1.00  0.00     0.108 A 
HETATM   11  N6  UNL     1      17.254  49.969  62.464  1.00  0.00    -0.202 N 
HETATM   12  C21 UNL     1      16.110  50.512  62.929  1.00  0.00     0.678 A 
ATOM     13  H6  UNL     1      18.155  50.326  62.785  1.00  0.00     0.183 HD
HETATM   14  N9  UNL     1      14.884  50.071  62.531  1.00  0.00    -0.190 N 
ATOM     15  H9  UNL     1      14.037  50.502  62.901  1.00  0.00     0.184 HD
BRANCH  12  16
HETATM   16  N7  UNL     1      16.099  51.476  63.771  1.00  0.00    -0.221 N 
ATOM     17  H7  UNL     1      16.208  52.419  63.398  1.00  0.00     0.178 HD
BRANCH  16  18
HETATM   18  C22 UNL     1      15.945  51.345  65.201  1.00  0.00     0.099 C 
HETATM   19  C23 UNL     1      15.431  52.668  65.731  1.00  0.00     0.027 C 
HETATM   20  C24 UNL     1      14.256  52.466  66.655  1.00  0.00     0.035 C 
HETATM   21  C25 UNL     1      14.573  51.448  67.706  1.00  0.00     0.183 C 
HETATM   22  C26 UNL     1      14.872  50.136  67.034  1.00  0.00     0.035 C 
HETATM   23  C27 UNL     1      14.929  50.258  65.531  1.00  0.00     0.027 C 
BRANCH  21  24
HETATM   24  N8  UNL     1      13.429  51.364  68.605  1.00  0.00    -0.075 N 
ATOM     25  H83 UNL     1      13.591  51.833  69.496  1.00  0.00     0.274 HD
ATOM     26  H82 UNL     1      12.640  51.932  68.295  1.00  0.00     0.274 HD
ATOM     27  H81 UNL     1      13.189  50.379  68.714  1.00  0.00     0.274 HD
ENDBRANCH  21  24
ENDBRANCH  16  18
ENDBRANCH  12  16
ENDBRANCH   7   8
BRANCH   1  28
HETATM   28  C5  UNL     1      12.735  47.558  63.372  1.00  0.00    -0.006 A 
HETATM   29  C4  UNL     1      13.718  46.723  63.856  1.00  0.00     0.014 A 
HETATM   30  C3  UNL     1      13.818  46.452  65.202  1.00  0.00     0.007 A 
HETATM   31  C2  UNL     1      12.917  47.026  66.089  1.00  0.00    -0.062 A 
HETATM   32  C1  UNL     1      13.054  46.709  67.544  1.00  0.00     0.048 C 
HETATM   33  C29 UNL     1      11.928  47.865  65.607  1.00  0.00     0.007 A 
HETATM   34  C28 UNL     1      11.855  48.117  64.261  1.00  0.00     0.014 A 
ENDBRANCH   1  28
BRANCH   4  35
HETATM   35  N2  UNL     1      10.904  47.857  58.793  1.00  0.00    -0.218 N 
HETATM   36  C8  UNL     1      10.624  48.963  57.916  1.00  0.00     0.141 C 
HETATM   37  C9  UNL     1       9.409  48.533  57.073  1.00  0.00     0.025 C 
HETATM   38  C10 UNL     1       8.393  48.039  58.064  1.00  0.00    -0.004 C 
HETATM   39  C15 UNL     1       8.789  46.709  58.662  1.00  0.00     0.025 C 
HETATM   40  C16 UNL     1      10.290  46.580  58.538  1.00  0.00     0.141 C 
BRANCH  38  41
HETATM   41  C11 UNL     1       7.029  48.078  57.481  1.00  0.00     0.080 C 
BRANCH  41  42
HETATM   42  C12 UNL     1       6.576  49.412  57.011  1.00  0.00     0.073 C 
HETATM   43  N3  UNL     1       6.357  50.382  57.856  1.00  0.00    -0.378 N 
HETATM   44  C13 UNL     1       5.930  51.562  57.159  1.00  0.00     0.140 C 
ATOM     45  H3  UNL     1       6.472  50.311  58.866  1.00  0.00     0.160 HD
HETATM   46  C14 UNL     1       6.377  51.312  55.740  1.00  0.00     0.140 C 
HETATM   47  N4  UNL     1       6.319  49.865  55.693  1.00  0.00    -0.378 N 
ATOM     48  H4  UNL     1       6.130  49.287  54.874  1.00  0.00     0.160 HD
ENDBRANCH  41  42
ENDBRANCH  38  41
ENDBRANCH   4  35
TORSDOF 8
ENDMDL
MODEL 2
REMARK VINA RESULT: -9.299236069      1.184      1.493
REMARK  8 active torsions:
REMARK  status: ('A' for Active; 'I' for Inactive)
REMARK    1  A    between atoms: C5_5  and  C6_6 
REMARK    2  A    between atoms: C7_9  and  N2_10 
REMARK    3  A    between atoms: C10_13  and  C11_14 
REMARK    4  A    between atoms: C11_14  and  C12_15 
REMARK    5  A    between atoms: C17_26  and  C18_27 
REMARK    6  A    between atoms: C21_32  and  N7_33 
REMARK    7  A    between atoms: N7_33  and  C22_35 
REMARK    8  A    between atoms: C25_38  and  N8_39 
ROOT
HETATM    1  C6  UNL     1      13.086  48.072  62.440  1.00  0.00     0.089 A 
HETATM    2  N1  UNL     1      12.137  47.658  61.567  1.00  0.00    -0.189 N 
ATOM      3  H1  UNL     1      11.310  47.110  61.804  1.00  0.00     0.184 HD
HETATM    4  C7  UNL     1      12.464  48.085  60.342  1.00  0.00     0.681 A 
HETATM    5  N5  UNL     1      13.602  48.757  60.446  1.00  0.00    -0.187 N 
ATOM      6  H5  UNL     1      14.088  49.197  59.666  1.00  0.00     0.184 HD
HETATM    7  C17 UNL     1      14.027  48.779  61.720  1.00  0.00     0.104 A 
ENDROOT
BRANCH   7   8
HETATM    8  C18 UNL     1      15.230  49.406  62.292  1.00  0.00     0.080 A 
HETATM    9  C19 UNL     1      16.475  48.903  61.940  1.00  0.00     0.050 A 
HETATM   10  C20 UNL     1      17.635  49.450  62.441  1.00  0.00     0.108 A 
HETATM   11  N6  UNL     1      17.534  50.493  63.286  1.00  0.00    -0.202 N 
HETATM   12  C21 UNL     1      16.320  50.975  63.621  1.00  0.00     0.678 A 
ATOM     13  H6  UNL     1      18.377  50.918  63.673  1.00  0.00     0.183 HD
HETATM   14  N9  UNL     1      15.166  50.442  63.132  1.00  0.00    -0.190 N 
ATOM     15  H9  UNL     1      14.263  50.829  63.405  1.00  0.00     0.184 HD
BRANCH  12  16
HETATM   16  N7  UNL     1      16.171  51.966  64.418  1.00  0.00    -0.221 N 
ATOM     17  H7  UNL     1      16.294  52.900  64.027  1.00  0.00     0.178 HD
BRANCH  16  18
HETATM   18  C22 UNL     1      15.843  51.877  65.822  1.00  0.00     0.099 C 
HETATM   19  C23 UNL     1      15.210  53.192  66.230  1.00  0.00     0.027 C 
HETATM   20  C24 UNL     1      13.937  52.965  67.008  1.00  0.00     0.035 C 
HETATM   21  C25 UNL     1      14.161  52.001  68.130  1.00  0.00     0.183 C 
HETATM   22  C26 UNL     1      14.599  50.682  67.554  1.00  0.00     0.035 C 
HETATM   23  C27 UNL     1      14.840  50.755  66.066  1.00  0.00     0.027 C 
BRANCH  21  24
HETATM   24  N8  UNL     1      12.917  51.894  68.882  1.00  0.00    -0.075 N 
ATOM     25  H83 UNL     1      12.114  52.259  68.371  1.00  0.00     0.274 HD
ATOM     26  H82 UNL     1      12.593  50.931  68.975  1.00  0.00     0.274 HD
ATOM     27  H81 UNL     1      13.056  52.353  69.782  1.00  0.00     0.274 HD
ENDBRANCH  21  24
ENDBRANCH  16  18
ENDBRANCH  12  16
ENDBRANCH   7   8
BRANCH   1  28
HETATM   28  C5  UNL     1      13.111  47.820  63.877  1.00  0.00    -0.006 A 
HETATM   29  C4  UNL     1      14.203  47.274  64.514  1.00  0.00     0.014 A 
HETATM   30  C3  UNL     1      14.192  47.048  65.872  1.00  0.00     0.007 A 
HETATM   31  C2  UNL     1      13.064  47.374  66.615  1.00  0.00    -0.062 A 
HETATM   32  C1  UNL     1      13.086  47.115  68.087  1.00  0.00     0.048 C 
HETATM   33  C29 UNL     1      11.965  47.923  65.979  1.00  0.00     0.007 A 
HETATM   34  C28 UNL     1      12.007  48.136  64.625  1.00  0.00     0.014 A 
ENDBRANCH   1  28
BRANCH   4  35
HETATM   35  N2  UNL     1      11.696  47.844  59.143  1.00  0.00    -0.218 N 
HETATM   36  C8  UNL     1      10.811  48.844  58.608  1.00  0.00     0.141 C 
HETATM   37  C9  UNL     1       9.936  48.119  57.569  1.00  0.00     0.025 C 
HETATM   38  C10 UNL     1       9.410  46.901  58.274  1.00  0.00    -0.004 C 
HETATM   39  C15 UNL     1      10.488  45.863  58.488  1.00  0.00     0.025 C 
HETATM   40  C16 UNL     1      11.821  46.577  58.469  1.00  0.00     0.141 C 
BRANCH  38  41
HETATM   41  C11 UNL     1       8.184  46.397  57.605  1.00  0.00     0.080 C 
BRANCH  41  42
HETATM   42  C12 UNL     1       6.972  47.234  57.785  1.00  0.00     0.073 C 
HETATM   43  N3  UNL     1       5.878  46.733  58.289  1.00  0.00    -0.378 N 
HETATM   44  C13 UNL     1       4.856  47.738  58.359  1.00  0.00     0.140 C 
ATOM     45  H3  UNL     1       5.765  45.765  58.589  1.00  0.00     0.160 HD
HETATM   46  C14 UNL     1       5.628  49.030  58.269  1.00  0.00     0.140 C 
HETATM   47  N4  UNL     1       6.770  48.604  57.484  1.00  0.00    -0.378 N 
ATOM     48  H4  UNL     1       7.319  49.177  56.843  1.00  0.00     0.160 HD
ENDBRANCH  41  42
ENDBRANCH  38  41
ENDBRANCH   4  35
TORSDOF 8
ENDMDL
MODEL 3
REMARK VINA RESULT: -8.942050444      2.770      9.763
REMARK  8 active torsions:
REMARK  status: ('A' for Active; 'I' for Inactive)
REMARK    1  A    between atoms: C5_5  and  C6_6 
REMARK    2  A    between atoms: C7_9  and  N2_10 
REMARK    3  A    between atoms: C10_13  and  C11_14 
REMARK    4  A    between atoms: C11_14  and  C12_15 
REMARK    5  A    between atoms: C17_26  and  C18_27 
REMARK    6  A    between atoms: C21_32  and  N7_33 
REMARK    7  A    between atoms: N7_33  and  C22_35 
REMARK    8  A    between atoms: C25_38  and  N8_39 
ROOT
HETATM    1  C6  UNL     1      13.460  47.659  60.627  1.00  0.00     0.089 A 
HETATM    2  N1  UNL     1      13.953  47.637  61.889  1.00  0.00    -0.189 N 
ATOM      3  H1  UNL     1      14.940  47.569  62.140  1.00  0.00     0.184 HD
HETATM    4  C7  UNL     1      12.934  47.721  62.751  1.00  0.00     0.681 A 
HETATM    5  N5  UNL     1      11.818  47.793  62.039  1.00  0.00    -0.187 N 
ATOM      6  H5  UNL     1      10.881  47.865  62.437  1.00  0.00     0.184 HD
HETATM    7  C17 UNL     1      12.088  47.760  60.724  1.00  0.00     0.104 A 
ENDROOT
BRANCH   7   8
HETATM    8  C18 UNL     1      11.163  47.815  59.580  1.00  0.00     0.080 A 
HETATM    9  C19 UNL     1      10.313  46.742  59.358  1.00  0.00     0.050 A 
HETATM   10  C20 UNL     1       9.425  46.739  58.305  1.00  0.00     0.108 A 
HETATM   11  N6  UNL     1       9.400  47.809  57.490  1.00  0.00    -0.202 N 
HETATM   12  C21 UNL     1      10.230  48.848  57.714  1.00  0.00     0.678 A 
ATOM     13  H6  UNL     1       8.752  47.835  56.702  1.00  0.00     0.183 HD
HETATM   14  N9  UNL     1      11.112  48.862  58.752  1.00  0.00    -0.190 N 
ATOM     15  H9  UNL     1      11.727  49.662  58.895  1.00  0.00     0.184 HD
BRANCH  12  16
HETATM   16  N7  UNL     1      10.244  49.890  56.971  1.00  0.00    -0.221 N 
ATOM     17  H7  UNL     1      10.178  50.795  57.437  1.00  0.00     0.178 HD
BRANCH  16  18
HETATM   18  C22 UNL     1      10.344  49.897  55.529  1.00  0.00     0.099 C 
HETATM   19  C23 UNL     1      10.646  51.316  55.097  1.00  0.00     0.027 C 
HETATM   20  C24 UNL     1      11.791  51.354  54.115  1.00  0.00     0.035 C 
HETATM   21  C25 UNL     1      11.565  50.389  52.993  1.00  0.00     0.183 C 
HETATM   22  C26 UNL     1      11.480  48.999  53.560  1.00  0.00     0.035 C 
HETATM   23  C27 UNL     1      11.481  48.992  55.069  1.00  0.00     0.027 C 
BRANCH  21  24
HETATM   24  N8  UNL     1      12.665  50.538  52.048  1.00  0.00    -0.075 N 
ATOM     25  H83 UNL     1      12.730  51.479  51.662  1.00  0.00     0.274 HD
ATOM     26  H82 UNL     1      13.580  50.512  52.498  1.00  0.00     0.274 HD
ATOM     27  H81 UNL     1      12.557  49.822  51.329  1.00  0.00     0.274 HD
ENDBRANCH  21  24
ENDBRANCH  16  18
ENDBRANCH  12  16
ENDBRANCH   7   8
BRANCH   1  28
HETATM   28  C5  UNL     1      14.235  47.589  59.393  1.00  0.00    -0.006 A 
HETATM   29  C4  UNL     1      13.746  47.008  58.244  1.00  0.00     0.014 A 
HETATM   30  C3  UNL     1      14.505  46.959  57.096  1.00  0.00     0.007 A 
HETATM   31  C2  UNL     1      15.783  47.503  57.093  1.00  0.00    -0.062 A 
HETATM   32  C1  UNL     1      16.581  47.431  55.830  1.00  0.00     0.048 C 
HETATM   33  C29 UNL     1      16.278  48.087  58.244  1.00  0.00     0.007 A 
HETATM   34  C28 UNL     1      15.497  48.121  59.371  1.00  0.00     0.014 A 
ENDBRANCH   1  28
BRANCH   4  35
HETATM   35  N2  UNL     1      13.058  47.730  64.190  1.00  0.00    -0.218 N 
HETATM   36  C8  UNL     1      11.918  47.960  65.037  1.00  0.00     0.141 C 
HETATM   37  C9  UNL     1      12.487  48.238  66.440  1.00  0.00     0.025 C 
HETATM   38  C10 UNL     1      13.542  49.289  66.240  1.00  0.00    -0.004 C 
HETATM   39  C15 UNL     1      14.771  48.732  65.558  1.00  0.00     0.025 C 
HETATM   40  C16 UNL     1      14.348  47.502  64.788  1.00  0.00     0.141 C 
BRANCH  38  41
HETATM   41  C11 UNL     1      13.808  50.013  67.509  1.00  0.00     0.080 C 
BRANCH  41  42
HETATM   42  C12 UNL     1      13.986  51.481  67.377  1.00  0.00     0.073 C 
HETATM   43  N3  UNL     1      13.117  52.311  67.884  1.00  0.00    -0.378 N 
HETATM   44  C13 UNL     1      13.511  53.665  67.624  1.00  0.00     0.140 C 
ATOM     45  H3  UNL     1      12.277  52.035  68.392  1.00  0.00     0.160 HD
HETATM   46  C14 UNL     1      14.980  53.547  67.302  1.00  0.00     0.140 C 
HETATM   47  N4  UNL     1      15.024  52.210  66.745  1.00  0.00    -0.378 N 
ATOM     48  H4  UNL     1      15.673  51.863  66.039  1.00  0.00     0.160 HD
ENDBRANCH  41  42
ENDBRANCH  38  41
ENDBRANCH   4  35
TORSDOF 8
ENDMDL
MODEL 4
REMARK VINA RESULT: -8.834172185      1.342      1.717
REMARK  8 active torsions:
REMARK  status: ('A' for Active; 'I' for Inactive)
REMARK    1  A    between atoms: C5_5  and  C6_6 
REMARK    2  A    between atoms: C7_9  and  N2_10 
REMARK    3  A    between atoms: C10_13  and  C11_14 
REMARK    4  A    between atoms: C11_14  and  C12_15 
REMARK    5  A    between atoms: C17_26  and  C18_27 
REMARK    6  A    between atoms: C21_32  and  N7_33 
REMARK    7  A    between atoms: N7_33  and  C22_35 
REMARK    8  A    between atoms: C25_38  and  N8_39 
ROOT
HETATM    1  C6  UNL     1      13.335  48.066  62.765  1.00  0.00     0.089 A 
HETATM    2  N1  UNL     1      12.492  47.540  61.845  1.00  0.00    -0.189 N 
ATOM      3  H1  UNL     1      11.697  46.932  62.046  1.00  0.00     0.184 HD
HETATM    4  C7  UNL     1      12.872  47.947  60.629  1.00  0.00     0.681 A 
HETATM    5  N5  UNL     1      13.940  48.719  60.786  1.00  0.00    -0.187 N 
ATOM      6  H5  UNL     1      14.445  49.171  60.024  1.00  0.00     0.184 HD
HETATM    7  C17 UNL     1      14.264  48.824  62.085  1.00  0.00     0.104 A 
ENDROOT
BRANCH   7   8
HETATM    8  C18 UNL     1      15.365  49.574  62.713  1.00  0.00     0.080 A 
HETATM    9  C19 UNL     1      16.671  49.183  62.453  1.00  0.00     0.050 A 
HETATM   10  C20 UNL     1      17.741  49.847  63.010  1.00  0.00     0.108 A 
HETATM   11  N6  UNL     1      17.490  50.893  63.820  1.00  0.00    -0.202 N 
HETATM   12  C21 UNL     1      16.217  51.265  64.067  1.00  0.00     0.678 A 
ATOM     13  H6  UNL     1      18.263  51.404  64.247  1.00  0.00     0.183 HD
HETATM   14  N9  UNL     1      15.152  50.615  63.521  1.00  0.00    -0.190 N 
ATOM     15  H9  UNL     1      14.201  50.921  63.727  1.00  0.00     0.184 HD
BRANCH  12  16
HETATM   16  N7  UNL     1      15.925  52.253  64.826  1.00  0.00    -0.221 N 
ATOM     17  H7  UNL     1      15.948  53.183  64.408  1.00  0.00     0.178 HD
BRANCH  16  18
HETATM   18  C22 UNL     1      15.567  52.167  66.223  1.00  0.00     0.099 C 
HETATM   19  C23 UNL     1      14.938  53.486  66.619  1.00  0.00     0.027 C 
HETATM   20  C24 UNL     1      13.647  53.271  67.369  1.00  0.00     0.035 C 
HETATM   21  C25 UNL     1      13.838  52.303  68.495  1.00  0.00     0.183 C 
HETATM   22  C26 UNL     1      14.276  50.981  67.927  1.00  0.00     0.035 C 
HETATM   23  C27 UNL     1      14.549  51.053  66.445  1.00  0.00     0.027 C 
BRANCH  21  24
HETATM   24  N8  UNL     1      12.578  52.207  69.221  1.00  0.00    -0.075 N 
ATOM     25  H83 UNL     1      12.253  51.246  69.323  1.00  0.00     0.274 HD
ATOM     26  H82 UNL     1      12.675  52.424  70.213  1.00  0.00     0.274 HD
ATOM     27  H81 UNL     1      11.900  52.806  68.749  1.00  0.00     0.274 HD
ENDBRANCH  21  24
ENDBRANCH  16  18
ENDBRANCH  12  16
ENDBRANCH   7   8
BRANCH   1  28
HETATM   28  C5  UNL     1      13.273  47.870  64.210  1.00  0.00    -0.006 A 
HETATM   29  C4  UNL     1      14.373  47.511  64.956  1.00  0.00     0.014 A 
HETATM   30  C3  UNL     1      14.279  47.333  66.318  1.00  0.00     0.007 A 
HETATM   31  C2  UNL     1      13.057  47.518  66.953  1.00  0.00    -0.062 A 
HETATM   32  C1  UNL     1      12.989  47.315  68.433  1.00  0.00     0.048 C 
HETATM   33  C29 UNL     1      11.949  47.879  66.208  1.00  0.00     0.007 A 
HETATM   34  C28 UNL     1      12.076  48.049  64.853  1.00  0.00     0.014 A 
ENDBRANCH   1  28
BRANCH   4  35
HETATM   35  N2  UNL     1      12.219  47.597  59.390  1.00  0.00    -0.218 N 
HETATM   36  C8  UNL     1      12.917  47.659  58.134  1.00  0.00     0.141 C 
HETATM   37  C9  UNL     1      11.833  47.559  57.045  1.00  0.00     0.025 C 
HETATM   38  C10 UNL     1      10.798  48.581  57.420  1.00  0.00    -0.004 C 
HETATM   39  C15 UNL     1      10.000  48.159  58.633  1.00  0.00     0.025 C 
HETATM   40  C16 UNL     1      10.843  47.174  59.414  1.00  0.00     0.141 C 
BRANCH  38  41
HETATM   41  C11 UNL     1       9.981  48.958  56.240  1.00  0.00     0.080 C 
BRANCH  41  42
HETATM   42  C12 UNL     1       8.899  49.940  56.503  1.00  0.00     0.073 C 
HETATM   43  N3  UNL     1       7.840  49.991  55.744  1.00  0.00    -0.378 N 
HETATM   44  C13 UNL     1       6.948  51.018  56.203  1.00  0.00     0.140 C 
ATOM     45  H3  UNL     1       7.670  49.388  54.940  1.00  0.00     0.160 HD
HETATM   46  C14 UNL     1       7.394  51.262  57.623  1.00  0.00     0.140 C 
HETATM   47  N4  UNL     1       8.799  50.919  57.523  1.00  0.00    -0.378 N 
ATOM     48  H4  UNL     1       9.564  51.307  58.076  1.00  0.00     0.160 HD
ENDBRANCH  41  42
ENDBRANCH  38  41
ENDBRANCH   4  35
TORSDOF 8
ENDMDL
MODEL 5
REMARK VINA RESULT: -8.805781759      1.529      1.896
REMARK  8 active torsions:
REMARK  status: ('A' for Active; 'I' for Inactive)
REMARK    1  A    between atoms: C5_5  and  C6_6 
REMARK    2  A    between atoms: C7_9  and  N2_10 
REMARK    3  A    between atoms: C10_13  and  C11_14 
REMARK    4  A    between atoms: C11_14  and  C12_15 
REMARK    5  A    between atoms: C17_26  and  C18_27 
REMARK    6  A    between atoms: C21_32  and  N7_33 
REMARK    7  A    between atoms: N7_33  and  C22_35 
REMARK    8  A    between atoms: C25_38  and  N8_39 
ROOT
HETATM    1  C6  UNL     1      13.025  47.884  62.461  1.00  0.00     0.089 A 
HETATM    2  N1  UNL     1      12.056  47.543  61.578  1.00  0.00    -0.189 N 
ATOM      3  H1  UNL     1      11.184  47.065  61.808  1.00  0.00     0.184 HD
HETATM    4  C7  UNL     1      12.430  47.935  60.356  1.00  0.00     0.681 A 
HETATM    5  N5  UNL     1      13.618  48.514  60.471  1.00  0.00    -0.187 N 
ATOM      6  H5  UNL     1      14.148  48.910  59.695  1.00  0.00     0.184 HD
HETATM    7  C17 UNL     1      14.028  48.509  61.750  1.00  0.00     0.104 A 
ENDROOT
BRANCH   7   8
HETATM    8  C18 UNL     1      15.271  49.040  62.334  1.00  0.00     0.080 A 
HETATM    9  C19 UNL     1      16.469  48.812  61.671  1.00  0.00     0.050 A 
HETATM   10  C20 UNL     1      17.662  49.286  62.168  1.00  0.00     0.108 A 
HETATM   11  N6  UNL     1      17.641  49.982  63.319  1.00  0.00    -0.202 N 
HETATM   12  C21 UNL     1      16.472  50.200  63.956  1.00  0.00     0.678 A 
ATOM     13  H6  UNL     1      18.510  50.346  63.711  1.00  0.00     0.183 HD
HETATM   14  N9  UNL     1      15.286  49.735  63.474  1.00  0.00    -0.190 N 
ATOM     15  H9  UNL     1      14.418  49.915  63.979  1.00  0.00     0.184 HD
BRANCH  12  16
HETATM   16  N7  UNL     1      16.398  50.857  65.052  1.00  0.00    -0.221 N 
ATOM     17  H7  UNL     1      16.040  51.811  64.998  1.00  0.00     0.178 HD
BRANCH  16  18
HETATM   18  C22 UNL     1      16.777  50.367  66.357  1.00  0.00     0.099 C 
HETATM   19  C23 UNL     1      15.797  50.936  67.363  1.00  0.00     0.027 C 
HETATM   20  C24 UNL     1      15.275  49.860  68.282  1.00  0.00     0.035 C 
HETATM   21  C25 UNL     1      16.400  49.072  68.877  1.00  0.00     0.183 C 
HETATM   22  C26 UNL     1      17.166  48.408  67.765  1.00  0.00     0.035 C 
HETATM   23  C27 UNL     1      16.694  48.846  66.400  1.00  0.00     0.027 C 
BRANCH  21  24
HETATM   24  N8  UNL     1      15.828  48.110  69.810  1.00  0.00    -0.075 N 
ATOM     25  H83 UNL     1      15.464  47.278  69.347  1.00  0.00     0.274 HD
ATOM     26  H82 UNL     1      16.533  47.649  70.385  1.00  0.00     0.274 HD
ATOM     27  H81 UNL     1      15.122  48.596  70.364  1.00  0.00     0.274 HD
ENDBRANCH  21  24
ENDBRANCH  16  18
ENDBRANCH  12  16
ENDBRANCH   7   8
BRANCH   1  28
HETATM   28  C5  UNL     1      13.012  47.639  63.900  1.00  0.00    -0.006 A 
HETATM   29  C4  UNL     1      13.843  46.719  64.501  1.00  0.00     0.014 A 
HETATM   30  C3  UNL     1      13.804  46.512  65.861  1.00  0.00     0.007 A 
HETATM   31  C2  UNL     1      12.914  47.239  66.643  1.00  0.00    -0.062 A 
HETATM   32  C1  UNL     1      12.897  46.987  68.117  1.00  0.00     0.048 C 
HETATM   33  C29 UNL     1      12.078  48.163  66.043  1.00  0.00     0.007 A 
HETATM   34  C28 UNL     1      12.141  48.347  64.686  1.00  0.00     0.014 A 
ENDBRANCH   1  28
BRANCH   4  35
HETATM   35  N2  UNL     1      11.660  47.750  59.149  1.00  0.00    -0.218 N 
HETATM   36  C8  UNL     1      10.828  48.800  58.624  1.00  0.00     0.141 C 
HETATM   37  C9  UNL     1       9.926  48.135  57.569  1.00  0.00     0.025 C 
HETATM   38  C10 UNL     1       9.337  46.932  58.251  1.00  0.00    -0.004 C 
HETATM   39  C15 UNL     1      10.363  45.840  58.454  1.00  0.00     0.025 C 
HETATM   40  C16 UNL     1      11.729  46.490  58.454  1.00  0.00     0.141 C 
BRANCH  38  41
HETATM   41  C11 UNL     1       8.094  46.498  57.567  1.00  0.00     0.080 C 
BRANCH  41  42
HETATM   42  C12 UNL     1       6.918  47.382  57.764  1.00  0.00     0.073 C 
HETATM   43  N3  UNL     1       5.813  46.924  58.284  1.00  0.00    -0.378 N 
HETATM   44  C13 UNL     1       4.832  47.968  58.369  1.00  0.00     0.140 C 
ATOM     45  H3  UNL     1       5.667  45.961  58.586  1.00  0.00     0.160 HD
HETATM   46  C14 UNL     1       5.653  49.230  58.267  1.00  0.00     0.140 C 
HETATM   47  N4  UNL     1       6.766  48.759  57.466  1.00  0.00    -0.378 N 
ATOM     48  H4  UNL     1       7.327  49.310  56.816  1.00  0.00     0.160 HD
ENDBRANCH  41  42
ENDBRANCH  38  41
ENDBRANCH   4  35
TORSDOF 8
ENDMDL
