MODEL 1
REMARK VINA RESULT: -5.970533408      0.000      0.000
REMARK  2 active torsions:
REMARK  status: ('A' for Active; 'I' for Inactive)
REMARK    1  A    between atoms: C2_5  and  C3_6 
REMARK    2  A    between atoms: C6_9  and  N3_10 
ROOT
HETATM    1  N1  UNL     1      32.688  37.779  51.696  1.00  0.00    -0.172 NA
HETATM    2  C1  UNL     1      33.092  36.752  52.105  1.00  0.00     0.181 C 
HETATM    3  N2  UNL     1      33.561  35.579  52.613  1.00  0.00    -0.302 N 
ATOM      4  H2  UNL     1      33.758  35.592  53.613  1.00  0.00     0.177 HD
HETATM    5  C2  UNL     1      33.786  34.503  52.055  1.00  0.00     0.136 C 
ENDROOT
BRANCH   5   6
HETATM    6  C3  UNL     1      33.640  34.085  50.678  1.00  0.00     0.094 A 
HETATM    7  C4  UNL     1      34.574  33.857  49.697  1.00  0.00     0.043 A 
HETATM    8  C5  UNL     1      33.929  33.471  48.538  1.00  0.00     0.065 A 
HETATM    9  C6  UNL     1      32.598  33.477  48.867  1.00  0.00     0.215 A 
HETATM   10  O3  UNL     1      32.467  33.832  50.093  1.00  0.00    -0.287 OA
BRANCH   9  11
HETATM   11  N3  UNL     1      31.539  33.140  47.972  1.00  0.00    -0.090 N 
HETATM   12  O1  UNL     1      30.423  33.686  48.053  1.00  0.00    -0.530 OA
HETATM   13  O2  UNL     1      31.714  32.199  46.988  1.00  0.00    -0.530 OA
ENDBRANCH   9  11
ENDBRANCH   5   6
TORSDOF 2
ENDMDL
MODEL 2
REMARK VINA RESULT: -5.951376213      2.003      2.877
REMARK  2 active torsions:
REMARK  status: ('A' for Active; 'I' for Inactive)
REMARK    1  A    between atoms: C2_5  and  C3_6 
REMARK    2  A    between atoms: C6_9  and  N3_10 
ROOT
HETATM    1  N1  UNL     1      34.568  34.230  52.181  1.00  0.00    -0.172 NA
HETATM    2  C1  UNL     1      33.527  34.592  51.768  1.00  0.00     0.181 C 
HETATM    3  N2  UNL     1      32.320  35.036  51.319  1.00  0.00    -0.302 N 
ATOM      4  H2  UNL     1      31.912  35.795  51.864  1.00  0.00     0.177 HD
HETATM    5  C2  UNL     1      31.644  34.666  50.358  1.00  0.00     0.136 C 
ENDROOT
BRANCH   5   6
HETATM    6  C3  UNL     1      31.867  33.641  49.362  1.00  0.00     0.094 A 
HETATM    7  C4  UNL     1      31.190  32.476  49.095  1.00  0.00     0.043 A 
HETATM    8  C5  UNL     1      31.799  31.831  48.034  1.00  0.00     0.065 A 
HETATM    9  C6  UNL     1      32.845  32.649  47.690  1.00  0.00     0.215 A 
HETATM   10  O3  UNL     1      32.856  33.670  48.466  1.00  0.00    -0.287 OA
BRANCH   9  11
HETATM   11  N3  UNL     1      33.767  32.387  46.633  1.00  0.00    -0.090 N 
HETATM   12  O1  UNL     1      34.955  32.748  46.704  1.00  0.00    -0.530 OA
HETATM   13  O2  UNL     1      33.372  31.726  45.495  1.00  0.00    -0.530 OA
ENDBRANCH   9  11
ENDBRANCH   5   6
TORSDOF 2
ENDMDL
MODEL 3
REMARK VINA RESULT: -5.658478489      1.440      1.901
REMARK  2 active torsions:
REMARK  status: ('A' for Active; 'I' for Inactive)
REMARK    1  A    between atoms: C2_5  and  C3_6 
REMARK    2  A    between atoms: C6_9  and  N3_10 
ROOT
HETATM    1  N1  UNL     1      32.529  37.631  52.151  1.00  0.00    -0.172 NA
HETATM    2  C1  UNL     1      33.093  36.615  52.337  1.00  0.00     0.181 C 
HETATM    3  N2  UNL     1      33.758  35.452  52.585  1.00  0.00    -0.302 N 
ATOM      4  H2  UNL     1      34.262  35.427  53.471  1.00  0.00     0.177 HD
HETATM    5  C2  UNL     1      33.846  34.426  51.909  1.00  0.00     0.136 C 
ENDROOT
BRANCH   5   6
HETATM    6  C3  UNL     1      33.290  34.070  50.622  1.00  0.00     0.094 A 
HETATM    7  C4  UNL     1      32.014  34.179  50.126  1.00  0.00     0.043 A 
HETATM    8  C5  UNL     1      31.988  33.697  48.831  1.00  0.00     0.065 A 
HETATM    9  C6  UNL     1      33.280  33.306  48.585  1.00  0.00     0.215 A 
HETATM   10  O3  UNL     1      33.995  33.531  49.625  1.00  0.00    -0.287 OA
BRANCH   9  11
HETATM   11  N3  UNL     1      33.736  32.737  47.358  1.00  0.00    -0.090 N 
HETATM   12  O1  UNL     1      34.899  32.917  46.953  1.00  0.00    -0.530 OA
HETATM   13  O2  UNL     1      32.905  31.971  46.579  1.00  0.00    -0.530 OA
ENDBRANCH   9  11
ENDBRANCH   5   6
TORSDOF 2
ENDMDL
MODEL 4
REMARK VINA RESULT: -5.639150614      3.034      4.455
REMARK  2 active torsions:
REMARK  status: ('A' for Active; 'I' for Inactive)
REMARK    1  A    between atoms: C2_5  and  C3_6 
REMARK    2  A    between atoms: C6_9  and  N3_10 
ROOT
HETATM    1  N1  UNL     1      34.634  31.996  46.158  1.00  0.00    -0.172 NA
HETATM    2  C1  UNL     1      34.617  32.439  47.249  1.00  0.00     0.181 C 
HETATM    3  N2  UNL     1      34.634  32.946  48.513  1.00  0.00    -0.302 N 
ATOM      4  H2  UNL     1      35.548  32.941  48.965  1.00  0.00     0.177 HD
HETATM    5  C2  UNL     1      33.720  33.408  49.198  1.00  0.00     0.136 C 
ENDROOT
BRANCH   5   6
HETATM    6  C3  UNL     1      32.310  33.587  48.927  1.00  0.00     0.094 A 
HETATM    7  C4  UNL     1      31.290  32.676  48.803  1.00  0.00     0.043 A 
HETATM    8  C5  UNL     1      30.111  33.349  48.539  1.00  0.00     0.065 A 
HETATM    9  C6  UNL     1      30.470  34.672  48.514  1.00  0.00     0.215 A 
HETATM   10  O3  UNL     1      31.729  34.774  48.737  1.00  0.00    -0.287 OA
BRANCH   9  11
HETATM   11  N3  UNL     1      29.570  35.753  48.272  1.00  0.00    -0.090 N 
HETATM   12  O1  UNL     1      28.969  35.867  47.189  1.00  0.00    -0.530 OA
HETATM   13  O2  UNL     1      29.335  36.708  49.231  1.00  0.00    -0.530 OA
ENDBRANCH   9  11
ENDBRANCH   5   6
TORSDOF 2
ENDMDL
MODEL 5
REMARK VINA RESULT: -5.558833259      2.139      5.009
REMARK  2 active torsions:
REMARK  status: ('A' for Active; 'I' for Inactive)
REMARK    1  A    between atoms: C2_5  and  C3_6 
REMARK    2  A    between atoms: C6_9  and  N3_10 
ROOT
HETATM    1  N1  UNL     1      34.887  32.629  46.596  1.00  0.00    -0.172 NA
HETATM    2  C1  UNL     1      33.787  32.385  46.936  1.00  0.00     0.181 C 
HETATM    3  N2  UNL     1      32.513  32.074  47.304  1.00  0.00    -0.302 N 
ATOM      4  H2  UNL     1      32.098  31.293  46.796  1.00  0.00     0.177 HD
HETATM    5  C2  UNL     1      31.783  32.586  48.155  1.00  0.00     0.136 C 
ENDROOT
BRANCH   5   6
HETATM    6  C3  UNL     1      31.994  33.688  49.067  1.00  0.00     0.094 A 
HETATM    7  C4  UNL     1      31.473  34.959  49.088  1.00  0.00     0.043 A 
HETATM    8  C5  UNL     1      31.990  35.643  50.171  1.00  0.00     0.065 A 
HETATM    9  C6  UNL     1      32.824  34.741  50.781  1.00  0.00     0.215 A 
HETATM   10  O3  UNL     1      32.805  33.638  50.126  1.00  0.00    -0.287 OA
BRANCH   9  11
HETATM   11  N3  UNL     1      33.587  35.007  51.957  1.00  0.00    -0.090 N 
HETATM   12  O1  UNL     1      33.270  35.918  52.743  1.00  0.00    -0.530 OA
HETATM   13  O2  UNL     1      34.702  34.266  52.262  1.00  0.00    -0.530 OA
ENDBRANCH   9  11
ENDBRANCH   5   6
TORSDOF 2
ENDMDL
