MODEL 1
REMARK VINA RESULT: -6.279453510      0.000      0.000
REMARK  4 active torsions:
REMARK  status: ('A' for Active; 'I' for Inactive)
REMARK    1  A    between atoms: O1_1  and  N1_3 
REMARK    2  A    between atoms: N1_3  and  N2_5 
REMARK    3  A    between atoms: N3_7  and  C1_9 
REMARK    4  A    between atoms: C6_14  and  N4_15 
ROOT
HETATM    1  C1  UNL     1      32.114  34.153  48.929  1.00  0.00     0.082 A 
HETATM    2  C2  UNL     1      30.753  33.938  49.168  1.00  0.00     0.033 A 
HETATM    3  C3  UNL     1      30.176  32.696  48.942  1.00  0.00     0.002 A 
HETATM    4  C4  UNL     1      30.922  31.639  48.479  1.00  0.00     0.003 A 
HETATM    5  C5  UNL     1      32.262  31.849  48.243  1.00  0.00     0.038 A 
HETATM    6  C6  UNL     1      32.858  33.088  48.463  1.00  0.00     0.131 A 
ENDROOT
BRANCH   1   7
HETATM    7  N3  UNL     1      32.720  35.412  49.151  1.00  0.00    -0.283 N 
HETATM    8  N2  UNL     1      33.163  35.688  50.302  1.00  0.00    -0.223 N 
ATOM      9  H2  UNL     1      33.601  36.594  50.470  1.00  0.00     0.210 HD
ATOM     10  H3  UNL     1      32.798  36.088  48.392  1.00  0.00     0.188 HD
BRANCH   8  11
HETATM   11  N1  UNL     1      33.060  34.768  51.346  1.00  0.00    -0.196 N 
ATOM     12  H1  UNL     1      32.137  34.542  51.717  1.00  0.00     0.217 HD
BRANCH  11  13
HETATM   13  O1  UNL     1      34.055  34.217  51.838  1.00  0.00    -0.273 OA
ATOM     14  H1  UNL     1      34.680  33.737  51.306  1.00  0.00     0.246 HD
ENDBRANCH  11  13
ENDBRANCH   8  11
ENDBRANCH   1   7
BRANCH   6  15
HETATM   15  N4  UNL     1      34.246  33.306  48.219  1.00  0.00    -0.113 N 
HETATM   16  O2  UNL     1      35.011  33.788  49.091  1.00  0.00    -0.532 OA
HETATM   17  O3  UNL     1      34.777  32.985  46.992  1.00  0.00    -0.532 OA
ENDBRANCH   6  15
TORSDOF 4
ENDMDL
MODEL 2
REMARK VINA RESULT: -6.119471408      1.547      3.178
REMARK  4 active torsions:
REMARK  status: ('A' for Active; 'I' for Inactive)
REMARK    1  A    between atoms: O1_1  and  N1_3 
REMARK    2  A    between atoms: N1_3  and  N2_5 
REMARK    3  A    between atoms: N3_7  and  C1_9 
REMARK    4  A    between atoms: C6_14  and  N4_15 
ROOT
HETATM    1  C1  UNL     1      32.488  33.246  49.658  1.00  0.00     0.082 A 
HETATM    2  C2  UNL     1      32.092  32.099  48.964  1.00  0.00     0.033 A 
HETATM    3  C3  UNL     1      30.883  32.058  48.284  1.00  0.00     0.002 A 
HETATM    4  C4  UNL     1      30.038  33.142  48.269  1.00  0.00     0.003 A 
HETATM    5  C5  UNL     1      30.427  34.273  48.952  1.00  0.00     0.038 A 
HETATM    6  C6  UNL     1      31.636  34.332  49.640  1.00  0.00     0.131 A 
ENDROOT
BRANCH   1   7
HETATM    7  N3  UNL     1      33.716  33.307  50.358  1.00  0.00    -0.283 N 
HETATM    8  N2  UNL     1      34.768  33.619  49.732  1.00  0.00    -0.223 N 
ATOM      9  H2  UNL     1      35.657  33.664  50.231  1.00  0.00     0.210 HD
ATOM     10  H3  UNL     1      33.751  33.101  51.357  1.00  0.00     0.188 HD
BRANCH   8  11
HETATM   11  N1  UNL     1      34.728  33.902  48.366  1.00  0.00    -0.196 N 
ATOM     12  H1  UNL     1      34.329  34.788  48.056  1.00  0.00     0.217 HD
BRANCH  11  13
HETATM   13  O1  UNL     1      35.162  33.111  47.517  1.00  0.00    -0.273 OA
ATOM     14  H1  UNL     1      35.573  33.409  46.713  1.00  0.00     0.246 HD
ENDBRANCH  11  13
ENDBRANCH   8  11
ENDBRANCH   1   7
BRANCH   6  15
HETATM   15  N4  UNL     1      32.039  35.503  50.348  1.00  0.00    -0.113 N 
HETATM   16  O2  UNL     1      31.433  35.908  51.371  1.00  0.00    -0.532 OA
HETATM   17  O3  UNL     1      33.126  36.220  49.907  1.00  0.00    -0.532 OA
ENDBRANCH   6  15
TORSDOF 4
ENDMDL
MODEL 3
REMARK VINA RESULT: -6.049280745      2.241      3.434
REMARK  4 active torsions:
REMARK  status: ('A' for Active; 'I' for Inactive)
REMARK    1  A    between atoms: O1_1  and  N1_3 
REMARK    2  A    between atoms: N1_3  and  N2_5 
REMARK    3  A    between atoms: N3_7  and  C1_9 
REMARK    4  A    between atoms: C6_14  and  N4_15 
ROOT
HETATM    1  C1  UNL     1      32.724  34.399  49.761  1.00  0.00     0.082 A 
HETATM    2  C2  UNL     1      32.781  35.791  49.891  1.00  0.00     0.033 A 
HETATM    3  C3  UNL     1      31.806  36.600  49.326  1.00  0.00     0.002 A 
HETATM    4  C4  UNL     1      30.753  36.063  48.625  1.00  0.00     0.003 A 
HETATM    5  C5  UNL     1      30.695  34.693  48.497  1.00  0.00     0.038 A 
HETATM    6  C6  UNL     1      31.665  33.865  49.056  1.00  0.00     0.131 A 
ENDROOT
BRANCH   1   7
HETATM    7  N3  UNL     1      33.709  33.557  50.329  1.00  0.00    -0.283 N 
HETATM    8  N2  UNL     1      34.759  33.306  49.672  1.00  0.00    -0.223 N 
ATOM      9  H2  UNL     1      35.473  32.699  50.075  1.00  0.00     0.210 HD
ATOM     10  H3  UNL     1      33.573  33.157  51.258  1.00  0.00     0.188 HD
BRANCH   8  11
HETATM   11  N1  UNL     1      34.952  33.849  48.401  1.00  0.00    -0.196 N 
ATOM     12  H1  UNL     1      35.068  34.858  48.307  1.00  0.00     0.217 HD
BRANCH  11  13
HETATM   13  O1  UNL     1      34.988  33.145  47.383  1.00  0.00    -0.273 OA
ATOM     14  H1  UNL     1      34.197  32.860  46.938  1.00  0.00     0.246 HD
ENDBRANCH  11  13
ENDBRANCH   8  11
ENDBRANCH   1   7
BRANCH   6  15
HETATM   15  N4  UNL     1      31.606  32.446  48.923  1.00  0.00    -0.113 N 
HETATM   16  O2  UNL     1      32.557  31.779  48.444  1.00  0.00    -0.532 OA
HETATM   17  O3  UNL     1      30.478  31.773  49.329  1.00  0.00    -0.532 OA
ENDBRANCH   6  15
TORSDOF 4
ENDMDL
MODEL 4
REMARK VINA RESULT: -6.027555535      3.273      4.361
REMARK  4 active torsions:
REMARK  status: ('A' for Active; 'I' for Inactive)
REMARK    1  A    between atoms: O1_1  and  N1_3 
REMARK    2  A    between atoms: N1_3  and  N2_5 
REMARK    3  A    between atoms: N3_7  and  C1_9 
REMARK    4  A    between atoms: C6_14  and  N4_15 
ROOT
HETATM    1  C1  UNL     1      34.089  33.098  47.767  1.00  0.00     0.082 A 
HETATM    2  C2  UNL     1      35.050  33.578  48.663  1.00  0.00     0.033 A 
HETATM    3  C3  UNL     1      34.712  33.889  49.972  1.00  0.00     0.002 A 
HETATM    4  C4  UNL     1      33.426  33.734  50.432  1.00  0.00     0.003 A 
HETATM    5  C5  UNL     1      32.479  33.261  49.551  1.00  0.00     0.038 A 
HETATM    6  C6  UNL     1      32.799  32.945  48.234  1.00  0.00     0.131 A 
ENDROOT
BRANCH   1   7
HETATM    7  N3  UNL     1      34.413  32.776  46.428  1.00  0.00    -0.283 N 
HETATM    8  N2  UNL     1      35.182  31.801  46.197  1.00  0.00    -0.223 N 
ATOM      9  H2  UNL     1      35.421  31.564  45.234  1.00  0.00     0.210 HD
ATOM     10  H3  UNL     1      34.030  33.326  45.658  1.00  0.00     0.188 HD
BRANCH   8  11
HETATM   11  N1  UNL     1      35.710  31.044  47.244  1.00  0.00    -0.196 N 
ATOM     12  H1  UNL     1      35.179  30.963  48.112  1.00  0.00     0.217 HD
BRANCH  11  13
HETATM   13  O1  UNL     1      36.802  30.467  47.154  1.00  0.00    -0.273 OA
ATOM     14  H1  UNL     1      36.961  29.622  47.559  1.00  0.00     0.246 HD
ENDBRANCH  11  13
ENDBRANCH   8  11
ENDBRANCH   1   7
BRANCH   6  15
HETATM   15  N4  UNL     1      31.819  32.455  47.321  1.00  0.00    -0.113 N 
HETATM   16  O2  UNL     1      32.111  31.673  46.382  1.00  0.00    -0.532 OA
HETATM   17  O3  UNL     1      30.508  32.844  47.461  1.00  0.00    -0.532 OA
ENDBRANCH   6  15
TORSDOF 4
ENDMDL
MODEL 5
REMARK VINA RESULT: -5.985122984      1.857      2.697
REMARK  4 active torsions:
REMARK  status: ('A' for Active; 'I' for Inactive)
REMARK    1  A    between atoms: O1_1  and  N1_3 
REMARK    2  A    between atoms: N1_3  and  N2_5 
REMARK    3  A    between atoms: N3_7  and  C1_9 
REMARK    4  A    between atoms: C6_14  and  N4_15 
ROOT
HETATM    1  C1  UNL     1      32.638  33.739  48.657  1.00  0.00     0.082 A 
HETATM    2  C2  UNL     1      32.237  32.421  48.410  1.00  0.00     0.033 A 
HETATM    3  C3  UNL     1      30.892  32.089  48.328  1.00  0.00     0.002 A 
HETATM    4  C4  UNL     1      29.913  33.040  48.485  1.00  0.00     0.003 A 
HETATM    5  C5  UNL     1      30.306  34.337  48.728  1.00  0.00     0.038 A 
HETATM    6  C6  UNL     1      31.650  34.690  48.814  1.00  0.00     0.131 A 
ENDROOT
BRANCH   1   7
HETATM    7  N3  UNL     1      34.003  34.098  48.745  1.00  0.00    -0.283 N 
HETATM    8  N2  UNL     1      34.590  34.024  49.861  1.00  0.00    -0.223 N 
ATOM      9  H2  UNL     1      35.575  34.282  49.932  1.00  0.00     0.210 HD
ATOM     10  H3  UNL     1      34.508  34.413  47.916  1.00  0.00     0.188 HD
BRANCH   8  11
HETATM   11  N1  UNL     1      33.907  33.594  51.000  1.00  0.00    -0.196 N 
ATOM     12  H1  UNL     1      33.312  32.768  50.936  1.00  0.00     0.217 HD
BRANCH  11  13
HETATM   13  O1  UNL     1      33.999  34.184  52.085  1.00  0.00    -0.273 OA
ATOM     14  H1  UNL     1      34.705  34.793  52.269  1.00  0.00     0.246 HD
ENDBRANCH  11  13
ENDBRANCH   8  11
ENDBRANCH   1   7
BRANCH   6  15
HETATM   15  N4  UNL     1      32.058  36.033  49.066  1.00  0.00    -0.113 N 
HETATM   16  O2  UNL     1      31.761  36.978  48.294  1.00  0.00    -0.532 OA
HETATM   17  O3  UNL     1      32.802  36.316  50.187  1.00  0.00    -0.532 OA
ENDBRANCH   6  15
TORSDOF 4
ENDMDL
