MODEL 1
REMARK VINA RESULT: -5.856950250      0.000      0.000
REMARK  4 active torsions:
REMARK  status: ('A' for Active; 'I' for Inactive)
REMARK    1  A    between atoms: C1_2  and  N1_3 
REMARK    2  A    between atoms: N1_3  and  N2_5 
REMARK    3  A    between atoms: N3_7  and  N4_9 
REMARK    4  A    between atoms: C2_11  and  C3_12 
ROOT
HETATM    1  N2  UNL     1      35.230  32.001  47.266  1.00  0.00    -0.226 N 
ATOM      2  H2  UNL     1      35.680  31.388  47.946  1.00  0.00     0.210 HD
HETATM    3  N3  UNL     1      34.793  33.132  47.653  1.00  0.00    -0.229 N 
ATOM      4  H3  UNL     1      34.341  33.758  46.986  1.00  0.00     0.210 HD
ENDROOT
BRANCH   3   5
HETATM    5  N4  UNL     1      34.927  33.511  48.961  1.00  0.00    -0.295 N 
HETATM    6  C2  UNL     1      34.160  34.124  49.709  1.00  0.00     0.127 C 
ATOM      7  H4  UNL     1      35.812  33.242  49.391  1.00  0.00     0.187 HD
BRANCH   6   8
HETATM    8  C3  UNL     1      32.819  34.629  49.339  1.00  0.00     0.021 A 
HETATM    9  C4  UNL     1      32.338  35.881  49.144  1.00  0.00     0.021 A 
HETATM   10  C5  UNL     1      31.043  36.028  48.806  1.00  0.00     0.008 A 
HETATM   11  C6  UNL     1      30.295  34.886  48.683  1.00  0.00     0.050 A 
HETATM   12  S1  UNL     1      31.412  33.657  49.039  1.00  0.00    -0.101 SA
ENDBRANCH   6   8
ENDBRANCH   3   5
BRANCH   1  13
HETATM   13  N1  UNL     1      35.116  31.572  45.942  1.00  0.00    -0.262 N 
ATOM     14  H1  UNL     1      35.927  31.247  45.416  1.00  0.00     0.191 HD
BRANCH  13  15
HETATM   15  C1  UNL     1      33.942  31.602  45.414  1.00  0.00     0.369 C 
HETATM   16  O1  UNL     1      32.745  31.949  45.471  1.00  0.00    -0.282 OA
ENDBRANCH  13  15
ENDBRANCH   1  13
TORSDOF 4
ENDMDL
MODEL 2
REMARK VINA RESULT: -5.824261462      2.022      2.317
REMARK  4 active torsions:
REMARK  status: ('A' for Active; 'I' for Inactive)
REMARK    1  A    between atoms: C1_2  and  N1_3 
REMARK    2  A    between atoms: N1_3  and  N2_5 
REMARK    3  A    between atoms: N3_7  and  N4_9 
REMARK    4  A    between atoms: C2_11  and  C3_12 
ROOT
HETATM    1  N2  UNL     1      34.603  32.759  46.401  1.00  0.00    -0.226 N 
ATOM      2  H2  UNL     1      34.101  33.572  46.045  1.00  0.00     0.210 HD
HETATM    3  N3  UNL     1      34.977  32.751  47.617  1.00  0.00    -0.229 N 
ATOM      4  H3  UNL     1      35.480  31.946  47.990  1.00  0.00     0.210 HD
ENDROOT
BRANCH   3   5
HETATM    5  N4  UNL     1      34.705  33.820  48.428  1.00  0.00    -0.295 N 
HETATM    6  C2  UNL     1      33.659  34.170  48.983  1.00  0.00     0.127 C 
ATOM      7  H4  UNL     1      35.502  34.432  48.603  1.00  0.00     0.187 HD
BRANCH   6   8
HETATM    8  C3  UNL     1      32.361  33.464  48.895  1.00  0.00     0.021 A 
HETATM    9  C4  UNL     1      32.028  32.153  48.987  1.00  0.00     0.021 A 
HETATM   10  C5  UNL     1      30.733  31.808  48.863  1.00  0.00     0.008 A 
HETATM   11  C6  UNL     1      29.833  32.820  48.651  1.00  0.00     0.050 A 
HETATM   12  S1  UNL     1      30.814  34.206  48.630  1.00  0.00    -0.101 SA
ENDBRANCH   6   8
ENDBRANCH   3   5
BRANCH   1  13
HETATM   13  N1  UNL     1      34.859  31.692  45.536  1.00  0.00    -0.262 N 
ATOM     14  H1  UNL     1      34.435  31.645  44.610  1.00  0.00     0.191 HD
BRANCH  13  15
HETATM   15  C1  UNL     1      35.652  30.771  45.959  1.00  0.00     0.369 C 
HETATM   16  O1  UNL     1      36.461  30.355  46.813  1.00  0.00    -0.282 OA
ENDBRANCH  13  15
ENDBRANCH   1  13
TORSDOF 4
ENDMDL
MODEL 3
REMARK VINA RESULT: -5.807680970      0.887      1.149
REMARK  4 active torsions:
REMARK  status: ('A' for Active; 'I' for Inactive)
REMARK    1  A    between atoms: C1_2  and  N1_3 
REMARK    2  A    between atoms: N1_3  and  N2_5 
REMARK    3  A    between atoms: N3_7  and  N4_9 
REMARK    4  A    between atoms: C2_11  and  C3_12 
ROOT
HETATM    1  N2  UNL     1      35.230  32.002  47.274  1.00  0.00    -0.226 N 
ATOM      2  H2  UNL     1      35.647  31.385  47.971  1.00  0.00     0.210 HD
HETATM    3  N3  UNL     1      34.812  33.148  47.638  1.00  0.00    -0.229 N 
ATOM      4  H3  UNL     1      34.393  33.778  46.954  1.00  0.00     0.210 HD
ENDROOT
BRANCH   3   5
HETATM    5  N4  UNL     1      34.925  33.538  48.945  1.00  0.00    -0.295 N 
HETATM    6  C2  UNL     1      34.101  34.042  49.714  1.00  0.00     0.127 C 
ATOM      7  H4  UNL     1      35.847  33.386  49.354  1.00  0.00     0.187 HD
BRANCH   6   8
HETATM    8  C3  UNL     1      32.697  34.367  49.376  1.00  0.00     0.021 A 
HETATM    9  C4  UNL     1      31.607  33.590  49.162  1.00  0.00     0.021 A 
HETATM   10  C5  UNL     1      30.438  34.189  48.867  1.00  0.00     0.008 A 
HETATM   11  C6  UNL     1      30.434  35.558  48.802  1.00  0.00     0.050 A 
HETATM   12  S1  UNL     1      32.046  35.962  49.153  1.00  0.00    -0.101 SA
ENDBRANCH   6   8
ENDBRANCH   3   5
BRANCH   1  13
HETATM   13  N1  UNL     1      35.135  31.561  45.952  1.00  0.00    -0.262 N 
ATOM     14  H1  UNL     1      35.954  31.224  45.444  1.00  0.00     0.191 HD
BRANCH  13  15
HETATM   15  C1  UNL     1      33.972  31.596  45.402  1.00  0.00     0.369 C 
HETATM   16  O1  UNL     1      32.768  31.922  45.449  1.00  0.00    -0.282 OA
ENDBRANCH  13  15
ENDBRANCH   1  13
TORSDOF 4
ENDMDL
MODEL 4
REMARK VINA RESULT: -5.479826003      1.663      2.013
REMARK  4 active torsions:
REMARK  status: ('A' for Active; 'I' for Inactive)
REMARK    1  A    between atoms: C1_2  and  N1_3 
REMARK    2  A    between atoms: N1_3  and  N2_5 
REMARK    3  A    between atoms: N3_7  and  N4_9 
REMARK    4  A    between atoms: C2_11  and  C3_12 
ROOT
HETATM    1  N2  UNL     1      34.458  32.860  48.404  1.00  0.00    -0.226 N 
ATOM      2  H2  UNL     1      33.686  32.251  48.678  1.00  0.00     0.210 HD
HETATM    3  N3  UNL     1      34.884  33.725  49.235  1.00  0.00    -0.229 N 
ATOM      4  H3  UNL     1      35.654  34.342  48.977  1.00  0.00     0.210 HD
ENDROOT
BRANCH   3   5
HETATM    5  N4  UNL     1      34.311  33.830  50.473  1.00  0.00    -0.295 N 
HETATM    6  C2  UNL     1      33.460  34.612  50.908  1.00  0.00     0.127 C 
ATOM      7  H4  UNL     1      34.645  33.147  51.153  1.00  0.00     0.187 HD
BRANCH   6   8
HETATM    8  C3  UNL     1      32.814  35.696  50.136  1.00  0.00     0.021 A 
HETATM    9  C4  UNL     1      32.035  35.686  49.027  1.00  0.00     0.021 A 
HETATM   10  C5  UNL     1      31.584  36.860  48.546  1.00  0.00     0.008 A 
HETATM   11  C6  UNL     1      31.950  37.995  49.221  1.00  0.00     0.050 A 
HETATM   12  S1  UNL     1      32.902  37.393  50.492  1.00  0.00    -0.101 SA
ENDBRANCH   6   8
ENDBRANCH   3   5
BRANCH   1  13
HETATM   13  N1  UNL     1      35.010  32.716  47.129  1.00  0.00    -0.262 N 
ATOM     14  H1  UNL     1      35.895  33.158  46.880  1.00  0.00     0.191 HD
BRANCH  13  15
HETATM   15  C1  UNL     1      34.356  32.000  46.283  1.00  0.00     0.369 C 
HETATM   16  O1  UNL     1      33.388  31.868  45.505  1.00  0.00    -0.282 OA
ENDBRANCH  13  15
ENDBRANCH   1  13
TORSDOF 4
ENDMDL
MODEL 5
REMARK VINA RESULT: -5.462046024      3.294      4.593
REMARK  4 active torsions:
REMARK  status: ('A' for Active; 'I' for Inactive)
REMARK    1  A    between atoms: C1_2  and  N1_3 
REMARK    2  A    between atoms: N1_3  and  N2_5 
REMARK    3  A    between atoms: N3_7  and  N4_9 
REMARK    4  A    between atoms: C2_11  and  C3_12 
ROOT
HETATM    1  N2  UNL     1      34.448  33.802  50.989  1.00  0.00    -0.226 N 
ATOM      2  H2  UNL     1      34.711  32.818  50.943  1.00  0.00     0.210 HD
HETATM    3  N3  UNL     1      34.351  34.464  49.906  1.00  0.00    -0.229 N 
ATOM      4  H3  UNL     1      34.088  35.450  49.934  1.00  0.00     0.210 HD
ENDROOT
BRANCH   3   5
HETATM    5  N4  UNL     1      34.597  33.858  48.704  1.00  0.00    -0.295 N 
HETATM    6  C2  UNL     1      33.895  33.115  48.012  1.00  0.00     0.127 C 
ATOM      7  H4  UNL     1      35.519  34.053  48.313  1.00  0.00     0.187 HD
BRANCH   6   8
HETATM    8  C3  UNL     1      32.522  32.674  48.347  1.00  0.00     0.021 A 
HETATM    9  C4  UNL     1      31.995  31.453  48.611  1.00  0.00     0.021 A 
HETATM   10  C5  UNL     1      30.681  31.366  48.888  1.00  0.00     0.008 A 
HETATM   11  C6  UNL     1      29.961  32.532  48.883  1.00  0.00     0.050 A 
HETATM   12  S1  UNL     1      31.130  33.701  48.496  1.00  0.00    -0.101 SA
ENDBRANCH   6   8
ENDBRANCH   3   5
BRANCH   1  13
HETATM   13  N1  UNL     1      34.206  34.378  52.238  1.00  0.00    -0.262 N 
ATOM     14  H1  UNL     1      34.559  33.954  53.096  1.00  0.00     0.191 HD
BRANCH  13  15
HETATM   15  C1  UNL     1      33.521  35.467  52.260  1.00  0.00     0.369 C 
HETATM   16  O1  UNL     1      33.225  36.564  51.743  1.00  0.00    -0.282 OA
ENDBRANCH  13  15
ENDBRANCH   1  13
TORSDOF 4
ENDMDL
