MODEL 1
REMARK VINA RESULT: -7.395211655      0.000      0.000
REMARK  3 active torsions:
REMARK  status: ('A' for Active; 'I' for Inactive)
REMARK    1  A    between atoms: C2_3  and  C8_13 
REMARK    2  A    between atoms: N2_4  and  N3_6 
REMARK       I    between atoms: C8_13  and  N4_15 
REMARK    3  A    between atoms: N4_15  and  C9_17 
ROOT
HETATM    1  N1  UNL     1      59.573  11.805  25.688  1.00  0.00    -0.190 NA
HETATM    2  C1  UNL     1      60.070  12.707  25.149  1.00  0.00     0.125 C 
HETATM    3  C2  UNL     1      60.673  13.812  24.472  1.00  0.00     0.197 C 
HETATM    4  N2  UNL     1      61.948  13.898  24.438  1.00  0.00    -0.286 N 
ATOM      5  H2  UNL     1      62.400  14.679  23.962  1.00  0.00     0.188 HD
ENDROOT
BRANCH   3   6
HETATM    6  C8  UNL     1      59.851  14.830  23.830  1.00  0.00     0.286 C 
HETATM    7  O1  UNL     1      60.345  15.592  22.959  1.00  0.00    -0.265 OA
HETATM    8  N4  UNL     1      58.488  14.991  24.161  1.00  0.00    -0.301 N 
ATOM      9  H4  UNL     1      58.229  15.316  25.094  1.00  0.00     0.171 HD
BRANCH   8  10
HETATM   10  C9  UNL     1      57.544  14.727  23.277  1.00  0.00     0.151 A 
HETATM   11  N5  UNL     1      57.613  13.885  22.249  1.00  0.00    -0.346 N 
HETATM   12  C10 UNL     1      56.576  13.752  21.478  1.00  0.00     0.097 A 
ATOM     13  H5  UNL     1      58.465  13.353  22.070  1.00  0.00     0.167 HD
HETATM   14  C11 UNL     1      55.460  14.492  21.769  1.00  0.00     0.070 A 
HETATM   15  S1  UNL     1      55.961  15.354  23.154  1.00  0.00    -0.064 SA
ENDBRANCH   8  10
ENDBRANCH   3   6
BRANCH   4  16
HETATM   16  N3  UNL     1      62.708  12.913  25.059  1.00  0.00    -0.308 N 
HETATM   17  C3  UNL     1      63.960  13.001  25.283  1.00  0.00     0.004 C 
HETATM   18  C4  UNL     1      64.782  11.965  25.942  1.00  0.00     0.054 C 
HETATM   19  C7  UNL     1      64.866  14.121  24.953  1.00  0.00     0.054 C 
HETATM   20  C5  UNL     1      65.729  12.793  26.785  1.00  0.00     0.006 C 
HETATM   21  C6  UNL     1      66.088  13.914  25.837  1.00  0.00     0.006 C 
ATOM     22  H3  UNL     1      62.232  12.061  25.355  1.00  0.00     0.186 HD
ENDBRANCH   4  16
TORSDOF 3
ENDMDL
MODEL 2
REMARK VINA RESULT: -7.366092776      4.644      7.516
REMARK  3 active torsions:
REMARK  status: ('A' for Active; 'I' for Inactive)
REMARK    1  A    between atoms: C2_3  and  C8_13 
REMARK    2  A    between atoms: N2_4  and  N3_6 
REMARK       I    between atoms: C8_13  and  N4_15 
REMARK    3  A    between atoms: N4_15  and  C9_17 
ROOT
HETATM    1  N1  UNL     1      60.926   9.688  24.969  1.00  0.00    -0.190 NA
HETATM    2  C1  UNL     1      61.896  10.303  25.142  1.00  0.00     0.125 C 
HETATM    3  C2  UNL     1      63.092  11.053  25.368  1.00  0.00     0.197 C 
HETATM    4  N2  UNL     1      63.049  12.328  25.292  1.00  0.00    -0.286 N 
ATOM      5  H2  UNL     1      63.890  12.884  25.449  1.00  0.00     0.188 HD
ENDROOT
BRANCH   3   6
HETATM    6  C8  UNL     1      64.346  10.378  25.682  1.00  0.00     0.286 C 
HETATM    7  O1  UNL     1      64.393   9.122  25.753  1.00  0.00    -0.265 OA
HETATM    8  N4  UNL     1      65.534  11.105  25.913  1.00  0.00    -0.301 N 
ATOM      9  H4  UNL     1      65.607  11.706  26.734  1.00  0.00     0.171 HD
BRANCH   8  10
HETATM   10  C9  UNL     1      66.551  11.014  25.077  1.00  0.00     0.151 A 
HETATM   11  N5  UNL     1      66.520  10.627  23.804  1.00  0.00    -0.346 N 
HETATM   12  C10 UNL     1      67.630  10.600  23.130  1.00  0.00     0.097 A 
ATOM     13  H5  UNL     1      65.639  10.357  23.366  1.00  0.00     0.167 HD
HETATM   14  C11 UNL     1      68.781  10.975  23.773  1.00  0.00     0.070 A 
HETATM   15  S1  UNL     1      68.206  11.352  25.335  1.00  0.00    -0.064 SA
ENDBRANCH   8  10
ENDBRANCH   3   6
BRANCH   4  16
HETATM   16  N3  UNL     1      61.840  12.946  24.992  1.00  0.00    -0.308 N 
HETATM   17  C3  UNL     1      61.723  14.156  24.608  1.00  0.00     0.004 C 
HETATM   18  C4  UNL     1      60.446  14.827  24.285  1.00  0.00     0.054 C 
HETATM   19  C7  UNL     1      62.795  15.151  24.400  1.00  0.00     0.054 C 
HETATM   20  C5  UNL     1      60.826  15.683  23.094  1.00  0.00     0.006 C 
HETATM   21  C6  UNL     1      62.172  16.224  23.519  1.00  0.00     0.006 C 
ATOM     22  H3  UNL     1      60.987  12.393  25.085  1.00  0.00     0.186 HD
ENDBRANCH   4  16
TORSDOF 3
ENDMDL
MODEL 3
REMARK VINA RESULT: -7.243664914      4.471      7.356
REMARK  3 active torsions:
REMARK  status: ('A' for Active; 'I' for Inactive)
REMARK    1  A    between atoms: C2_3  and  C8_13 
REMARK    2  A    between atoms: N2_4  and  N3_6 
REMARK       I    between atoms: C8_13  and  N4_15 
REMARK    3  A    between atoms: N4_15  and  C9_17 
ROOT
HETATM    1  N1  UNL     1      60.133   9.939  26.132  1.00  0.00    -0.190 NA
HETATM    2  C1  UNL     1      61.218  10.320  25.961  1.00  0.00     0.125 C 
HETATM    3  C2  UNL     1      62.555  10.785  25.767  1.00  0.00     0.197 C 
HETATM    4  N2  UNL     1      62.742  11.950  25.276  1.00  0.00    -0.286 N 
ATOM      5  H2  UNL     1      63.687  12.303  25.128  1.00  0.00     0.188 HD
ENDROOT
BRANCH   3   6
HETATM    6  C8  UNL     1      63.694   9.947  26.122  1.00  0.00     0.286 C 
HETATM    7  O1  UNL     1      63.537   8.934  26.853  1.00  0.00    -0.265 OA
HETATM    8  N4  UNL     1      64.996  10.242  25.662  1.00  0.00    -0.301 N 
ATOM      9  H4  UNL     1      65.467  11.087  25.986  1.00  0.00     0.171 HD
BRANCH   8  10
HETATM   10  C9  UNL     1      65.609   9.435  24.817  1.00  0.00     0.151 A 
HETATM   11  N5  UNL     1      66.261   8.310  25.101  1.00  0.00    -0.346 N 
HETATM   12  C10 UNL     1      66.807   7.641  24.132  1.00  0.00     0.097 A 
ATOM     13  H5  UNL     1      66.330   7.980  26.064  1.00  0.00     0.167 HD
HETATM   14  C11 UNL     1      66.680   8.134  22.859  1.00  0.00     0.070 A 
HETATM   15  S1  UNL     1      65.771   9.554  23.121  1.00  0.00    -0.064 SA
ENDBRANCH   8  10
ENDBRANCH   3   6
BRANCH   4  16
HETATM   16  N3  UNL     1      61.637  12.729  24.947  1.00  0.00    -0.308 N 
HETATM   17  C3  UNL     1      61.692  13.965  24.637  1.00  0.00     0.004 C 
HETATM   18  C4  UNL     1      60.529  14.805  24.284  1.00  0.00     0.054 C 
HETATM   19  C7  UNL     1      62.887  14.830  24.556  1.00  0.00     0.054 C 
HETATM   20  C5  UNL     1      61.086  15.675  23.175  1.00  0.00     0.006 C 
HETATM   21  C6  UNL     1      62.456  16.021  23.712  1.00  0.00     0.006 C 
ATOM     22  H3  UNL     1      60.721  12.281  24.954  1.00  0.00     0.186 HD
ENDBRANCH   4  16
TORSDOF 3
ENDMDL
MODEL 4
REMARK VINA RESULT: -7.217713760      3.304      6.946
REMARK  3 active torsions:
REMARK  status: ('A' for Active; 'I' for Inactive)
REMARK    1  A    between atoms: C2_3  and  C8_13 
REMARK    2  A    between atoms: N2_4  and  N3_6 
REMARK       I    between atoms: C8_13  and  N4_15 
REMARK    3  A    between atoms: N4_15  and  C9_17 
ROOT
HETATM    1  N1  UNL     1      61.801  16.258  23.818  1.00  0.00    -0.190 NA
HETATM    2  C1  UNL     1      61.376  15.227  24.145  1.00  0.00     0.125 C 
HETATM    3  C2  UNL     1      60.861  13.952  24.534  1.00  0.00     0.197 C 
HETATM    4  N2  UNL     1      59.596  13.795  24.623  1.00  0.00    -0.286 N 
ATOM      5  H2  UNL     1      59.205  12.894  24.900  1.00  0.00     0.188 HD
ENDROOT
BRANCH   3   6
HETATM    6  C8  UNL     1      61.761  12.844  24.827  1.00  0.00     0.286 C 
HETATM    7  O1  UNL     1      62.967  13.061  25.117  1.00  0.00    -0.265 OA
HETATM    8  N4  UNL     1      61.314  11.505  24.797  1.00  0.00    -0.301 N 
ATOM      9  H4  UNL     1      61.027  11.088  23.910  1.00  0.00     0.171 HD
BRANCH   8  10
HETATM   10  C9  UNL     1      61.263  10.787  25.902  1.00  0.00     0.151 A 
HETATM   11  N5  UNL     1      60.244  10.681  26.751  1.00  0.00    -0.346 N 
HETATM   12  C10 UNL     1      60.376   9.920  27.796  1.00  0.00     0.097 A 
ATOM     13  H5  UNL     1      59.375  11.188  26.585  1.00  0.00     0.167 HD
HETATM   14  C11 UNL     1      61.566   9.263  27.967  1.00  0.00     0.070 A 
HETATM   15  S1  UNL     1      62.451   9.777  26.601  1.00  0.00    -0.064 SA
ENDBRANCH   8  10
ENDBRANCH   3   6
BRANCH   4  16
HETATM   16  N3  UNL     1      58.760  14.869  24.337  1.00  0.00    -0.308 N 
HETATM   17  C3  UNL     1      57.857  14.861  23.437  1.00  0.00     0.004 C 
HETATM   18  C4  UNL     1      56.961  15.993  23.121  1.00  0.00     0.054 C 
HETATM   19  C7  UNL     1      57.497  13.760  22.519  1.00  0.00     0.054 C 
HETATM   20  C5  UNL     1      55.648  15.293  22.834  1.00  0.00     0.006 C 
HETATM   21  C6  UNL     1      56.103  14.106  22.015  1.00  0.00     0.006 C 
ATOM     22  H3  UNL     1      58.877  15.721  24.885  1.00  0.00     0.186 HD
ENDBRANCH   4  16
TORSDOF 3
ENDMDL
MODEL 5
REMARK VINA RESULT: -7.203501130      4.588      7.480
REMARK  3 active torsions:
REMARK  status: ('A' for Active; 'I' for Inactive)
REMARK    1  A    between atoms: C2_3  and  C8_13 
REMARK    2  A    between atoms: N2_4  and  N3_6 
REMARK       I    between atoms: C8_13  and  N4_15 
REMARK    3  A    between atoms: N4_15  and  C9_17 
ROOT
HETATM    1  N1  UNL     1      61.893   9.915  26.676  1.00  0.00    -0.190 NA
HETATM    2  C1  UNL     1      62.701  10.416  26.008  1.00  0.00     0.125 C 
HETATM    3  C2  UNL     1      63.706  11.033  25.200  1.00  0.00     0.197 C 
HETATM    4  N2  UNL     1      63.408  12.081  24.533  1.00  0.00    -0.286 N 
ATOM      5  H2  UNL     1      64.108  12.538  23.948  1.00  0.00     0.188 HD
ENDROOT
BRANCH   3   6
HETATM    6  C8  UNL     1      65.052  10.478  25.134  1.00  0.00     0.286 C 
HETATM    7  O1  UNL     1      65.332   9.410  25.738  1.00  0.00    -0.265 OA
HETATM    8  N4  UNL     1      66.074  11.115  24.397  1.00  0.00    -0.301 N 
ATOM      9  H4  UNL     1      66.422  12.026  24.698  1.00  0.00     0.171 HD
BRANCH   8  10
HETATM   10  C9  UNL     1      66.584  10.545  23.322  1.00  0.00     0.151 A 
HETATM   11  N5  UNL     1      67.685  10.900  22.663  1.00  0.00    -0.346 N 
HETATM   12  C10 UNL     1      68.037  10.216  21.617  1.00  0.00     0.097 A 
ATOM     13  H5  UNL     1      68.242  11.696  22.975  1.00  0.00     0.167 HD
HETATM   14  C11 UNL     1      67.250   9.157  21.247  1.00  0.00     0.070 A 
HETATM   15  S1  UNL     1      66.026   9.196  22.435  1.00  0.00    -0.064 SA
ENDBRANCH   8  10
ENDBRANCH   3   6
BRANCH   4  16
HETATM   16  N3  UNL     1      62.116  12.589  24.615  1.00  0.00    -0.308 N 
HETATM   17  C3  UNL     1      61.823  13.829  24.560  1.00  0.00     0.004 C 
HETATM   18  C4  UNL     1      60.456  14.385  24.645  1.00  0.00     0.054 C 
HETATM   19  C7  UNL     1      62.743  14.975  24.403  1.00  0.00     0.054 C 
HETATM   20  C5  UNL     1      60.508  15.522  23.645  1.00  0.00     0.006 C 
HETATM   21  C6  UNL     1      61.864  16.125  23.933  1.00  0.00     0.006 C 
ATOM     22  H3  UNL     1      61.350  11.925  24.727  1.00  0.00     0.186 HD
ENDBRANCH   4  16
TORSDOF 3
ENDMDL
