MODEL 1
REMARK VINA RESULT: -5.527694549      0.000      0.000
REMARK  3 active torsions:
REMARK  status: ('A' for Active; 'I' for Inactive)
REMARK    1  A    between atoms: C2_2  and  N1_3 
REMARK    2  A    between atoms: N1_3  and  C3_5 
REMARK    3  A    between atoms: N4_11  and  C5_12 
ROOT
HETATM    1  C3  UNL     1      67.764  10.251  23.816  1.00  0.00     0.696 A 
HETATM    2  N2  UNL     1      68.047  11.021  22.751  1.00  0.00    -0.185 N 
ATOM      3  H2  UNL     1      68.503  11.933  22.760  1.00  0.00     0.185 HD
HETATM    4  C4  UNL     1      67.609  10.352  21.677  1.00  0.00     0.215 A 
HETATM    5  N3  UNL     1      67.078   9.205  22.114  1.00  0.00    -0.279 N 
ATOM      6  H3  UNL     1      66.666   8.497  21.506  1.00  0.00     0.188 HD
HETATM    7  N4  UNL     1      67.153   9.103  23.428  1.00  0.00    -0.117 N 
ENDROOT
BRANCH   7   8
HETATM    8  C5  UNL     1      66.698   8.027  24.288  1.00  0.00     0.142 C 
HETATM    9  C6  UNL     1      66.074   6.972  23.440  1.00  0.00     0.102 C 
HETATM   10  S1  UNL     1      64.344   7.579  23.324  1.00  0.00    -0.161 SA
HETATM   11  C7  UNL     1      64.525   8.981  24.499  1.00  0.00     0.063 C 
HETATM   12  C8  UNL     1      63.330   9.141  25.362  1.00  0.00     0.089 C 
HETATM   13  C10 UNL     1      65.680   8.491  25.303  1.00  0.00     0.036 C 
HETATM   14  S2  UNL     1      63.516   7.721  26.510  1.00  0.00    -0.167 SA
HETATM   15  C9  UNL     1      65.267   7.323  26.121  1.00  0.00     0.082 C 
ENDBRANCH   7   8
BRANCH   1  16
HETATM   16  N1  UNL     1      68.044  10.572  25.044  1.00  0.00    -0.225 N 
ATOM     17  H1  UNL     1      68.561   9.917  25.629  1.00  0.00     0.177 HD
BRANCH  16  18
HETATM   18  C2  UNL     1      67.638  11.831  25.589  1.00  0.00     0.134 C 
HETATM   19  C1  UNL     1      68.634  12.411  26.568  1.00  0.00     0.027 C 
ENDBRANCH  16  18
ENDBRANCH   1  16
TORSDOF 3
ENDMDL
MODEL 2
REMARK VINA RESULT: -5.427063891      6.374      7.917
REMARK  3 active torsions:
REMARK  status: ('A' for Active; 'I' for Inactive)
REMARK    1  A    between atoms: C2_2  and  N1_3 
REMARK    2  A    between atoms: N1_3  and  C3_5 
REMARK    3  A    between atoms: N4_11  and  C5_12 
ROOT
HETATM    1  C3  UNL     1      61.476  11.379  24.958  1.00  0.00     0.696 A 
HETATM    2  N2  UNL     1      62.622  11.429  25.659  1.00  0.00    -0.185 N 
ATOM      3  H2  UNL     1      62.911  10.796  26.405  1.00  0.00     0.185 HD
HETATM    4  C4  UNL     1      63.308  12.475  25.183  1.00  0.00     0.215 A 
HETATM    5  N3  UNL     1      62.568  13.027  24.215  1.00  0.00    -0.279 N 
ATOM      6  H3  UNL     1      62.849  13.846  23.676  1.00  0.00     0.188 HD
HETATM    7  N4  UNL     1      61.428  12.381  24.044  1.00  0.00    -0.117 N 
ENDROOT
BRANCH   7   8
HETATM    8  C5  UNL     1      60.356  12.654  23.108  1.00  0.00     0.142 C 
HETATM    9  C6  UNL     1      60.874  13.554  22.039  1.00  0.00     0.102 C 
HETATM   10  S1  UNL     1      60.601  15.206  22.795  1.00  0.00    -0.161 SA
HETATM   11  C7  UNL     1      59.694  14.618  24.282  1.00  0.00     0.063 C 
HETATM   12  C8  UNL     1      58.572  15.517  24.641  1.00  0.00     0.089 C 
HETATM   13  C10 UNL     1      59.171  13.321  23.765  1.00  0.00     0.036 C 
HETATM   14  S2  UNL     1      57.350  15.118  23.329  1.00  0.00    -0.167 SA
HETATM   15  C9  UNL     1      58.138  13.571  22.728  1.00  0.00     0.082 C 
ENDBRANCH   7   8
BRANCH   1  16
HETATM   16  N1  UNL     1      60.548  10.487  25.140  1.00  0.00    -0.225 N 
ATOM     17  H1  UNL     1      60.533   9.652  24.555  1.00  0.00     0.177 HD
BRANCH  16  18
HETATM   18  C2  UNL     1      59.547  10.657  26.148  1.00  0.00     0.134 C 
HETATM   19  C1  UNL     1      59.942  10.084  27.491  1.00  0.00     0.027 C 
ENDBRANCH  16  18
ENDBRANCH   1  16
TORSDOF 3
ENDMDL
MODEL 3
REMARK VINA RESULT: -5.424684101      6.369      7.902
REMARK  3 active torsions:
REMARK  status: ('A' for Active; 'I' for Inactive)
REMARK    1  A    between atoms: C2_2  and  N1_3 
REMARK    2  A    between atoms: N1_3  and  C3_5 
REMARK    3  A    between atoms: N4_11  and  C5_12 
ROOT
HETATM    1  C3  UNL     1      59.120  13.229  23.044  1.00  0.00     0.696 A 
HETATM    2  N2  UNL     1      59.392  13.482  21.752  1.00  0.00    -0.185 N 
ATOM      3  H2  UNL     1      58.724  13.743  21.026  1.00  0.00     0.185 HD
HETATM    4  C4  UNL     1      60.713  13.322  21.608  1.00  0.00     0.215 A 
HETATM    5  N3  UNL     1      61.204  12.980  22.804  1.00  0.00    -0.279 N 
ATOM      6  H3  UNL     1      62.190  12.795  22.987  1.00  0.00     0.188 HD
HETATM    7  N4  UNL     1      60.254  12.911  23.719  1.00  0.00    -0.117 N 
ENDROOT
BRANCH   7   8
HETATM    8  C5  UNL     1      60.363  12.576  25.126  1.00  0.00     0.142 C 
HETATM    9  C6  UNL     1      61.804  12.407  25.464  1.00  0.00     0.102 C 
HETATM   10  S1  UNL     1      62.067  10.637  25.048  1.00  0.00    -0.161 SA
HETATM   11  C7  UNL     1      60.312  10.238  24.677  1.00  0.00     0.063 C 
HETATM   12  C8  UNL     1      59.928   8.897  25.179  1.00  0.00     0.089 C 
HETATM   13  C10 UNL     1      59.635  11.300  25.474  1.00  0.00     0.036 C 
HETATM   14  S2  UNL     1      59.823   9.200  26.987  1.00  0.00    -0.167 SA
HETATM   15  C9  UNL     1      59.816  11.036  26.924  1.00  0.00     0.082 C 
ENDBRANCH   7   8
BRANCH   1  16
HETATM   16  N1  UNL     1      57.930  13.285  23.564  1.00  0.00    -0.225 N 
ATOM     17  H1  UNL     1      57.745  12.811  24.448  1.00  0.00     0.177 HD
BRANCH  16  18
HETATM   18  C2  UNL     1      56.875  14.003  22.918  1.00  0.00     0.134 C 
HETATM   19  C1  UNL     1      56.863  15.480  23.245  1.00  0.00     0.027 C 
ENDBRANCH  16  18
ENDBRANCH   1  16
TORSDOF 3
ENDMDL
MODEL 4
REMARK VINA RESULT: -5.417370457      2.330      3.818
REMARK  3 active torsions:
REMARK  status: ('A' for Active; 'I' for Inactive)
REMARK    1  A    between atoms: C2_2  and  N1_3 
REMARK    2  A    between atoms: N1_3  and  C3_5 
REMARK    3  A    between atoms: N4_11  and  C5_12 
ROOT
HETATM    1  C3  UNL     1      66.546  12.543  25.747  1.00  0.00     0.696 A 
HETATM    2  N2  UNL     1      67.584  12.825  26.552  1.00  0.00    -0.185 N 
ATOM      3  H2  UNL     1      67.618  13.541  27.278  1.00  0.00     0.185 HD
HETATM    4  C4  UNL     1      68.564  11.979  26.211  1.00  0.00     0.215 A 
HETATM    5  N3  UNL     1      68.099  11.214  25.218  1.00  0.00    -0.279 N 
ATOM      6  H3  UNL     1      68.638  10.477  24.763  1.00  0.00     0.188 HD
HETATM    7  N4  UNL     1      66.856  11.529  24.900  1.00  0.00    -0.117 N 
ENDROOT
BRANCH   7   8
HETATM    8  C5  UNL     1      65.997  10.946  23.888  1.00  0.00     0.142 C 
HETATM    9  C6  UNL     1      64.669  10.659  24.499  1.00  0.00     0.102 C 
HETATM   10  S1  UNL     1      64.946   8.982  25.194  1.00  0.00    -0.161 SA
HETATM   11  C7  UNL     1      66.624   8.728  24.489  1.00  0.00     0.063 C 
HETATM   12  C8  UNL     1      66.826   7.337  24.019  1.00  0.00     0.089 C 
HETATM   13  C10 UNL     1      66.556   9.660  23.327  1.00  0.00     0.036 C 
HETATM   14  S2  UNL     1      65.817   7.319  22.486  1.00  0.00    -0.167 SA
HETATM   15  C9  UNL     1      65.604   9.136  22.315  1.00  0.00     0.082 C 
ENDBRANCH   7   8
BRANCH   1  16
HETATM   16  N1  UNL     1      65.404  13.164  25.784  1.00  0.00    -0.225 N 
ATOM     17  H1  UNL     1      64.613  12.732  26.262  1.00  0.00     0.177 HD
BRANCH  16  18
HETATM   18  C2  UNL     1      65.238  14.442  25.166  1.00  0.00     0.134 C 
HETATM   19  C1  UNL     1      63.821  14.710  24.708  1.00  0.00     0.027 C 
ENDBRANCH  16  18
ENDBRANCH   1  16
TORSDOF 3
ENDMDL
MODEL 5
REMARK VINA RESULT: -5.374119096      6.705      7.534
REMARK  3 active torsions:
REMARK  status: ('A' for Active; 'I' for Inactive)
REMARK    1  A    between atoms: C2_2  and  N1_3 
REMARK    2  A    between atoms: N1_3  and  C3_5 
REMARK    3  A    between atoms: N4_11  and  C5_12 
ROOT
HETATM    1  C3  UNL     1      59.509  14.330  23.854  1.00  0.00     0.696 A 
HETATM    2  N2  UNL     1      58.679  14.452  22.804  1.00  0.00    -0.185 N 
ATOM      3  H2  UNL     1      58.569  15.269  22.204  1.00  0.00     0.185 HD
HETATM    4  C4  UNL     1      58.026  13.288  22.704  1.00  0.00     0.215 A 
HETATM    5  N3  UNL     1      58.473  12.498  23.686  1.00  0.00    -0.279 N 
ATOM      6  H3  UNL     1      58.145  11.545  23.848  1.00  0.00     0.188 HD
HETATM    7  N4  UNL     1      59.389  13.102  24.420  1.00  0.00    -0.117 N 
ENDROOT
BRANCH   7   8
HETATM    8  C5  UNL     1      60.117  12.599  25.569  1.00  0.00     0.142 C 
HETATM    9  C6  UNL     1      61.573  12.611  25.254  1.00  0.00     0.102 C 
HETATM   10  S1  UNL     1      61.779  10.978  24.438  1.00  0.00    -0.161 SA
HETATM   11  C7  UNL     1      60.074  10.365  24.744  1.00  0.00     0.063 C 
HETATM   12  C8  UNL     1      60.054   8.924  25.094  1.00  0.00     0.089 C 
HETATM   13  C10 UNL     1      59.716  11.189  25.934  1.00  0.00     0.036 C 
HETATM   14  S2  UNL     1      60.707   8.956  26.810  1.00  0.00    -0.167 SA
HETATM   15  C9  UNL     1      60.521  10.760  27.106  1.00  0.00     0.082 C 
ENDBRANCH   7   8
BRANCH   1  16
HETATM   16  N1  UNL     1      60.313  15.267  24.262  1.00  0.00    -0.225 N 
ATOM     17  H1  UNL     1      60.228  15.621  25.214  1.00  0.00     0.177 HD
BRANCH  16  18
HETATM   18  C2  UNL     1      61.316  15.808  23.397  1.00  0.00     0.134 C 
HETATM   19  C1  UNL     1      62.695  15.833  24.018  1.00  0.00     0.027 C 
ENDBRANCH  16  18
ENDBRANCH   1  16
TORSDOF 3
ENDMDL
