MODEL 1
REMARK VINA RESULT: -7.769971757      0.000      0.000
REMARK  4 active torsions:
REMARK  status: ('A' for Active; 'I' for Inactive)
REMARK       I    between atoms: C2_2  and  N1_4 
REMARK    1  A    between atoms: C4_7  and  C5_8 
REMARK    2  A    between atoms: C10_14  and  C11_15 
REMARK    3  A    between atoms: C11_15  and  O4_16 
REMARK    4  A    between atoms: N2_18  and  O5_20 
ROOT
HETATM    1  C1  UNL     1      62.187  15.959  23.470  1.00  0.00     0.118 C 
HETATM    2  C2  UNL     1      60.916  15.262  23.159  1.00  0.00     0.225 C 
HETATM    3  O1  UNL     1      60.068  15.797  22.406  1.00  0.00    -0.273 OA
HETATM    4  N1  UNL     1      60.604  13.984  23.685  1.00  0.00    -0.251 N 
HETATM    5  C3  UNL     1      61.415  13.182  24.562  1.00  0.00     0.258 C 
HETATM    6  O2  UNL     1      62.557  13.433  25.016  1.00  0.00    -0.270 OA
HETATM    7  C4  UNL     1      60.608  11.985  24.817  1.00  0.00     0.221 C 
HETATM    8  O3  UNL     1      59.310  12.484  24.706  1.00  0.00    -0.343 OA
HETATM    9  C10 UNL     1      59.419  13.180  23.479  1.00  0.00     0.311 C 
ENDROOT
BRANCH   9  10
HETATM   10  C11 UNL     1      58.213  13.978  23.207  1.00  0.00     0.186 C 
HETATM   11  N2  UNL     1      57.589  13.758  22.089  1.00  0.00    -0.247 N 
ATOM     12  H2  UNL     1      56.751  14.301  21.881  1.00  0.00     0.196 HD
BRANCH  10  13
HETATM   13  O4  UNL     1      57.697  14.937  24.041  1.00  0.00    -0.345 OA
ATOM     14  H4  UNL     1      57.004  14.795  24.675  1.00  0.00     0.219 HD
ENDBRANCH  10  13
BRANCH  11  15
HETATM   15  O5  UNL     1      58.012  12.822  21.174  1.00  0.00    -0.288 OA
ATOM     16  H5  UNL     1      57.410  12.321  20.637  1.00  0.00     0.244 HD
ENDBRANCH  11  15
ENDBRANCH   9  10
BRANCH   7  17
HETATM   17  C5  UNL     1      60.875  11.322  26.126  1.00  0.00     0.024 C 
HETATM   18  C6  UNL     1      59.654  10.715  26.759  1.00  0.00     0.007 C 
HETATM   19  C7  UNL     1      60.098   9.442  27.451  1.00  0.00     0.000 C 
HETATM   20  C8  UNL     1      61.619   9.440  27.306  1.00  0.00     0.000 C 
HETATM   21  C9  UNL     1      61.777  10.116  25.965  1.00  0.00     0.007 C 
ENDBRANCH   7  17
TORSDOF 4
ENDMDL
MODEL 2
REMARK VINA RESULT: -7.695091327      4.008      6.587
REMARK  4 active torsions:
REMARK  status: ('A' for Active; 'I' for Inactive)
REMARK       I    between atoms: C2_2  and  N1_4 
REMARK    1  A    between atoms: C4_7  and  C5_8 
REMARK    2  A    between atoms: C10_14  and  C11_15 
REMARK    3  A    between atoms: C11_15  and  O4_16 
REMARK    4  A    between atoms: N2_18  and  O5_20 
ROOT
HETATM    1  C1  UNL     1      65.988   8.402  24.989  1.00  0.00     0.118 C 
HETATM    2  C2  UNL     1      64.762   8.554  25.808  1.00  0.00     0.225 C 
HETATM    3  O1  UNL     1      64.326   7.590  26.482  1.00  0.00    -0.273 OA
HETATM    4  N1  UNL     1      64.037   9.770  25.870  1.00  0.00    -0.251 N 
HETATM    5  C3  UNL     1      64.344  11.001  25.191  1.00  0.00     0.258 C 
HETATM    6  O2  UNL     1      65.312  11.255  24.434  1.00  0.00    -0.270 OA
HETATM    7  C4  UNL     1      63.264  11.914  25.578  1.00  0.00     0.221 C 
HETATM    8  O3  UNL     1      62.203  11.032  25.785  1.00  0.00    -0.343 OA
HETATM    9  C10 UNL     1      62.836  10.077  26.615  1.00  0.00     0.311 C 
ENDROOT
BRANCH   9  10
HETATM   10  C11 UNL     1      61.973   8.905  26.837  1.00  0.00     0.186 C 
HETATM   11  N2  UNL     1      61.784   8.526  28.065  1.00  0.00    -0.247 N 
ATOM     12  H2  UNL     1      61.190   7.715  28.241  1.00  0.00     0.196 HD
BRANCH  10  13
HETATM   13  O4  UNL     1      61.355   8.182  25.850  1.00  0.00    -0.345 OA
ATOM     14  H4  UNL     1      60.488   8.359  25.503  1.00  0.00     0.219 HD
ENDBRANCH  10  13
BRANCH  11  15
HETATM   15  O5  UNL     1      62.352   9.172  29.139  1.00  0.00    -0.288 OA
ATOM     16  H5  UNL     1      63.163   8.883  29.541  1.00  0.00     0.244 HD
ENDBRANCH  11  15
ENDBRANCH   9  10
BRANCH   7  17
HETATM   17  C5  UNL     1      62.961  12.978  24.579  1.00  0.00     0.024 C 
HETATM   18  C6  UNL     1      61.525  13.425  24.585  1.00  0.00     0.007 C 
HETATM   19  C7  UNL     1      61.521  14.913  24.302  1.00  0.00     0.000 C 
HETATM   20  C8  UNL     1      62.980  15.247  23.996  1.00  0.00     0.000 C 
HETATM   21  C9  UNL     1      63.690  14.266  24.899  1.00  0.00     0.007 C 
ENDBRANCH   7  17
TORSDOF 4
ENDMDL
MODEL 3
REMARK VINA RESULT: -7.613825965      3.017      5.708
REMARK  4 active torsions:
REMARK  status: ('A' for Active; 'I' for Inactive)
REMARK       I    between atoms: C2_2  and  N1_4 
REMARK    1  A    between atoms: C4_7  and  C5_8 
REMARK    2  A    between atoms: C10_14  and  C11_15 
REMARK    3  A    between atoms: C11_15  and  O4_16 
REMARK    4  A    between atoms: N2_18  and  O5_20 
ROOT
HETATM    1  C1  UNL     1      63.364   8.292  24.312  1.00  0.00     0.118 C 
HETATM    2  C2  UNL     1      62.316   8.826  25.215  1.00  0.00     0.225 C 
HETATM    3  O1  UNL     1      61.609   8.047  25.897  1.00  0.00    -0.273 OA
HETATM    4  N1  UNL     1      62.067  10.215  25.350  1.00  0.00    -0.251 N 
HETATM    5  C3  UNL     1      62.746  11.290  24.677  1.00  0.00     0.258 C 
HETATM    6  O2  UNL     1      63.698  11.224  23.863  1.00  0.00    -0.270 OA
HETATM    7  C4  UNL     1      62.078  12.504  25.154  1.00  0.00     0.221 C 
HETATM    8  O3  UNL     1      60.788  12.039  25.414  1.00  0.00    -0.343 OA
HETATM    9  C10 UNL     1      61.092  10.888  26.180  1.00  0.00     0.311 C 
ENDROOT
BRANCH   9  10
HETATM   10  C11 UNL     1      59.888  10.082  26.435  1.00  0.00     0.186 C 
HETATM   11  N2  UNL     1      59.797   9.492  27.590  1.00  0.00    -0.247 N 
ATOM     12  H2  UNL     1      58.970   8.927  27.786  1.00  0.00     0.196 HD
BRANCH  10  13
HETATM   13  O4  UNL     1      58.856   9.902  25.551  1.00  0.00    -0.345 OA
ATOM     14  H4  UNL     1      58.242  10.577  25.282  1.00  0.00     0.219 HD
ENDBRANCH  10  13
BRANCH  11  15
HETATM   15  O5  UNL     1      60.769   9.598  28.557  1.00  0.00    -0.288 OA
ATOM     16  H5  UNL     1      61.562   9.074  28.547  1.00  0.00     0.244 HD
ENDBRANCH  11  15
ENDBRANCH   9  10
BRANCH   7  17
HETATM   17  C5  UNL     1      62.110  13.649  24.200  1.00  0.00     0.024 C 
HETATM   18  C6  UNL     1      60.821  14.420  24.131  1.00  0.00     0.007 C 
HETATM   19  C7  UNL     1      61.184  15.877  23.936  1.00  0.00     0.000 C 
HETATM   20  C8  UNL     1      62.700  15.872  23.752  1.00  0.00     0.000 C 
HETATM   21  C9  UNL     1      63.089  14.716  24.644  1.00  0.00     0.007 C 
ENDBRANCH   7  17
TORSDOF 4
ENDMDL
MODEL 4
REMARK VINA RESULT: -7.471893332      5.113      7.319
REMARK  4 active torsions:
REMARK  status: ('A' for Active; 'I' for Inactive)
REMARK       I    between atoms: C2_2  and  N1_4 
REMARK    1  A    between atoms: C4_7  and  C5_8 
REMARK    2  A    between atoms: C10_14  and  C11_15 
REMARK    3  A    between atoms: C11_15  and  O4_16 
REMARK    4  A    between atoms: N2_18  and  O5_20 
ROOT
HETATM    1  C1  UNL     1      68.760  12.306  26.707  1.00  0.00     0.118 C 
HETATM    2  C2  UNL     1      68.195  11.453  25.633  1.00  0.00     0.225 C 
HETATM    3  O1  UNL     1      68.952  10.771  24.902  1.00  0.00    -0.273 OA
HETATM    4  N1  UNL     1      66.802  11.368  25.386  1.00  0.00    -0.251 N 
HETATM    5  C3  UNL     1      65.750  12.051  26.090  1.00  0.00     0.258 C 
HETATM    6  O2  UNL     1      65.844  12.833  27.066  1.00  0.00    -0.270 OA
HETATM    7  C4  UNL     1      64.520  11.632  25.411  1.00  0.00     0.221 C 
HETATM    8  O3  UNL     1      64.974  11.399  24.112  1.00  0.00    -0.343 OA
HETATM    9  C10 UNL     1      66.101  10.589  24.388  1.00  0.00     0.311 C 
ENDROOT
BRANCH   9  10
HETATM   10  C11 UNL     1      66.897  10.348  23.173  1.00  0.00     0.186 C 
HETATM   11  N2  UNL     1      67.142   9.112  22.855  1.00  0.00    -0.247 N 
ATOM     12  H2  UNL     1      67.693   8.923  22.018  1.00  0.00     0.196 HD
BRANCH  10  13
HETATM   13  O4  UNL     1      67.399  11.323  22.352  1.00  0.00    -0.345 OA
ATOM     14  H4  UNL     1      67.609  11.210  21.432  1.00  0.00     0.219 HD
ENDBRANCH  10  13
BRANCH  11  15
HETATM   15  O5  UNL     1      66.691   8.048  23.603  1.00  0.00    -0.288 OA
ATOM     16  H5  UNL     1      65.841   7.648  23.463  1.00  0.00     0.244 HD
ENDBRANCH  11  15
ENDBRANCH   9  10
BRANCH   7  17
HETATM   17  C5  UNL     1      63.405  12.619  25.478  1.00  0.00     0.024 C 
HETATM   18  C6  UNL     1      63.724  13.940  24.835  1.00  0.00     0.007 C 
HETATM   19  C7  UNL     1      62.450  14.437  24.183  1.00  0.00     0.000 C 
HETATM   20  C8  UNL     1      61.385  13.426  24.607  1.00  0.00     0.000 C 
HETATM   21  C9  UNL     1      62.207  12.161  24.673  1.00  0.00     0.007 C 
ENDBRANCH   7  17
TORSDOF 4
ENDMDL
MODEL 5
REMARK VINA RESULT: -7.216074391      2.359      4.022
REMARK  4 active torsions:
REMARK  status: ('A' for Active; 'I' for Inactive)
REMARK       I    between atoms: C2_2  and  N1_4 
REMARK    1  A    between atoms: C4_7  and  C5_8 
REMARK    2  A    between atoms: C10_14  and  C11_15 
REMARK    3  A    between atoms: C11_15  and  O4_16 
REMARK    4  A    between atoms: N2_18  and  O5_20 
ROOT
HETATM    1  C1  UNL     1      59.012  10.324  25.451  1.00  0.00     0.118 C 
HETATM    2  C2  UNL     1      59.049  11.619  24.730  1.00  0.00     0.225 C 
HETATM    3  O1  UNL     1      58.032  12.040  24.129  1.00  0.00    -0.273 OA
HETATM    4  N1  UNL     1      60.211  12.430  24.686  1.00  0.00    -0.251 N 
HETATM    5  C3  UNL     1      61.485  12.158  25.297  1.00  0.00     0.258 C 
HETATM    6  O2  UNL     1      61.819  11.176  26.002  1.00  0.00    -0.270 OA
HETATM    7  C4  UNL     1      62.327  13.295  24.914  1.00  0.00     0.221 C 
HETATM    8  O3  UNL     1      61.776  13.658  23.684  1.00  0.00    -0.343 OA
HETATM    9  C10 UNL     1      60.406  13.706  24.033  1.00  0.00     0.311 C 
ENDROOT
BRANCH   9  10
HETATM   10  C11 UNL     1      59.557  13.888  22.845  1.00  0.00     0.186 C 
HETATM   11  N2  UNL     1      58.501  14.635  22.973  1.00  0.00    -0.247 N 
ATOM     12  H2  UNL     1      57.898  14.773  22.162  1.00  0.00     0.196 HD
BRANCH  10  13
HETATM   13  O4  UNL     1      59.791  13.331  21.614  1.00  0.00    -0.345 OA
ATOM     14  H4  UNL     1      59.304  13.528  20.823  1.00  0.00     0.219 HD
ENDBRANCH  10  13
BRANCH  11  15
HETATM   15  O5  UNL     1      58.162  15.246  24.158  1.00  0.00    -0.288 OA
ATOM     16  H5  UNL     1      57.489  15.914  24.217  1.00  0.00     0.244 HD
ENDBRANCH  11  15
ENDBRANCH   9  10
BRANCH   7  17
HETATM   17  C5  UNL     1      63.785  12.993  24.841  1.00  0.00     0.024 C 
HETATM   18  C6  UNL     1      64.663  14.209  24.949  1.00  0.00     0.007 C 
HETATM   19  C7  UNL     1      65.897  13.799  25.725  1.00  0.00     0.000 C 
HETATM   20  C8  UNL     1      65.744  12.290  25.916  1.00  0.00     0.000 C 
HETATM   21  C9  UNL     1      64.243  12.170  26.027  1.00  0.00     0.007 C 
ENDBRANCH   7  17
TORSDOF 4
ENDMDL
