MODEL 1
REMARK VINA RESULT: -7.119026611      0.000      0.000
REMARK  2 active torsions:
REMARK  status: ('A' for Active; 'I' for Inactive)
REMARK    1  A    between atoms: C2_2  and  C3_3 
REMARK    2  A    between atoms: C13_16  and  O4_17 
ROOT
HETATM    1  C3  UNL     1       2.845   8.332   0.138  1.00  0.00     0.050 C 
HETATM    2  C4  UNL     1       3.169   7.521  -1.126  1.00  0.00     0.083 C 
HETATM    3  C5  UNL     1       2.171   7.769  -2.211  1.00  0.00     0.198 C 
HETATM    4  C6  UNL     1       2.805   7.396  -3.561  1.00  0.00     0.071 C 
HETATM    5  C7  UNL     1       3.214   5.962  -3.460  1.00  0.00     0.007 C 
HETATM    6  C8  UNL     1       1.961   5.144  -3.238  1.00  0.00     0.026 C 
HETATM    7  C9  UNL     1       1.094   5.704  -2.145  1.00  0.00     0.171 C 
HETATM    8  O1  UNL     1       1.006   7.059  -2.105  1.00  0.00    -0.353 OA
HETATM    9  O2  UNL     1       1.838   9.120  -2.345  1.00  0.00    -0.200 OA
HETATM   10  O3  UNL     1       1.557   9.712  -1.234  1.00  0.00    -0.226 OA
HETATM   11  C10 UNL     1       2.600   9.731  -0.312  1.00  0.00     0.103 C 
HETATM   12  C11 UNL     1       3.850  10.265  -0.990  1.00  0.00     0.044 C 
HETATM   13  C12 UNL     1       5.004  10.373  -0.048  1.00  0.00     0.035 C 
HETATM   14  C13 UNL     1       4.651  11.122   1.222  1.00  0.00     0.118 C 
HETATM   15  C14 UNL     1       3.305  11.775   0.978  1.00  0.00     0.035 C 
HETATM   16  C15 UNL     1       2.261  10.695   0.781  1.00  0.00     0.044 C 
ENDROOT
BRANCH   1  17
HETATM   17  C2  UNL     1       1.664   7.680   0.739  1.00  0.00    -0.029 C 
HETATM   18  C1  UNL     1       1.598   6.520   1.325  1.00  0.00     0.007 C 
ENDBRANCH   1  17
BRANCH  14  19
HETATM   19  O4  UNL     1       5.560  12.137   1.501  1.00  0.00    -0.396 OA
ATOM     20  H4  UNL     1       5.963  12.030   2.354  1.00  0.00     0.210 HD
ENDBRANCH  14  19
TORSDOF 2
ENDMDL
MODEL 2
REMARK VINA RESULT: -7.116645023      4.677      7.077
REMARK  2 active torsions:
REMARK  status: ('A' for Active; 'I' for Inactive)
REMARK    1  A    between atoms: C2_2  and  C3_3 
REMARK    2  A    between atoms: C13_16  and  O4_17 
ROOT
HETATM    1  C3  UNL     1      -2.466   9.899   0.147  1.00  0.00     0.050 C 
HETATM    2  C4  UNL     1      -1.013   9.519  -0.181  1.00  0.00     0.083 C 
HETATM    3  C5  UNL     1      -0.219   9.253   1.057  1.00  0.00     0.198 C 
HETATM    4  C6  UNL     1       0.995   8.385   0.689  1.00  0.00     0.071 C 
HETATM    5  C7  UNL     1       1.763   9.141  -0.347  1.00  0.00     0.007 C 
HETATM    6  C8  UNL     1       2.229  10.435   0.284  1.00  0.00     0.026 C 
HETATM    7  C9  UNL     1       1.122  11.157   1.002  1.00  0.00     0.171 C 
HETATM    8  O1  UNL     1       0.261  10.366   1.692  1.00  0.00    -0.353 OA
HETATM    9  O2  UNL     1      -0.918   8.492   1.997  1.00  0.00    -0.200 OA
HETATM   10  O3  UNL     1      -2.119   8.901   2.228  1.00  0.00    -0.226 OA
HETATM   11  C10 UNL     1      -2.957   8.879   1.116  1.00  0.00     0.103 C 
HETATM   12  C11 UNL     1      -2.892   7.505   0.473  1.00  0.00     0.044 C 
HETATM   13  C12 UNL     1      -3.812   7.383  -0.697  1.00  0.00     0.035 C 
HETATM   14  C13 UNL     1      -5.228   7.821  -0.374  1.00  0.00     0.118 C 
HETATM   15  C14 UNL     1      -5.302   7.962   1.134  1.00  0.00     0.035 C 
HETATM   16  C15 UNL     1      -4.370   9.073   1.571  1.00  0.00     0.044 C 
ENDROOT
BRANCH   1  17
HETATM   17  C2  UNL     1      -2.405  11.269   0.696  1.00  0.00    -0.029 C 
HETATM   18  C1  UNL     1      -3.354  11.946   1.273  1.00  0.00     0.007 C 
ENDBRANCH   1  17
BRANCH  14  19
HETATM   19  O4  UNL     1      -6.168   6.868  -0.749  1.00  0.00    -0.396 OA
ATOM     20  H4  UNL     1      -5.795   6.199  -1.310  1.00  0.00     0.210 HD
ENDBRANCH  14  19
TORSDOF 2
ENDMDL
MODEL 3
REMARK VINA RESULT: -6.996123998      3.516      6.252
REMARK  2 active torsions:
REMARK  status: ('A' for Active; 'I' for Inactive)
REMARK    1  A    between atoms: C2_2  and  C3_3 
REMARK    2  A    between atoms: C13_16  and  O4_17 
ROOT
HETATM    1  C3  UNL     1      -0.365   9.242   1.218  1.00  0.00     0.050 C 
HETATM    2  C4  UNL     1       0.358  10.562   1.529  1.00  0.00     0.083 C 
HETATM    3  C5  UNL     1       0.839  11.234   0.283  1.00  0.00     0.198 C 
HETATM    4  C6  UNL     1       1.047  12.728   0.576  1.00  0.00     0.071 C 
HETATM    5  C7  UNL     1       2.027  12.811   1.701  1.00  0.00     0.007 C 
HETATM    6  C8  UNL     1       3.325  12.197   1.224  1.00  0.00     0.026 C 
HETATM    7  C9  UNL     1       3.121  10.858   0.570  1.00  0.00     0.171 C 
HETATM    8  O1  UNL     1       2.019  10.755  -0.218  1.00  0.00    -0.353 OA
HETATM    9  O2  UNL     1      -0.105  11.209  -0.747  1.00  0.00    -0.200 OA
HETATM   10  O3  UNL     1      -0.639  10.054  -0.952  1.00  0.00    -0.226 OA
HETATM   11  C10 UNL     1      -1.343   9.544   0.136  1.00  0.00     0.103 C 
HETATM   12  C11 UNL     1      -2.325  10.594   0.626  1.00  0.00     0.044 C 
HETATM   13  C12 UNL     1      -3.163  10.100   1.759  1.00  0.00     0.035 C 
HETATM   14  C13 UNL     1      -3.820   8.766   1.461  1.00  0.00     0.118 C 
HETATM   15  C14 UNL     1      -3.637   8.518  -0.024  1.00  0.00     0.035 C 
HETATM   16  C15 UNL     1      -2.159   8.375  -0.321  1.00  0.00     0.044 C 
ENDROOT
BRANCH   1  17
HETATM   17  C2  UNL     1       0.694   8.291   0.823  1.00  0.00    -0.029 C 
HETATM   18  C1  UNL     1       0.828   7.046   1.174  1.00  0.00     0.007 C 
ENDBRANCH   1  17
BRANCH  14  19
HETATM   19  O4  UNL     1      -5.187   8.788   1.713  1.00  0.00    -0.396 OA
ATOM     20  H4  UNL     1      -5.474   8.020   2.191  1.00  0.00     0.210 HD
ENDBRANCH  14  19
TORSDOF 2
ENDMDL
MODEL 4
REMARK VINA RESULT: -6.802143911      3.141      4.406
REMARK  2 active torsions:
REMARK  status: ('A' for Active; 'I' for Inactive)
REMARK    1  A    between atoms: C2_2  and  C3_3 
REMARK    2  A    between atoms: C13_16  and  O4_17 
ROOT
HETATM    1  C3  UNL     1       0.339  10.019  -0.647  1.00  0.00     0.050 C 
HETATM    2  C4  UNL     1      -1.128   9.583  -0.502  1.00  0.00     0.083 C 
HETATM    3  C5  UNL     1      -1.290   8.528   0.545  1.00  0.00     0.198 C 
HETATM    4  C6  UNL     1      -2.751   8.524   1.020  1.00  0.00     0.071 C 
HETATM    5  C7  UNL     1      -3.595   8.282  -0.189  1.00  0.00     0.007 C 
HETATM    6  C8  UNL     1      -3.230   6.919  -0.736  1.00  0.00     0.026 C 
HETATM    7  C9  UNL     1      -1.743   6.732  -0.868  1.00  0.00     0.171 C 
HETATM    8  O1  UNL     1      -0.996   7.254   0.139  1.00  0.00    -0.353 OA
HETATM    9  O2  UNL     1      -0.549   8.791   1.699  1.00  0.00    -0.200 OA
HETATM   10  O3  UNL     1       0.678   9.123   1.481  1.00  0.00    -0.226 OA
HETATM   11  C10 UNL     1       0.834  10.287   0.733  1.00  0.00     0.103 C 
HETATM   12  C11 UNL     1       0.003  11.393   1.357  1.00  0.00     0.044 C 
HETATM   13  C12 UNL     1       0.164  12.695   0.643  1.00  0.00     0.035 C 
HETATM   14  C13 UNL     1       1.618  13.080   0.453  1.00  0.00     0.118 C 
HETATM   15  C14 UNL     1       2.430  12.142   1.325  1.00  0.00     0.035 C 
HETATM   16  C15 UNL     1       2.263  10.726   0.815  1.00  0.00     0.044 C 
ENDROOT
BRANCH   1  17
HETATM   17  C2  UNL     1       1.023   8.897  -1.323  1.00  0.00    -0.029 C 
HETATM   18  C1  UNL     1       2.006   8.951  -2.173  1.00  0.00     0.007 C 
ENDBRANCH   1  17
BRANCH  14  19
HETATM   19  O4  UNL     1       1.876  14.376   0.885  1.00  0.00    -0.396 OA
ATOM     20  H4  UNL     1       2.701  14.707   0.549  1.00  0.00     0.210 HD
ENDBRANCH  14  19
TORSDOF 2
ENDMDL
MODEL 5
REMARK VINA RESULT: -6.717647084      3.673      5.671
REMARK  2 active torsions:
REMARK  status: ('A' for Active; 'I' for Inactive)
REMARK    1  A    between atoms: C2_2  and  C3_3 
REMARK    2  A    between atoms: C13_16  and  O4_17 
ROOT
HETATM    1  C3  UNL     1      -0.758  10.490   0.459  1.00  0.00     0.050 C 
HETATM    2  C4  UNL     1       0.050   9.836  -0.673  1.00  0.00     0.083 C 
HETATM    3  C5  UNL     1       1.094   8.908  -0.139  1.00  0.00     0.198 C 
HETATM    4  C6  UNL     1       1.479   7.911  -1.244  1.00  0.00     0.071 C 
HETATM    5  C7  UNL     1       1.956   8.722  -2.405  1.00  0.00     0.007 C 
HETATM    6  C8  UNL     1       3.181   9.489  -1.955  1.00  0.00     0.026 C 
HETATM    7  C9  UNL     1       2.967  10.197  -0.645  1.00  0.00     0.171 C 
HETATM    8  O1  UNL     1       2.249   9.509   0.280  1.00  0.00    -0.353 OA
HETATM    9  O2  UNL     1       0.625   8.105   0.904  1.00  0.00    -0.200 OA
HETATM   10  O3  UNL     1      -0.018   8.745   1.821  1.00  0.00    -0.226 OA
HETATM   11  C10 UNL     1      -1.170   9.387   1.373  1.00  0.00     0.103 C 
HETATM   12  C11 UNL     1      -2.024   8.394   0.605  1.00  0.00     0.044 C 
HETATM   13  C12 UNL     1      -3.311   8.993   0.140  1.00  0.00     0.035 C 
HETATM   14  C13 UNL     1      -4.067   9.689   1.256  1.00  0.00     0.118 C 
HETATM   15  C14 UNL     1      -3.392   9.284   2.552  1.00  0.00     0.035 C 
HETATM   16  C15 UNL     1      -1.975   9.819   2.558  1.00  0.00     0.044 C 
ENDROOT
BRANCH   1  17
HETATM   17  C2  UNL     1       0.150  11.476   1.079  1.00  0.00    -0.029 C 
HETATM   18  C1  UNL     1       0.466  12.661   0.647  1.00  0.00     0.007 C 
ENDBRANCH   1  17
BRANCH  14  19
HETATM   19  O4  UNL     1      -5.391   9.273   1.329  1.00  0.00    -0.396 OA
ATOM     20  H4  UNL     1      -5.922   9.863   1.850  1.00  0.00     0.210 HD
ENDBRANCH  14  19
TORSDOF 2
ENDMDL
