MODEL 1
REMARK VINA RESULT: -7.692630239      0.000      0.000
REMARK  2 active torsions:
REMARK  status: ('A' for Active; 'I' for Inactive)
REMARK    1  A    between atoms: N1_1  and  C1_4 
REMARK    2  A    between atoms: C9_13  and  N3_14 
ROOT
HETATM    1  C1  UNL     1       1.649   8.670   0.308  1.00  0.00     0.031 C 
HETATM    2  C2  UNL     1       1.145   7.378   0.910  1.00  0.00     0.059 C 
HETATM    3  C3  UNL     1       2.205   6.338   0.778  1.00  0.00     0.008 C 
HETATM    4  C4  UNL     1       2.208   5.824  -0.649  1.00  0.00     0.020 C 
HETATM    5  C5  UNL     1       3.406   6.405  -1.334  1.00  0.00     0.123 C 
HETATM    6  N2  UNL     1       3.294   7.842  -1.487  1.00  0.00    -0.378 N 
HETATM    7  C6  UNL     1       3.848   8.220  -2.781  1.00  0.00     0.123 C 
HETATM    8  C7  UNL     1       4.050   9.718  -2.860  1.00  0.00     0.026 C 
HETATM    9  C8  UNL     1       4.434  10.263  -1.523  1.00  0.00     0.061 C 
HETATM   10  C9  UNL     1       3.284  10.090  -0.573  1.00  0.00     0.038 C 
HETATM   11  C16 UNL     1       2.756   8.851  -0.605  1.00  0.00     0.075 C 
ENDROOT
BRANCH  10  12
HETATM   12  N3  UNL     1       2.801  11.085   0.287  1.00  0.00    -0.364 N 
HETATM   13  C10 UNL     1       3.334  11.583   1.332  1.00  0.00    -0.006 C 
HETATM   14  C11 UNL     1       2.610  12.652   2.100  1.00  0.00     0.053 C 
HETATM   15  C15 UNL     1       4.655  11.203   1.867  1.00  0.00     0.130 C 
HETATM   16  C12 UNL     1       2.899  12.558   3.578  1.00  0.00     0.013 C 
HETATM   17  C13 UNL     1       4.366  12.873   3.801  1.00  0.00     0.079 C 
HETATM   18  C14 UNL     1       5.148  12.399   2.649  1.00  0.00     0.132 C 
HETATM   19  O1  UNL     1       6.168  12.944   2.321  1.00  0.00    -0.298 OA
ATOM     20  H3  UNL     1       1.889  11.468   0.040  1.00  0.00     0.165 HD
ENDBRANCH  10  12
BRANCH   1  21
HETATM   21  N1  UNL     1       1.028   9.739   0.640  1.00  0.00    -0.400 N 
ATOM     22  H12 UNL     1       1.154  10.039   1.607  1.00  0.00     0.156 HD
ATOM     23  H11 UNL     1       0.470  10.189  -0.086  1.00  0.00     0.156 HD
ENDBRANCH   1  21
TORSDOF 2
ENDMDL
MODEL 2
REMARK VINA RESULT: -7.423620915      2.741      6.036
REMARK  2 active torsions:
REMARK  status: ('A' for Active; 'I' for Inactive)
REMARK    1  A    between atoms: N1_1  and  C1_4 
REMARK    2  A    between atoms: C9_13  and  N3_14 
ROOT
HETATM    1  C1  UNL     1       0.982  10.134  -0.069  1.00  0.00     0.031 C 
HETATM    2  C2  UNL     1      -0.065  10.960   0.645  1.00  0.00     0.059 C 
HETATM    3  C3  UNL     1       0.406  12.372   0.724  1.00  0.00     0.008 C 
HETATM    4  C4  UNL     1       1.435  12.481   1.832  1.00  0.00     0.020 C 
HETATM    5  C5  UNL     1       2.780  12.605   1.186  1.00  0.00     0.123 C 
HETATM    6  N2  UNL     1       3.155  11.391   0.488  1.00  0.00    -0.378 N 
HETATM    7  C6  UNL     1       4.582  11.164   0.677  1.00  0.00     0.123 C 
HETATM    8  C7  UNL     1       5.087  10.105  -0.280  1.00  0.00     0.026 C 
HETATM    9  C8  UNL     1       4.352  10.183  -1.579  1.00  0.00     0.061 C 
HETATM   10  C9  UNL     1       2.912   9.826  -1.351  1.00  0.00     0.038 C 
HETATM   11  C16 UNL     1       2.370  10.467  -0.297  1.00  0.00     0.075 C 
ENDROOT
BRANCH  10  12
HETATM   12  N3  UNL     1       2.173   8.941  -2.147  1.00  0.00    -0.364 N 
HETATM   13  C10 UNL     1       2.481   7.779  -2.568  1.00  0.00    -0.006 C 
HETATM   14  C11 UNL     1       1.511   7.014  -3.422  1.00  0.00     0.053 C 
HETATM   15  C15 UNL     1       3.746   7.081  -2.268  1.00  0.00     0.130 C 
HETATM   16  C12 UNL     1       2.228   6.149  -4.430  1.00  0.00     0.013 C 
HETATM   17  C13 UNL     1       2.987   5.071  -3.681  1.00  0.00     0.079 C 
HETATM   18  C14 UNL     1       3.447   5.604  -2.389  1.00  0.00     0.132 C 
HETATM   19  O1  UNL     1       3.589   4.889  -1.433  1.00  0.00    -0.298 OA
ATOM     20  H3  UNL     1       1.252   9.276  -2.430  1.00  0.00     0.165 HD
ENDBRANCH  10  12
BRANCH   1  21
HETATM   21  N1  UNL     1       0.603   9.001  -0.530  1.00  0.00    -0.400 N 
ATOM     22  H12 UNL     1       1.321   8.462  -1.015  1.00  0.00     0.156 HD
ATOM     23  H11 UNL     1      -0.370   8.743  -0.369  1.00  0.00     0.156 HD
ENDBRANCH   1  21
TORSDOF 2
ENDMDL
MODEL 3
REMARK VINA RESULT: -7.404763345      3.200      4.493
REMARK  2 active torsions:
REMARK  status: ('A' for Active; 'I' for Inactive)
REMARK    1  A    between atoms: N1_1  and  C1_4 
REMARK    2  A    between atoms: C9_13  and  N3_14 
ROOT
HETATM    1  C1  UNL     1      -1.827  10.806   1.036  1.00  0.00     0.031 C 
HETATM    2  C2  UNL     1      -3.216  11.039   1.585  1.00  0.00     0.059 C 
HETATM    3  C3  UNL     1      -3.760   9.745   2.088  1.00  0.00     0.008 C 
HETATM    4  C4  UNL     1      -4.226   8.919   0.904  1.00  0.00     0.020 C 
HETATM    5  C5  UNL     1      -3.221   7.830   0.691  1.00  0.00     0.123 C 
HETATM    6  N2  UNL     1      -1.941   8.356   0.261  1.00  0.00    -0.378 N 
HETATM    7  C6  UNL     1      -1.371   7.450  -0.729  1.00  0.00     0.123 C 
HETATM    8  C7  UNL     1       0.088   7.773  -0.973  1.00  0.00     0.026 C 
HETATM    9  C8  UNL     1       0.734   8.251   0.286  1.00  0.00     0.061 C 
HETATM   10  C9  UNL     1       0.121   9.563   0.685  1.00  0.00     0.038 C 
HETATM   11  C16 UNL     1      -1.225   9.548   0.650  1.00  0.00     0.075 C 
ENDROOT
BRANCH  10  12
HETATM   12  N3  UNL     1       0.846  10.696   1.080  1.00  0.00    -0.364 N 
HETATM   13  C10 UNL     1       2.098  10.918   1.019  1.00  0.00    -0.006 C 
HETATM   14  C11 UNL     1       2.648  12.226   1.515  1.00  0.00     0.053 C 
HETATM   15  C15 UNL     1       3.096   9.981   0.468  1.00  0.00     0.130 C 
HETATM   16  C12 UNL     1       4.025  12.054   2.107  1.00  0.00     0.013 C 
HETATM   17  C13 UNL     1       4.977  11.653   0.997  1.00  0.00     0.079 C 
HETATM   18  C14 UNL     1       4.259  10.831   0.010  1.00  0.00     0.132 C 
HETATM   19  O1  UNL     1       4.581  10.824  -1.148  1.00  0.00    -0.298 OA
ATOM     20  H3  UNL     1       0.288  11.453   1.474  1.00  0.00     0.165 HD
ENDBRANCH  10  12
BRANCH   1  21
HETATM   21  N1  UNL     1      -1.087  11.840   0.888  1.00  0.00    -0.400 N 
ATOM     22  H12 UNL     1      -1.584  12.722   0.768  1.00  0.00     0.156 HD
ATOM     23  H11 UNL     1      -0.079  11.687   0.907  1.00  0.00     0.156 HD
ENDBRANCH   1  21
TORSDOF 2
ENDMDL
MODEL 4
REMARK VINA RESULT: -7.391849603      1.163      1.244
REMARK  2 active torsions:
REMARK  status: ('A' for Active; 'I' for Inactive)
REMARK    1  A    between atoms: N1_1  and  C1_4 
REMARK    2  A    between atoms: C9_13  and  N3_14 
ROOT
HETATM    1  C1  UNL     1       0.807   9.560  -0.830  1.00  0.00     0.031 C 
HETATM    2  C2  UNL     1      -0.279   8.509  -0.786  1.00  0.00     0.059 C 
HETATM    3  C3  UNL     1       0.350   7.160  -0.858  1.00  0.00     0.008 C 
HETATM    4  C4  UNL     1       0.741   6.881  -2.297  1.00  0.00     0.020 C 
HETATM    5  C5  UNL     1       2.229   7.020  -2.394  1.00  0.00     0.123 C 
HETATM    6  N2  UNL     1       2.656   8.388  -2.180  1.00  0.00    -0.378 N 
HETATM    7  C6  UNL     1       3.760   8.682  -3.087  1.00  0.00     0.123 C 
HETATM    8  C7  UNL     1       4.449   9.970  -2.693  1.00  0.00     0.026 C 
HETATM    9  C8  UNL     1       4.436  10.135  -1.208  1.00  0.00     0.061 C 
HETATM   10  C9  UNL     1       3.019  10.311  -0.745  1.00  0.00     0.038 C 
HETATM   11  C16 UNL     1       2.176   9.402  -1.271  1.00  0.00     0.075 C 
ENDROOT
BRANCH  10  12
HETATM   12  N3  UNL     1       2.590  11.294   0.158  1.00  0.00    -0.364 N 
HETATM   13  C10 UNL     1       3.105  11.659   1.264  1.00  0.00    -0.006 C 
HETATM   14  C11 UNL     1       2.450  12.746   2.067  1.00  0.00     0.053 C 
HETATM   15  C15 UNL     1       4.343  11.102   1.843  1.00  0.00     0.130 C 
HETATM   16  C12 UNL     1       2.634  12.523   3.549  1.00  0.00     0.013 C 
HETATM   17  C13 UNL     1       4.108  12.661   3.875  1.00  0.00     0.079 C 
HETATM   18  C14 UNL     1       4.908  12.182   2.736  1.00  0.00     0.132 C 
HETATM   19  O1  UNL     1       5.998  12.633   2.506  1.00  0.00    -0.298 OA
ATOM     20  H3  UNL     1       1.740  11.789  -0.111  1.00  0.00     0.165 HD
ENDBRANCH  10  12
BRANCH   1  21
HETATM   21  N1  UNL     1       0.487  10.734  -0.432  1.00  0.00    -0.400 N 
ATOM     22  H12 UNL     1       0.192  10.803   0.542  1.00  0.00     0.156 HD
ATOM     23  H11 UNL     1       0.558  11.485  -1.119  1.00  0.00     0.156 HD
ENDBRANCH   1  21
TORSDOF 2
ENDMDL
MODEL 5
REMARK VINA RESULT: -7.263207892      3.078      6.234
REMARK  2 active torsions:
REMARK  status: ('A' for Active; 'I' for Inactive)
REMARK    1  A    between atoms: N1_1  and  C1_4 
REMARK    2  A    between atoms: C9_13  and  N3_14 
ROOT
HETATM    1  C1  UNL     1       0.185   9.250  -0.578  1.00  0.00     0.031 C 
HETATM    2  C2  UNL     1      -1.038   9.866   0.062  1.00  0.00     0.059 C 
HETATM    3  C3  UNL     1      -0.837  11.339   0.168  1.00  0.00     0.008 C 
HETATM    4  C4  UNL     1       0.080  11.623   1.342  1.00  0.00     0.020 C 
HETATM    5  C5  UNL     1       1.420  11.994   0.786  1.00  0.00     0.123 C 
HETATM    6  N2  UNL     1       2.053  10.874   0.117  1.00  0.00    -0.378 N 
HETATM    7  C6  UNL     1       3.483  10.907   0.401  1.00  0.00     0.123 C 
HETATM    8  C7  UNL     1       4.233   9.966  -0.517  1.00  0.00     0.026 C 
HETATM    9  C8  UNL     1       3.583   9.921  -1.862  1.00  0.00     0.061 C 
HETATM   10  C9  UNL     1       2.219   9.308  -1.729  1.00  0.00     0.038 C 
HETATM   11  C16 UNL     1       1.503   9.831  -0.715  1.00  0.00     0.075 C 
ENDROOT
BRANCH  10  12
HETATM   12  N3  UNL     1       1.706   8.311  -2.569  1.00  0.00    -0.364 N 
HETATM   13  C10 UNL     1       2.230   7.208  -2.931  1.00  0.00    -0.006 C 
HETATM   14  C11 UNL     1       1.477   6.293  -3.855  1.00  0.00     0.053 C 
HETATM   15  C15 UNL     1       3.552   6.718  -2.495  1.00  0.00     0.130 C 
HETATM   16  C12 UNL     1       2.413   5.540  -4.768  1.00  0.00     0.013 C 
HETATM   17  C13 UNL     1       3.253   4.601  -3.924  1.00  0.00     0.079 C 
HETATM   18  C14 UNL     1       3.498   5.212  -2.608  1.00  0.00     0.132 C 
HETATM   19  O1  UNL     1       3.655   4.537  -1.626  1.00  0.00    -0.298 OA
ATOM     20  H3  UNL     1       0.777   8.495  -2.946  1.00  0.00     0.165 HD
ENDBRANCH  10  12
BRANCH   1  21
HETATM   21  N1  UNL     1       0.049   8.071  -1.060  1.00  0.00    -0.400 N 
ATOM     22  H12 UNL     1       0.722   7.380  -0.727  1.00  0.00     0.156 HD
ATOM     23  H11 UNL     1      -0.712   7.933  -1.724  1.00  0.00     0.156 HD
ENDBRANCH   1  21
TORSDOF 2
ENDMDL
