MODEL 1
REMARK VINA RESULT: -7.739009476      0.000      0.000
REMARK  2 active torsions:
REMARK  status: ('A' for Active; 'I' for Inactive)
REMARK    1  A    between atoms: C2_3  and  O2_5 
REMARK    2  A    between atoms: O2_5  and  C3_6 
ROOT
HETATM    1  N1  UNL     1       5.379  11.821   2.820  1.00  0.00    -0.186 NA
HETATM    2  C1  UNL     1       5.046  11.488   1.758  1.00  0.00     0.170 C 
HETATM    3  C2  UNL     1       4.640  11.067   0.439  1.00  0.00     0.365 C 
HETATM    4  O1  UNL     1       5.414  10.580  -0.396  1.00  0.00    -0.247 OA
ENDROOT
BRANCH   3   5
HETATM    5  O2  UNL     1       3.359  11.160  -0.036  1.00  0.00    -0.304 OA
BRANCH   5   6
HETATM    6  C3  UNL     1       2.275  10.375   0.355  1.00  0.00     0.133 C 
HETATM    7  C4  UNL     1       1.463  11.225   1.295  1.00  0.00     0.032 C 
HETATM    8  C5  UNL     1       0.717  12.351   0.730  1.00  0.00     0.003 C 
HETATM    9  C6  UNL     1      -0.769  12.159   0.568  1.00  0.00     0.004 C 
HETATM   10  C7  UNL     1      -1.356  11.116   1.455  1.00  0.00     0.027 C 
HETATM   11  C8  UNL     1      -2.839  11.287   1.413  1.00  0.00    -0.031 C 
HETATM   12  C9  UNL     1      -3.702  10.278   1.373  1.00  0.00    -0.031 C 
HETATM   13  C10 UNL     1      -3.287   8.849   1.366  1.00  0.00     0.027 C 
HETATM   14  C11 UNL     1      -3.132   8.333  -0.062  1.00  0.00     0.011 C 
HETATM   15  C12 UNL     1      -2.434   6.993   0.023  1.00  0.00     0.078 C 
HETATM   16  C13 UNL     1      -0.971   7.104   0.096  1.00  0.00     0.127 C 
HETATM   17  O3  UNL     1      -0.342   6.564   1.016  1.00  0.00    -0.298 OA
HETATM   18  C14 UNL     1      -0.182   7.851  -0.903  1.00  0.00     0.078 C 
HETATM   19  C15 UNL     1       1.170   8.240  -0.338  1.00  0.00     0.010 C 
HETATM   20  C16 UNL     1       1.529   9.685  -0.707  1.00  0.00     0.033 C 
ENDBRANCH   5   6
ENDBRANCH   3   5
TORSDOF 2
ENDMDL
MODEL 2
REMARK VINA RESULT: -7.570455095      3.525      7.095
REMARK  2 active torsions:
REMARK  status: ('A' for Active; 'I' for Inactive)
REMARK    1  A    between atoms: C2_3  and  O2_5 
REMARK    2  A    between atoms: O2_5  and  C3_6 
ROOT
HETATM    1  N1  UNL     1      -7.009   9.204   1.428  1.00  0.00    -0.186 NA
HETATM    2  C1  UNL     1      -5.878   9.365   1.643  1.00  0.00     0.170 C 
HETATM    3  C2  UNL     1      -4.476   9.563   1.919  1.00  0.00     0.365 C 
HETATM    4  O1  UNL     1      -4.036   9.918   3.021  1.00  0.00    -0.247 OA
ENDROOT
BRANCH   3   5
HETATM    5  O2  UNL     1      -3.480   9.383   0.998  1.00  0.00    -0.304 OA
BRANCH   5   6
HETATM    6  C3  UNL     1      -2.121   9.633   1.191  1.00  0.00     0.133 C 
HETATM    7  C4  UNL     1      -1.435   8.296   1.097  1.00  0.00     0.032 C 
HETATM    8  C5  UNL     1      -1.349   7.661  -0.220  1.00  0.00     0.003 C 
HETATM    9  C6  UNL     1      -0.013   7.728  -0.913  1.00  0.00     0.004 C 
HETATM   10  C7  UNL     1       1.145   7.941   0.001  1.00  0.00     0.027 C 
HETATM   11  C8  UNL     1       2.382   7.651  -0.784  1.00  0.00    -0.031 C 
HETATM   12  C9  UNL     1       3.500   8.365  -0.699  1.00  0.00    -0.031 C 
HETATM   13  C10 UNL     1       3.649   9.544   0.197  1.00  0.00     0.027 C 
HETATM   14  C11 UNL     1       3.279  10.833  -0.532  1.00  0.00     0.011 C 
HETATM   15  C12 UNL     1       3.172  11.921   0.514  1.00  0.00     0.078 C 
HETATM   16  C13 UNL     1       1.860  11.967   1.171  1.00  0.00     0.127 C 
HETATM   17  O3  UNL     1       1.769  11.913   2.405  1.00  0.00    -0.298 OA
HETATM   18  C14 UNL     1       0.597  12.080   0.414  1.00  0.00     0.078 C 
HETATM   19  C15 UNL     1      -0.574  11.597   1.246  1.00  0.00     0.010 C 
HETATM   20  C16 UNL     1      -1.523  10.726   0.414  1.00  0.00     0.033 C 
ENDBRANCH   5   6
ENDBRANCH   3   5
TORSDOF 2
ENDMDL
MODEL 3
REMARK VINA RESULT: -7.401727776      3.368      6.453
REMARK  2 active torsions:
REMARK  status: ('A' for Active; 'I' for Inactive)
REMARK    1  A    between atoms: C2_3  and  O2_5 
REMARK    2  A    between atoms: O2_5  and  C3_6 
ROOT
HETATM    1  N1  UNL     1      -5.821   6.497  -0.644  1.00  0.00    -0.186 NA
HETATM    2  C1  UNL     1      -4.678   6.671  -0.759  1.00  0.00     0.170 C 
HETATM    3  C2  UNL     1      -3.259   6.886  -0.910  1.00  0.00     0.365 C 
HETATM    4  O1  UNL     1      -2.594   6.442  -1.855  1.00  0.00    -0.247 OA
ENDROOT
BRANCH   3   5
HETATM    5  O2  UNL     1      -2.493   7.601  -0.029  1.00  0.00    -0.304 OA
BRANCH   5   6
HETATM    6  C3  UNL     1      -1.281   8.230  -0.311  1.00  0.00     0.133 C 
HETATM    7  C4  UNL     1      -1.590   9.701  -0.409  1.00  0.00     0.032 C 
HETATM    8  C5  UNL     1      -1.919  10.416   0.825  1.00  0.00     0.003 C 
HETATM    9  C6  UNL     1      -0.836  11.289   1.406  1.00  0.00     0.004 C 
HETATM   10  C7  UNL     1       0.195  11.727   0.423  1.00  0.00     0.027 C 
HETATM   11  C8  UNL     1       0.976  12.825   1.067  1.00  0.00    -0.031 C 
HETATM   12  C9  UNL     1       2.293  12.962   0.959  1.00  0.00    -0.031 C 
HETATM   13  C10 UNL     1       3.149  12.029   0.176  1.00  0.00     0.027 C 
HETATM   14  C11 UNL     1       3.675  10.901   1.059  1.00  0.00     0.011 C 
HETATM   15  C12 UNL     1       4.274   9.859   0.140  1.00  0.00     0.078 C 
HETATM   16  C13 UNL     1       3.282   8.918  -0.396  1.00  0.00     0.127 C 
HETATM   17  O3  UNL     1       3.173   8.742  -1.616  1.00  0.00    -0.298 OA
HETATM   18  C14 UNL     1       2.374   8.143   0.474  1.00  0.00     0.078 C 
HETATM   19  C15 UNL     1       1.158   7.675  -0.300  1.00  0.00     0.010 C 
HETATM   20  C16 UNL     1      -0.125   7.863   0.519  1.00  0.00     0.033 C 
ENDBRANCH   5   6
ENDBRANCH   3   5
TORSDOF 2
ENDMDL
MODEL 4
REMARK VINA RESULT: -7.365169807      1.514      1.649
REMARK  2 active torsions:
REMARK  status: ('A' for Active; 'I' for Inactive)
REMARK    1  A    between atoms: C2_3  and  O2_5 
REMARK    2  A    between atoms: O2_5  and  C3_6 
ROOT
HETATM    1  N1  UNL     1       4.978   9.983  -2.971  1.00  0.00    -0.186 NA
HETATM    2  C1  UNL     1       4.753  10.206  -1.853  1.00  0.00     0.170 C 
HETATM    3  C2  UNL     1       4.482  10.483  -0.463  1.00  0.00     0.365 C 
HETATM    4  O1  UNL     1       5.296  10.284   0.448  1.00  0.00    -0.247 OA
ENDROOT
BRANCH   3   5
HETATM    5  O2  UNL     1       3.300  10.995   0.001  1.00  0.00    -0.304 OA
BRANCH   5   6
HETATM    6  C3  UNL     1       2.184  10.261   0.402  1.00  0.00     0.133 C 
HETATM    7  C4  UNL     1       1.407  11.159   1.328  1.00  0.00     0.032 C 
HETATM    8  C5  UNL     1       0.709  12.306   0.745  1.00  0.00     0.003 C 
HETATM    9  C6  UNL     1      -0.783  12.174   0.583  1.00  0.00     0.004 C 
HETATM   10  C7  UNL     1      -1.415  11.169   1.485  1.00  0.00     0.027 C 
HETATM   11  C8  UNL     1      -2.888  11.402   1.438  1.00  0.00    -0.031 C 
HETATM   12  C9  UNL     1      -3.793  10.430   1.411  1.00  0.00    -0.031 C 
HETATM   13  C10 UNL     1      -3.438   8.984   1.427  1.00  0.00     0.027 C 
HETATM   14  C11 UNL     1      -3.303   8.441   0.006  1.00  0.00     0.011 C 
HETATM   15  C12 UNL     1      -2.661   7.074   0.113  1.00  0.00     0.078 C 
HETATM   16  C13 UNL     1      -1.196   7.126   0.187  1.00  0.00     0.127 C 
HETATM   17  O3  UNL     1      -0.590   6.574   1.115  1.00  0.00    -0.298 OA
HETATM   18  C14 UNL     1      -0.375   7.824  -0.823  1.00  0.00     0.078 C 
HETATM   19  C15 UNL     1       0.992   8.165  -0.261  1.00  0.00     0.010 C 
HETATM   20  C16 UNL     1       1.411   9.588  -0.651  1.00  0.00     0.033 C 
ENDBRANCH   5   6
ENDBRANCH   3   5
TORSDOF 2
ENDMDL
MODEL 5
REMARK VINA RESULT: -7.355286417      3.502      7.141
REMARK  2 active torsions:
REMARK  status: ('A' for Active; 'I' for Inactive)
REMARK    1  A    between atoms: C2_3  and  O2_5 
REMARK    2  A    between atoms: O2_5  and  C3_6 
ROOT
HETATM    1  N1  UNL     1      -5.878   6.809  -0.368  1.00  0.00    -0.186 NA
HETATM    2  C1  UNL     1      -5.039   7.529  -0.010  1.00  0.00     0.170 C 
HETATM    3  C2  UNL     1      -4.001   8.423   0.442  1.00  0.00     0.365 C 
HETATM    4  O1  UNL     1      -4.056   9.061   1.502  1.00  0.00    -0.247 OA
ENDROOT
BRANCH   3   5
HETATM    5  O2  UNL     1      -2.842   8.664  -0.247  1.00  0.00    -0.304 OA
BRANCH   5   6
HETATM    6  C3  UNL     1      -1.652   9.156   0.288  1.00  0.00     0.133 C 
HETATM    7  C4  UNL     1      -0.660   8.026   0.205  1.00  0.00     0.032 C 
HETATM    8  C5  UNL     1      -0.160   7.648  -1.119  1.00  0.00     0.003 C 
HETATM    9  C6  UNL     1       1.233   8.106  -1.466  1.00  0.00     0.004 C 
HETATM   10  C7  UNL     1       2.097   8.403  -0.288  1.00  0.00     0.027 C 
HETATM   11  C8  UNL     1       3.499   8.510  -0.789  1.00  0.00    -0.031 C 
HETATM   12  C9  UNL     1       4.372   9.417  -0.363  1.00  0.00    -0.031 C 
HETATM   13  C10 UNL     1       4.050  10.437   0.672  1.00  0.00     0.027 C 
HETATM   14  C11 UNL     1       3.537  11.723   0.028  1.00  0.00     0.011 C 
HETATM   15  C12 UNL     1       2.963  12.577   1.137  1.00  0.00     0.078 C 
HETATM   16  C13 UNL     1       1.573  12.240   1.469  1.00  0.00     0.127 C 
HETATM   17  O3  UNL     1       1.249  11.965   2.632  1.00  0.00    -0.298 OA
HETATM   18  C14 UNL     1       0.500  12.210   0.454  1.00  0.00     0.078 C 
HETATM   19  C15 UNL     1      -0.664  11.363   0.928  1.00  0.00     0.010 C 
HETATM   20  C16 UNL     1      -1.189  10.463  -0.198  1.00  0.00     0.033 C 
ENDBRANCH   5   6
ENDBRANCH   3   5
TORSDOF 2
ENDMDL
