MODEL 1
REMARK VINA RESULT: -6.663059504      0.000      0.000
REMARK  3 active torsions:
REMARK  status: ('A' for Active; 'I' for Inactive)
REMARK    1  A    between atoms: C10_10  and  O1_12 
REMARK    2  A    between atoms: C13_15  and  O2_16 
REMARK    3  A    between atoms: O2_16  and  O3_17 
ROOT
HETATM    1  C1  UNL     1       5.110  12.220   2.781  1.00  0.00     0.076 C 
HETATM    2  C2  UNL     1       4.363  12.036   1.504  1.00  0.00     0.039 C 
HETATM    3  C3  UNL     1       4.854  11.000   0.801  1.00  0.00     0.006 C 
HETATM    4  C4  UNL     1       4.420  10.470  -0.506  1.00  0.00     0.039 C 
HETATM    5  C5  UNL     1       3.126   9.738  -0.526  1.00  0.00    -0.032 C 
HETATM    6  C6  UNL     1       3.211   8.899  -1.826  1.00  0.00     0.016 C 
HETATM    7  C7  UNL     1       3.139   8.715   0.568  1.00  0.00     0.010 C 
HETATM    8  C8  UNL     1       1.896   7.895   0.659  1.00  0.00     0.004 C 
HETATM    9  C9  UNL     1       0.645   8.492   0.186  1.00  0.00     0.038 C 
HETATM   10  C10 UNL     1       0.712   9.618  -0.780  1.00  0.00     0.061 C 
HETATM   11  C11 UNL     1      -0.629  10.363  -0.652  1.00  0.00     0.046 C 
HETATM   12  C12 UNL     1       1.884  10.542  -0.624  1.00  0.00     0.062 C 
HETATM   13  C13 UNL     1       1.608  11.515   0.469  1.00  0.00     0.197 C 
HETATM   14  C14 UNL     1       2.297  12.866   0.259  1.00  0.00     0.157 C 
HETATM   15  C15 UNL     1       1.398  14.035   0.479  1.00  0.00     0.042 C 
HETATM   16  O4  UNL     1       3.321  12.943   1.275  1.00  0.00    -0.349 OA
ENDROOT
BRANCH  10  17
HETATM   17  O1  UNL     1       0.616   9.104  -2.098  1.00  0.00    -0.390 OA
ATOM     18  H1  UNL     1       0.210   9.756  -2.657  1.00  0.00     0.210 HD
ENDBRANCH  10  17
BRANCH  13  19
HETATM   19  O2  UNL     1       1.898  11.029   1.740  1.00  0.00    -0.235 OA
BRANCH  19  20
HETATM   20  O3  UNL     1       1.270  11.732   2.646  1.00  0.00    -0.250 OA
ATOM     21  H3  UNL     1       0.795  11.159   3.236  1.00  0.00     0.253 HD
ENDBRANCH  19  20
ENDBRANCH  13  19
TORSDOF 3
ENDMDL
MODEL 2
REMARK VINA RESULT: -6.572442924      2.123      3.021
REMARK  3 active torsions:
REMARK  status: ('A' for Active; 'I' for Inactive)
REMARK    1  A    between atoms: C10_10  and  O1_12 
REMARK    2  A    between atoms: C13_15  and  O2_16 
REMARK    3  A    between atoms: O2_16  and  O3_17 
ROOT
HETATM    1  C1  UNL     1       4.670  10.725   0.934  1.00  0.00     0.076 C 
HETATM    2  C2  UNL     1       3.621  10.416  -0.079  1.00  0.00     0.039 C 
HETATM    3  C3  UNL     1       4.170   9.986  -1.230  1.00  0.00     0.006 C 
HETATM    4  C4  UNL     1       3.508   9.576  -2.483  1.00  0.00     0.039 C 
HETATM    5  C5  UNL     1       2.793   8.273  -2.457  1.00  0.00    -0.032 C 
HETATM    6  C6  UNL     1       2.681   7.897  -3.956  1.00  0.00     0.016 C 
HETATM    7  C7  UNL     1       3.710   7.235  -1.889  1.00  0.00     0.010 C 
HETATM    8  C8  UNL     1       3.120   5.868  -1.812  1.00  0.00     0.004 C 
HETATM    9  C9  UNL     1       1.665   5.755  -1.681  1.00  0.00     0.038 C 
HETATM   10  C10 UNL     1       0.819   6.895  -2.115  1.00  0.00     0.061 C 
HETATM   11  C11 UNL     1      -0.519   6.735  -1.372  1.00  0.00     0.046 C 
HETATM   12  C12 UNL     1       1.411   8.260  -1.915  1.00  0.00     0.062 C 
HETATM   13  C13 UNL     1       1.225   8.680  -0.500  1.00  0.00     0.197 C 
HETATM   14  C14 UNL     1       1.093  10.196  -0.335  1.00  0.00     0.157 C 
HETATM   15  C15 UNL     1      -0.041  10.605   0.542  1.00  0.00     0.042 C 
HETATM   16  O4  UNL     1       2.299  10.623   0.335  1.00  0.00    -0.349 OA
ENDROOT
BRANCH  10  17
HETATM   17  O1  UNL     1       0.414   6.687  -3.459  1.00  0.00    -0.390 OA
ATOM     18  H1  UNL     1      -0.519   6.513  -3.479  1.00  0.00     0.210 HD
ENDBRANCH  10  17
BRANCH  13  19
HETATM   19  O2  UNL     1       2.202   8.195   0.365  1.00  0.00    -0.235 OA
BRANCH  19  20
HETATM   20  O3  UNL     1       1.650   7.512   1.332  1.00  0.00    -0.250 OA
ATOM     21  H3  UNL     1       1.386   6.654   1.020  1.00  0.00     0.253 HD
ENDBRANCH  19  20
ENDBRANCH  13  19
TORSDOF 3
ENDMDL
MODEL 3
REMARK VINA RESULT: -6.457003648      4.022      5.828
REMARK  3 active torsions:
REMARK  status: ('A' for Active; 'I' for Inactive)
REMARK    1  A    between atoms: C10_10  and  O1_12 
REMARK    2  A    between atoms: C13_15  and  O2_16 
REMARK    3  A    between atoms: O2_16  and  O3_17 
ROOT
HETATM    1  C1  UNL     1      -3.621   9.952   3.116  1.00  0.00     0.076 C 
HETATM    2  C2  UNL     1      -3.177   9.664   1.723  1.00  0.00     0.039 C 
HETATM    3  C3  UNL     1      -2.014  10.280   1.448  1.00  0.00     0.006 C 
HETATM    4  C4  UNL     1      -1.224  10.269   0.202  1.00  0.00     0.039 C 
HETATM    5  C5  UNL     1      -0.512   9.004  -0.119  1.00  0.00    -0.032 C 
HETATM    6  C6  UNL     1       0.581   9.454  -1.121  1.00  0.00     0.016 C 
HETATM    7  C7  UNL     1       0.258   8.570   1.089  1.00  0.00     0.010 C 
HETATM    8  C8  UNL     1       1.033   7.309   0.905  1.00  0.00     0.004 C 
HETATM    9  C9  UNL     1       0.541   6.339  -0.076  1.00  0.00     0.038 C 
HETATM   10  C10 UNL     1      -0.356   6.813  -1.160  1.00  0.00     0.061 C 
HETATM   11  C11 UNL     1      -1.120   5.569  -1.649  1.00  0.00     0.046 C 
HETATM   12  C12 UNL     1      -1.286   7.933  -0.794  1.00  0.00     0.062 C 
HETATM   13  C13 UNL     1      -2.468   7.383  -0.075  1.00  0.00     0.197 C 
HETATM   14  C14 UNL     1      -3.740   8.206  -0.293  1.00  0.00     0.157 C 
HETATM   15  C15 UNL     1      -4.935   7.380  -0.629  1.00  0.00     0.042 C 
HETATM   16  O4  UNL     1      -4.023   8.833   0.977  1.00  0.00    -0.349 OA
ENDROOT
BRANCH  10  17
HETATM   17  O1  UNL     1       0.422   7.125  -2.304  1.00  0.00    -0.390 OA
ATOM     18  H1  UNL     1      -0.149   7.188  -3.060  1.00  0.00     0.210 HD
ENDBRANCH  10  17
BRANCH  13  19
HETATM   19  O2  UNL     1      -2.258   7.191   1.288  1.00  0.00    -0.235 OA
BRANCH  19  20
HETATM   20  O3  UNL     1      -2.684   6.010   1.648  1.00  0.00    -0.250 OA
ATOM     21  H3  UNL     1      -2.159   5.676   2.366  1.00  0.00     0.253 HD
ENDBRANCH  19  20
ENDBRANCH  13  19
TORSDOF 3
ENDMDL
MODEL 4
REMARK VINA RESULT: -6.426805013      2.504      3.587
REMARK  3 active torsions:
REMARK  status: ('A' for Active; 'I' for Inactive)
REMARK    1  A    between atoms: C10_10  and  O1_12 
REMARK    2  A    between atoms: C13_15  and  O2_16 
REMARK    3  A    between atoms: O2_16  and  O3_17 
ROOT
HETATM    1  C1  UNL     1       1.553  12.147   2.080  1.00  0.00     0.076 C 
HETATM    2  C2  UNL     1       0.708  11.407   1.100  1.00  0.00     0.039 C 
HETATM    3  C3  UNL     1       1.461  10.631   0.300  1.00  0.00     0.006 C 
HETATM    4  C4  UNL     1       1.042   9.739  -0.798  1.00  0.00     0.039 C 
HETATM    5  C5  UNL     1       0.349   8.485  -0.404  1.00  0.00    -0.032 C 
HETATM    6  C6  UNL     1       0.515   7.578  -1.649  1.00  0.00     0.016 C 
HETATM    7  C7  UNL     1       1.161   7.802   0.653  1.00  0.00     0.010 C 
HETATM    8  C8  UNL     1       0.584   6.516   1.139  1.00  0.00     0.004 C 
HETATM    9  C9  UNL     1      -0.869   6.345   1.064  1.00  0.00     0.038 C 
HETATM   10  C10 UNL     1      -1.636   7.176   0.102  1.00  0.00     0.061 C 
HETATM   11  C11 UNL     1      -3.085   7.194   0.622  1.00  0.00     0.046 C 
HETATM   12  C12 UNL     1      -1.107   8.562  -0.130  1.00  0.00     0.062 C 
HETATM   13  C13 UNL     1      -1.551   9.455   0.975  1.00  0.00     0.197 C 
HETATM   14  C14 UNL     1      -1.729  10.911   0.536  1.00  0.00     0.157 C 
HETATM   15  C15 UNL     1      -3.008  11.522   0.999  1.00  0.00     0.042 C 
HETATM   16  O4  UNL     1      -0.669  11.647   1.185  1.00  0.00    -0.349 OA
ENDROOT
BRANCH  10  17
HETATM   17  O1  UNL     1      -1.789   6.460  -1.113  1.00  0.00    -0.390 OA
ATOM     18  H1  UNL     1      -2.475   6.866  -1.629  1.00  0.00     0.210 HD
ENDBRANCH  10  17
BRANCH  13  19
HETATM   19  O2  UNL     1      -0.741   9.398   2.105  1.00  0.00    -0.235 OA
BRANCH  19  20
HETATM   20  O3  UNL     1      -1.468   9.211   3.174  1.00  0.00    -0.250 OA
ATOM     21  H3  UNL     1      -0.976   9.446   3.952  1.00  0.00     0.253 HD
ENDBRANCH  19  20
ENDBRANCH  13  19
TORSDOF 3
ENDMDL
MODEL 5
REMARK VINA RESULT: -6.223462112      1.148      1.516
REMARK  3 active torsions:
REMARK  status: ('A' for Active; 'I' for Inactive)
REMARK    1  A    between atoms: C10_10  and  O1_12 
REMARK    2  A    between atoms: C13_15  and  O2_16 
REMARK    3  A    between atoms: O2_16  and  O3_17 
ROOT
HETATM    1  C1  UNL     1       5.033  11.621   1.314  1.00  0.00     0.076 C 
HETATM    2  C2  UNL     1       3.804  11.514   0.477  1.00  0.00     0.039 C 
HETATM    3  C3  UNL     1       3.777  10.352  -0.199  1.00  0.00     0.006 C 
HETATM    4  C4  UNL     1       2.758   9.840  -1.134  1.00  0.00     0.039 C 
HETATM    5  C5  UNL     1       1.471   9.401  -0.533  1.00  0.00    -0.032 C 
HETATM    6  C6  UNL     1       0.865   8.478  -1.620  1.00  0.00     0.016 C 
HETATM    7  C7  UNL     1       1.765   8.476   0.606  1.00  0.00     0.010 C 
HETATM    8  C8  UNL     1       0.555   7.949   1.301  1.00  0.00     0.004 C 
HETATM    9  C9  UNL     1      -0.660   8.766   1.276  1.00  0.00     0.038 C 
HETATM   10  C10 UNL     1      -0.814   9.784   0.205  1.00  0.00     0.061 C 
HETATM   11  C11 UNL     1      -1.835  10.805   0.738  1.00  0.00     0.046 C 
HETATM   12  C12 UNL     1       0.453  10.444  -0.253  1.00  0.00     0.062 C 
HETATM   13  C13 UNL     1       0.824  11.525   0.701  1.00  0.00     0.197 C 
HETATM   14  C14 UNL     1       1.578  12.680   0.038  1.00  0.00     0.157 C 
HETATM   15  C15 UNL     1       1.062  14.027   0.416  1.00  0.00     0.042 C 
HETATM   16  O4  UNL     1       2.929  12.606   0.545  1.00  0.00    -0.349 OA
ENDROOT
BRANCH  10  17
HETATM   17  O1  UNL     1      -1.533   9.214  -0.876  1.00  0.00    -0.390 OA
ATOM     18  H1  UNL     1      -2.010   9.900  -1.328  1.00  0.00     0.210 HD
ENDBRANCH  10  17
BRANCH  13  19
HETATM   19  O2  UNL     1       1.530  11.077   1.813  1.00  0.00    -0.235 OA
BRANCH  19  20
HETATM   20  O3  UNL     1       1.511  11.981   2.756  1.00  0.00    -0.250 OA
ATOM     21  H3  UNL     1       0.659  12.000   3.176  1.00  0.00     0.253 HD
ENDBRANCH  19  20
ENDBRANCH  13  19
TORSDOF 3
ENDMDL
