MODEL 1
REMARK VINA RESULT: -8.410481619      0.000      0.000
REMARK  2 active torsions:
REMARK  status: ('A' for Active; 'I' for Inactive)
REMARK    1  A    between atoms: N2_3  and  C2_5 
REMARK    2  A    between atoms: C9_16  and  C10_17 
ROOT
HETATM    1  N1  UNL     1       3.146   8.160  -3.284  1.00  0.00    -0.171 NA
HETATM    2  C1  UNL     1       2.132   8.081  -2.729  1.00  0.00     0.196 C 
HETATM    3  N2  UNL     1       0.922   7.978  -2.055  1.00  0.00    -0.126 N 
ATOM      4  H2  UNL     1       0.270   7.221  -2.259  1.00  0.00     0.197 HD
ENDROOT
BRANCH   3   5
HETATM    5  C2  UNL     1       0.618   8.968  -1.068  1.00  0.00     0.690 A 
HETATM    6  N3  UNL     1      -0.469   9.025  -0.431  1.00  0.00    -0.199 N 
HETATM    7  C3  UNL     1      -0.816   9.987   0.556  1.00  0.00     0.121 A 
ATOM      8  H3  UNL     1      -1.167   8.312  -0.646  1.00  0.00     0.180 HD
HETATM    9  C4  UNL     1      -1.034   9.334   1.914  1.00  0.00     0.054 C 
HETATM   10  C8  UNL     1      -2.076  10.669   0.071  1.00  0.00     0.054 C 
HETATM   11  N4  UNL     1       0.263  10.922   0.747  1.00  0.00    -0.351 N 
HETATM   12  C5  UNL     1      -2.504   9.114   2.183  1.00  0.00     0.004 C 
HETATM   13  C6  UNL     1      -3.132  10.480   2.341  1.00  0.00     0.000 C 
HETATM   14  C7  UNL     1      -2.831  11.364   1.164  1.00  0.00     0.004 C 
HETATM   15  C9  UNL     1       1.383  10.916   0.134  1.00  0.00     0.110 A 
ATOM     16  H4  UNL     1       0.118  11.659   1.438  1.00  0.00     0.163 HD
HETATM   17  N5  UNL     1       1.637   9.919  -0.831  1.00  0.00    -0.179 N 
ATOM     18  H5  UNL     1       2.521   9.886  -1.338  1.00  0.00     0.185 HD
BRANCH  15  19
HETATM   19  C10 UNL     1       2.395  11.951   0.444  1.00  0.00     0.123 C 
HETATM   20  C11 UNL     1       2.471  12.329   1.792  1.00  0.00    -0.170 C 
HETATM   21  C12 UNL     1       2.573  12.671   3.140  1.00  0.00     0.084 C 
HETATM   22  C13 UNL     1       4.026  12.260   3.572  1.00  0.00     0.038 C 
HETATM   23  C14 UNL     1       4.932  12.068   2.356  1.00  0.00    -0.030 C 
HETATM   24  C15 UNL     1       4.659  11.139   1.307  1.00  0.00    -0.029 C 
HETATM   25  C16 UNL     1       3.832  11.436   0.072  1.00  0.00     0.050 C 
ENDBRANCH  15  19
ENDBRANCH   3   5
TORSDOF 2
ENDMDL
MODEL 2
REMARK VINA RESULT: -8.391524272      1.805      4.398
REMARK  2 active torsions:
REMARK  status: ('A' for Active; 'I' for Inactive)
REMARK    1  A    between atoms: N2_3  and  C2_5 
REMARK    2  A    between atoms: C9_16  and  C10_17 
ROOT
HETATM    1  N1  UNL     1      -2.041   8.906   4.185  1.00  0.00    -0.171 NA
HETATM    2  C1  UNL     1      -1.945   9.073   3.043  1.00  0.00     0.196 C 
HETATM    3  N2  UNL     1      -1.829   9.285   1.675  1.00  0.00    -0.126 N 
ATOM      4  H2  UNL     1      -2.649   9.488   1.103  1.00  0.00     0.197 HD
ENDROOT
BRANCH   3   5
HETATM    5  C2  UNL     1      -0.524   9.212   1.093  1.00  0.00     0.690 A 
HETATM    6  N3  UNL     1      -0.057   8.188   0.526  1.00  0.00    -0.199 N 
HETATM    7  C3  UNL     1       1.231   8.068  -0.065  1.00  0.00     0.121 A 
ATOM      8  H3  UNL     1      -0.660   7.366   0.488  1.00  0.00     0.180 HD
HETATM    9  C4  UNL     1       1.132   7.813  -1.563  1.00  0.00     0.054 C 
HETATM   10  C8  UNL     1       1.924   6.922   0.638  1.00  0.00     0.054 C 
HETATM   11  N4  UNL     1       1.962   9.302   0.068  1.00  0.00    -0.351 N 
HETATM   12  C5  UNL     1       1.289   6.344  -1.876  1.00  0.00     0.004 C 
HETATM   13  C6  UNL     1       2.717   5.973  -1.548  1.00  0.00     0.000 C 
HETATM   14  C7  UNL     1       3.075   6.360  -0.141  1.00  0.00     0.004 C 
HETATM   15  C9  UNL     1       1.543  10.369   0.630  1.00  0.00     0.110 A 
ATOM     16  H4  UNL     1       2.904   9.326  -0.325  1.00  0.00     0.163 HD
HETATM   17  N5  UNL     1       0.248  10.394   1.189  1.00  0.00    -0.179 N 
ATOM     18  H5  UNL     1      -0.117  11.230   1.644  1.00  0.00     0.185 HD
BRANCH  15  19
HETATM   19  C10 UNL     1       2.419  11.562   0.686  1.00  0.00     0.123 C 
HETATM   20  C11 UNL     1       2.581  12.125   1.959  1.00  0.00    -0.170 C 
HETATM   21  C12 UNL     1       2.775  12.658   3.233  1.00  0.00     0.084 C 
HETATM   22  C13 UNL     1       4.310  12.505   3.527  1.00  0.00     0.038 C 
HETATM   23  C14 UNL     1       5.100  12.272   2.239  1.00  0.00    -0.030 C 
HETATM   24  C15 UNL     1       4.857  11.181   1.350  1.00  0.00    -0.029 C 
HETATM   25  C16 UNL     1       3.868  11.196   0.201  1.00  0.00     0.050 C 
ENDBRANCH  15  19
ENDBRANCH   3   5
TORSDOF 2
ENDMDL
MODEL 3
REMARK VINA RESULT: -8.076231159      1.360      4.363
REMARK  2 active torsions:
REMARK  status: ('A' for Active; 'I' for Inactive)
REMARK    1  A    between atoms: N2_3  and  C2_5 
REMARK    2  A    between atoms: C9_16  and  C10_17 
ROOT
HETATM    1  N1  UNL     1      -2.569  11.732   1.135  1.00  0.00    -0.171 NA
HETATM    2  C1  UNL     1      -2.168  10.761   0.647  1.00  0.00     0.196 C 
HETATM    3  N2  UNL     1      -1.690   9.602   0.050  1.00  0.00    -0.126 N 
ATOM      4  H2  UNL     1      -2.323   8.847  -0.212  1.00  0.00     0.197 HD
ENDROOT
BRANCH   3   5
HETATM    5  C2  UNL     1      -0.283   9.500  -0.187  1.00  0.00     0.690 A 
HETATM    6  N3  UNL     1       0.281   8.493  -0.694  1.00  0.00    -0.199 N 
HETATM    7  C3  UNL     1       1.672   8.346  -0.947  1.00  0.00     0.121 A 
ATOM      8  H3  UNL     1      -0.319   7.707  -0.946  1.00  0.00     0.180 HD
HETATM    9  C4  UNL     1       1.951   8.195  -2.436  1.00  0.00     0.054 C 
HETATM   10  C8  UNL     1       2.124   7.122  -0.181  1.00  0.00     0.054 C 
HETATM   11  N4  UNL     1       2.385   9.530  -0.539  1.00  0.00    -0.351 N 
HETATM   12  C5  UNL     1       2.135   6.744  -2.811  1.00  0.00     0.004 C 
HETATM   13  C6  UNL     1       3.419   6.280  -2.161  1.00  0.00     0.000 C 
HETATM   14  C7  UNL     1       3.417   6.554  -0.684  1.00  0.00     0.004 C 
HETATM   15  C9  UNL     1       1.871  10.577  -0.021  1.00  0.00     0.110 A 
ATOM     16  H4  UNL     1       3.395   9.530  -0.677  1.00  0.00     0.163 HD
HETATM   17  N5  UNL     1       0.477  10.631   0.192  1.00  0.00    -0.179 N 
ATOM     18  H5  UNL     1       0.036  11.454   0.603  1.00  0.00     0.185 HD
BRANCH  15  19
HETATM   19  C10 UNL     1       2.742  11.717   0.346  1.00  0.00     0.123 C 
HETATM   20  C11 UNL     1       2.602  12.177   1.663  1.00  0.00    -0.170 C 
HETATM   21  C12 UNL     1       2.491  12.604   2.985  1.00  0.00     0.084 C 
HETATM   22  C13 UNL     1       3.901  12.353   3.631  1.00  0.00     0.038 C 
HETATM   23  C14 UNL     1       4.977  12.176   2.559  1.00  0.00    -0.030 C 
HETATM   24  C15 UNL     1       4.927  11.167   1.550  1.00  0.00    -0.029 C 
HETATM   25  C16 UNL     1       4.254  11.315   0.201  1.00  0.00     0.050 C 
ENDBRANCH  15  19
ENDBRANCH   3   5
TORSDOF 2
ENDMDL
MODEL 4
REMARK VINA RESULT: -7.927078106      2.195      5.799
REMARK  2 active torsions:
REMARK  status: ('A' for Active; 'I' for Inactive)
REMARK    1  A    between atoms: N2_3  and  C2_5 
REMARK    2  A    between atoms: C9_16  and  C10_17 
ROOT
HETATM    1  N1  UNL     1       4.301  12.265   2.200  1.00  0.00    -0.171 NA
HETATM    2  C1  UNL     1       4.589  11.379   1.512  1.00  0.00     0.196 C 
HETATM    3  N2  UNL     1       4.935  10.309   0.696  1.00  0.00    -0.126 N 
ATOM      4  H2  UNL     1       5.908  10.023   0.589  1.00  0.00     0.197 HD
ENDROOT
BRANCH   3   5
HETATM    5  C2  UNL     1       3.884   9.620   0.013  1.00  0.00     0.690 A 
HETATM    6  N3  UNL     1       4.001   8.474  -0.499  1.00  0.00    -0.199 N 
HETATM    7  C3  UNL     1       2.988   7.751  -1.186  1.00  0.00     0.121 A 
ATOM      8  H3  UNL     1       4.912   8.021  -0.411  1.00  0.00     0.180 HD
HETATM    9  C4  UNL     1       2.636   6.461  -0.458  1.00  0.00     0.054 C 
HETATM   10  C8  UNL     1       3.526   7.465  -2.572  1.00  0.00     0.054 C 
HETATM   11  N4  UNL     1       1.767   8.515  -1.230  1.00  0.00    -0.351 N 
HETATM   12  C5  UNL     1       3.342   5.278  -1.075  1.00  0.00     0.004 C 
HETATM   13  C6  UNL     1       2.750   5.080  -2.452  1.00  0.00     0.000 C 
HETATM   14  C7  UNL     1       2.811   6.343  -3.263  1.00  0.00     0.004 C 
HETATM   15  C9  UNL     1       1.588   9.677  -0.732  1.00  0.00     0.110 A 
ATOM     16  H4  UNL     1       0.971   8.087  -1.703  1.00  0.00     0.163 HD
HETATM   17  N5  UNL     1       2.654  10.316  -0.066  1.00  0.00    -0.179 N 
ATOM     18  H5  UNL     1       2.544  11.244   0.343  1.00  0.00     0.185 HD
BRANCH  15  19
HETATM   19  C10 UNL     1       0.267  10.334  -0.860  1.00  0.00     0.123 C 
HETATM   20  C11 UNL     1      -0.826   9.569  -0.430  1.00  0.00    -0.170 C 
HETATM   21  C12 UNL     1      -1.906   8.822   0.037  1.00  0.00     0.084 C 
HETATM   22  C13 UNL     1      -2.504   9.646   1.233  1.00  0.00     0.038 C 
HETATM   23  C14 UNL     1      -2.036  11.100   1.193  1.00  0.00    -0.030 C 
HETATM   24  C15 UNL     1      -0.661  11.488   1.223  1.00  0.00    -0.029 C 
HETATM   25  C16 UNL     1       0.226  11.646   0.005  1.00  0.00     0.050 C 
ENDBRANCH  15  19
ENDBRANCH   3   5
TORSDOF 2
ENDMDL
MODEL 5
REMARK VINA RESULT: -7.748057095      0.886      1.185
REMARK  2 active torsions:
REMARK  status: ('A' for Active; 'I' for Inactive)
REMARK    1  A    between atoms: N2_3  and  C2_5 
REMARK    2  A    between atoms: C9_16  and  C10_17 
ROOT
HETATM    1  N1  UNL     1      -0.177   5.364  -1.785  1.00  0.00    -0.171 NA
HETATM    2  C1  UNL     1       0.372   6.378  -1.893  1.00  0.00     0.196 C 
HETATM    3  N2  UNL     1       1.022   7.598  -2.031  1.00  0.00    -0.126 N 
ATOM      4  H2  UNL     1       1.705   7.749  -2.773  1.00  0.00     0.197 HD
ENDROOT
BRANCH   3   5
HETATM    5  C2  UNL     1       0.703   8.637  -1.100  1.00  0.00     0.690 A 
HETATM    6  N3  UNL     1      -0.386   8.715  -0.470  1.00  0.00    -0.199 N 
HETATM    7  C3  UNL     1      -0.747   9.726   0.463  1.00  0.00     0.121 A 
ATOM      8  H3  UNL     1      -1.075   7.984  -0.647  1.00  0.00     0.180 HD
HETATM    9  C4  UNL     1      -0.962   9.145   1.854  1.00  0.00     0.054 C 
HETATM   10  C8  UNL     1      -2.014  10.365  -0.062  1.00  0.00     0.054 C 
HETATM   11  N4  UNL     1       0.320  10.683   0.605  1.00  0.00    -0.351 N 
HETATM   12  C5  UNL     1      -2.430   8.923   2.130  1.00  0.00     0.004 C 
HETATM   13  C6  UNL     1      -3.074  10.288   2.213  1.00  0.00     0.000 C 
HETATM   14  C7  UNL     1      -2.781  11.110   0.990  1.00  0.00     0.004 C 
HETATM   15  C9  UNL     1       1.441  10.657  -0.004  1.00  0.00     0.110 A 
ATOM     16  H4  UNL     1       0.164  11.455   1.255  1.00  0.00     0.163 HD
HETATM   17  N5  UNL     1       1.711   9.612  -0.912  1.00  0.00    -0.179 N 
ATOM     18  H5  UNL     1       2.597   9.562  -1.414  1.00  0.00     0.185 HD
BRANCH  15  19
HETATM   19  C10 UNL     1       2.441  11.719   0.252  1.00  0.00     0.123 C 
HETATM   20  C11 UNL     1       2.537  12.141   1.585  1.00  0.00    -0.170 C 
HETATM   21  C12 UNL     1       2.660  12.528   2.919  1.00  0.00     0.084 C 
HETATM   22  C13 UNL     1       4.129  12.157   3.334  1.00  0.00     0.038 C 
HETATM   23  C14 UNL     1       5.014  11.942   2.105  1.00  0.00    -0.030 C 
HETATM   24  C15 UNL     1       4.736  10.975   1.092  1.00  0.00    -0.029 C 
HETATM   25  C16 UNL     1       3.879  11.218  -0.134  1.00  0.00     0.050 C 
ENDBRANCH  15  19
ENDBRANCH   3   5
TORSDOF 2
ENDMDL
