MODEL 1
REMARK VINA RESULT: -7.563407183      0.000      0.000
REMARK  1 active torsions:
REMARK  status: ('A' for Active; 'I' for Inactive)
REMARK    1  A    between atoms: C3_6  and  C4_7 
ROOT
HETATM    1  C4  UNL     1       1.178  11.428   0.547  1.00  0.00     0.364 C 
HETATM    2  O1  UNL     1       0.878  11.097   1.846  1.00  0.00    -0.200 OA
HETATM    3  O2  UNL     1      -0.454  11.127   1.950  1.00  0.00    -0.194 OA
HETATM    4  C5  UNL     1      -1.020  10.062   1.236  1.00  0.00     0.237 C 
HETATM    5  O3  UNL     1      -0.049   9.635   0.333  1.00  0.00    -0.194 OA
HETATM    6  O4  UNL     1       0.305  10.738  -0.330  1.00  0.00    -0.200 OA
HETATM    7  C6  UNL     1      -2.218  10.508   0.420  1.00  0.00     0.055 C 
HETATM    8  C7  UNL     1      -3.231  11.102   1.341  1.00  0.00     0.015 C 
HETATM    9  C8  UNL     1      -3.591  10.083   2.385  1.00  0.00    -0.013 C 
HETATM   10  C9  UNL     1      -4.229   8.909   1.676  1.00  0.00     0.009 C 
HETATM   11  C10 UNL     1      -3.207   8.278   0.770  1.00  0.00    -0.013 C 
HETATM   12  C11 UNL     1      -2.764   9.285  -0.274  1.00  0.00     0.015 C 
HETATM   13  C12 UNL     1      -1.985   7.828   1.524  1.00  0.00     0.015 C 
HETATM   14  C13 UNL     1      -1.381   9.004   2.234  1.00  0.00     0.055 C 
HETATM   15  C14 UNL     1      -2.403   9.627   3.187  1.00  0.00     0.015 C 
ENDROOT
BRANCH   1  16
HETATM   16  C3  UNL     1       2.558  11.097   0.109  1.00  0.00     0.246 C 
HETATM   17  N1  UNL     1       2.793   9.647   0.182  1.00  0.00    -0.066 N 
HETATM   18  C2  UNL     1       4.197   9.606  -0.257  1.00  0.00     0.233 C 
ATOM     19  H12 UNL     1       2.143   9.062  -0.342  1.00  0.00     0.277 HD
ATOM     20  H11 UNL     1       2.591   9.206   1.079  1.00  0.00     0.277 HD
HETATM   21  C1  UNL     1       4.829  10.765   0.489  1.00  0.00     0.030 C 
HETATM   22  C15 UNL     1       3.648  11.612   0.988  1.00  0.00     0.040 C 
ENDBRANCH   1  16
TORSDOF 1
ENDMDL
MODEL 2
REMARK VINA RESULT: -7.269280401      1.012      1.272
REMARK  1 active torsions:
REMARK  status: ('A' for Active; 'I' for Inactive)
REMARK    1  A    between atoms: C3_6  and  C4_7 
ROOT
HETATM    1  C4  UNL     1       1.447  11.622   0.709  1.00  0.00     0.364 C 
HETATM    2  O1  UNL     1       0.812  11.408   1.909  1.00  0.00    -0.200 OA
HETATM    3  O2  UNL     1      -0.430  11.009   1.617  1.00  0.00    -0.194 OA
HETATM    4  C5  UNL     1      -0.408   9.722   1.060  1.00  0.00     0.237 C 
HETATM    5  O3  UNL     1       0.894   9.513   0.608  1.00  0.00    -0.194 OA
HETATM    6  O4  UNL     1       1.151  10.560  -0.180  1.00  0.00    -0.200 OA
HETATM    7  C6  UNL     1      -1.318   9.619  -0.148  1.00  0.00     0.055 C 
HETATM    8  C7  UNL     1      -2.707   9.972   0.267  1.00  0.00     0.015 C 
HETATM    9  C8  UNL     1      -3.125   9.058   1.385  1.00  0.00    -0.013 C 
HETATM   10  C9  UNL     1      -3.140   7.647   0.839  1.00  0.00     0.009 C 
HETATM   11  C10 UNL     1      -1.737   7.264   0.450  1.00  0.00    -0.013 C 
HETATM   12  C11 UNL     1      -1.242   8.194  -0.641  1.00  0.00     0.015 C 
HETATM   13  C12 UNL     1      -0.783   7.364   1.608  1.00  0.00     0.015 C 
HETATM   14  C13 UNL     1      -0.800   8.764   2.144  1.00  0.00     0.055 C 
HETATM   15  C14 UNL     1      -2.216   9.147   2.580  1.00  0.00     0.015 C 
ENDROOT
BRANCH   1  16
HETATM   16  C3  UNL     1       2.927  11.708   0.781  1.00  0.00     0.246 C 
HETATM   17  N1  UNL     1       3.533  10.375   0.640  1.00  0.00    -0.066 N 
HETATM   18  C2  UNL     1       4.952  10.737   0.779  1.00  0.00     0.233 C 
ATOM     19  H12 UNL     1       3.283   9.857  -0.202  1.00  0.00     0.277 HD
ATOM     20  H11 UNL     1       3.189   9.658   1.279  1.00  0.00     0.277 HD
HETATM   21  C1  UNL     1       4.950  11.723   1.931  1.00  0.00     0.030 C 
HETATM   22  C15 UNL     1       3.480  12.141   2.097  1.00  0.00     0.040 C 
ENDBRANCH   1  16
TORSDOF 1
ENDMDL
MODEL 3
REMARK VINA RESULT: -7.170681024      3.266      4.611
REMARK  1 active torsions:
REMARK  status: ('A' for Active; 'I' for Inactive)
REMARK    1  A    between atoms: C3_6  and  C4_7 
ROOT
HETATM    1  C4  UNL     1       3.275  11.366   0.138  1.00  0.00     0.364 C 
HETATM    2  O1  UNL     1       1.928  11.105   0.221  1.00  0.00    -0.200 OA
HETATM    3  O2  UNL     1       1.669  10.148  -0.675  1.00  0.00    -0.194 OA
HETATM    4  C5  UNL     1       2.232   8.932  -0.262  1.00  0.00     0.237 C 
HETATM    5  O3  UNL     1       3.211   9.252   0.676  1.00  0.00    -0.194 OA
HETATM    6  O4  UNL     1       3.990  10.145   0.062  1.00  0.00    -0.200 OA
HETATM    7  C6  UNL     1       2.930   8.221  -1.405  1.00  0.00     0.055 C 
HETATM    8  C7  UNL     1       1.941   7.981  -2.497  1.00  0.00     0.015 C 
HETATM    9  C8  UNL     1       0.790   7.190  -1.941  1.00  0.00    -0.013 C 
HETATM   10  C9  UNL     1       1.331   5.850  -1.493  1.00  0.00     0.009 C 
HETATM   11  C10 UNL     1       2.304   6.074  -0.367  1.00  0.00    -0.013 C 
HETATM   12  C11 UNL     1       3.464   6.919  -0.859  1.00  0.00     0.015 C 
HETATM   13  C12 UNL     1       1.670   6.793   0.793  1.00  0.00     0.015 C 
HETATM   14  C13 UNL     1       1.124   8.108   0.321  1.00  0.00     0.055 C 
HETATM   15  C14 UNL     1       0.104   7.886  -0.798  1.00  0.00     0.015 C 
ENDROOT
BRANCH   1  16
HETATM   16  C3  UNL     1       3.848  12.116   1.283  1.00  0.00     0.246 C 
HETATM   17  N1  UNL     1       5.007  11.406   1.843  1.00  0.00    -0.066 N 
HETATM   18  C2  UNL     1       5.344  12.320   2.946  1.00  0.00     0.233 C 
ATOM     19  H12 UNL     1       5.761  11.196   1.190  1.00  0.00     0.277 HD
ATOM     20  H11 UNL     1       4.852  10.431   2.101  1.00  0.00     0.277 HD
HETATM   21  C1  UNL     1       3.992  12.662   3.541  1.00  0.00     0.030 C 
HETATM   22  C15 UNL     1       2.966  12.224   2.482  1.00  0.00     0.040 C 
ENDBRANCH   1  16
TORSDOF 1
ENDMDL
MODEL 4
REMARK VINA RESULT: -7.076087007      0.911      1.079
REMARK  1 active torsions:
REMARK  status: ('A' for Active; 'I' for Inactive)
REMARK    1  A    between atoms: C3_6  and  C4_7 
ROOT
HETATM    1  C4  UNL     1       1.578  11.017   0.629  1.00  0.00     0.364 C 
HETATM    2  O1  UNL     1       0.984  11.069   1.867  1.00  0.00    -0.200 OA
HETATM    3  O2  UNL     1      -0.336  11.063   1.657  1.00  0.00    -0.194 OA
HETATM    4  C5  UNL     1      -0.746   9.808   1.185  1.00  0.00     0.237 C 
HETATM    5  O3  UNL     1       0.397   9.183   0.690  1.00  0.00    -0.194 OA
HETATM    6  O4  UNL     1       0.915  10.058  -0.175  1.00  0.00    -0.200 OA
HETATM    7  C6  UNL     1      -1.717   9.935   0.027  1.00  0.00     0.055 C 
HETATM    8  C7  UNL     1      -2.901  10.723   0.479  1.00  0.00     0.015 C 
HETATM    9  C8  UNL     1      -3.510  10.039   1.671  1.00  0.00    -0.013 C 
HETATM   10  C9  UNL     1      -3.993   8.678   1.219  1.00  0.00     0.009 C 
HETATM   11  C10 UNL     1      -2.804   7.860   0.794  1.00  0.00    -0.013 C 
HETATM   12  C11 UNL     1      -2.115   8.536  -0.376  1.00  0.00     0.015 C 
HETATM   13  C12 UNL     1      -1.795   7.713   1.901  1.00  0.00     0.015 C 
HETATM   14  C13 UNL     1      -1.346   9.073   2.345  1.00  0.00     0.055 C 
HETATM   15  C14 UNL     1      -2.545   9.898   2.816  1.00  0.00     0.015 C 
ENDROOT
BRANCH   1  16
HETATM   16  C3  UNL     1       3.014  10.641   0.630  1.00  0.00     0.246 C 
HETATM   17  N1  UNL     1       3.830  11.703   1.237  1.00  0.00    -0.066 N 
HETATM   18  C2  UNL     1       5.165  11.104   1.080  1.00  0.00     0.233 C 
ATOM     19  H12 UNL     1       3.572  11.978   2.184  1.00  0.00     0.277 HD
ATOM     20  H11 UNL     1       3.710  12.638   0.847  1.00  0.00     0.277 HD
HETATM   21  C1  UNL     1       5.132  10.544  -0.328  1.00  0.00     0.030 C 
HETATM   22  C15 UNL     1       3.645  10.525  -0.717  1.00  0.00     0.040 C 
ENDBRANCH   1  16
TORSDOF 1
ENDMDL
MODEL 5
REMARK VINA RESULT: -7.028941400      2.974      5.870
REMARK  1 active torsions:
REMARK  status: ('A' for Active; 'I' for Inactive)
REMARK    1  A    between atoms: C3_6  and  C4_7 
ROOT
HETATM    1  C4  UNL     1      -0.158  10.116   0.649  1.00  0.00     0.364 C 
HETATM    2  O1  UNL     1      -0.243   9.890  -0.704  1.00  0.00    -0.200 OA
HETATM    3  O2  UNL     1       0.940   9.400  -1.084  1.00  0.00    -0.194 OA
HETATM    4  C5  UNL     1       1.113   8.104  -0.579  1.00  0.00     0.237 C 
HETATM    5  O3  UNL     1       0.216   7.973   0.479  1.00  0.00    -0.194 OA
HETATM    6  O4  UNL     1       0.474   9.013   1.274  1.00  0.00    -0.200 OA
HETATM    7  C6  UNL     1       2.503   7.907  -0.006  1.00  0.00     0.055 C 
HETATM    8  C7  UNL     1       3.506   8.175  -1.079  1.00  0.00     0.015 C 
HETATM    9  C8  UNL     1       3.226   7.265  -2.241  1.00  0.00    -0.013 C 
HETATM   10  C9  UNL     1       3.416   5.842  -1.762  1.00  0.00     0.009 C 
HETATM   11  C10 UNL     1       2.387   5.546  -0.705  1.00  0.00    -0.013 C 
HETATM   12  C11 UNL     1       2.588   6.479   0.474  1.00  0.00     0.015 C 
HETATM   13  C12 UNL     1       0.984   5.741  -1.213  1.00  0.00     0.015 C 
HETATM   14  C13 UNL     1       0.825   7.151  -1.699  1.00  0.00     0.055 C 
HETATM   15  C14 UNL     1       1.843   7.447  -2.803  1.00  0.00     0.015 C 
ENDROOT
BRANCH   1  16
HETATM   16  C3  UNL     1      -1.456  10.305   1.345  1.00  0.00     0.246 C 
HETATM   17  N1  UNL     1      -2.446   9.325   0.874  1.00  0.00    -0.066 N 
HETATM   18  C2  UNL     1      -3.606   9.747   1.673  1.00  0.00     0.233 C 
ATOM     19  H12 UNL     1      -2.178   8.344   0.956  1.00  0.00     0.277 HD
ATOM     20  H11 UNL     1      -2.588   9.283  -0.136  1.00  0.00     0.277 HD
HETATM   21  C1  UNL     1      -3.565  11.260   1.575  1.00  0.00     0.030 C 
HETATM   22  C15 UNL     1      -2.157  11.589   1.054  1.00  0.00     0.040 C 
ENDBRANCH   1  16
TORSDOF 1
ENDMDL
