MODEL 1
REMARK VINA RESULT: -6.613486805      0.000      0.000
REMARK  2 active torsions:
REMARK  status: ('A' for Active; 'I' for Inactive)
REMARK    1  A    between atoms: N1_9  and  N2_11 
REMARK    2  A    between atoms: N2_11  and  C8_13 
ROOT
HETATM    1  C1  UNL     1      -3.318   9.935   3.333  1.00  0.00     0.046 C 
HETATM    2  C2  UNL     1      -3.428   9.693   1.858  1.00  0.00     0.061 C 
HETATM    3  C3  UNL     1      -4.694   8.863   1.635  1.00  0.00     0.046 C 
HETATM    4  O1  UNL     1      -3.603  10.865   1.132  1.00  0.00    -0.380 OA
HETATM    5  C4  UNL     1      -2.532  11.710   1.136  1.00  0.00     0.169 C 
HETATM    6  C5  UNL     1      -1.216  11.067   0.768  1.00  0.00     0.037 C 
HETATM    7  C6  UNL     1      -1.028   9.802   1.515  1.00  0.00     0.046 C 
HETATM    8  C7  UNL     1      -0.009   8.888   1.008  1.00  0.00     0.009 C 
HETATM    9  N1  UNL     1       1.069   9.106   0.358  1.00  0.00    -0.306 N 
ATOM     10  H1  UNL     1       1.640   8.300   0.101  1.00  0.00     0.186 HD
HETATM   11  C11 UNL     1      -0.454   7.512   1.397  1.00  0.00     0.055 C 
HETATM   12  C12 UNL     1      -1.906   7.674   1.867  1.00  0.00     0.018 C 
HETATM   13  C13 UNL     1      -2.292   8.960   1.268  1.00  0.00    -0.004 C 
HETATM   14  C14 UNL     1      -2.480   8.823  -0.215  1.00  0.00     0.019 C 
ENDROOT
BRANCH   9  15
HETATM   15  N2  UNL     1       1.518  10.361  -0.022  1.00  0.00    -0.280 N 
ATOM     16  H2  UNL     1       0.990  10.940  -0.674  1.00  0.00     0.189 HD
BRANCH  15  17
HETATM   17  C8  UNL     1       2.653  10.770   0.493  1.00  0.00     0.163 A 
HETATM   18  N3  UNL     1       3.865  10.233   0.369  1.00  0.00    -0.345 N 
HETATM   19  C9  UNL     1       4.868  10.805   0.969  1.00  0.00     0.097 A 
ATOM     20  H3  UNL     1       4.005   9.389  -0.186  1.00  0.00     0.167 HD
HETATM   21  C10 UNL     1       4.623  11.934   1.701  1.00  0.00     0.070 A 
HETATM   22  S1  UNL     1       2.939  12.128   1.491  1.00  0.00    -0.063 SA
ENDBRANCH  15  17
ENDBRANCH   9  15
TORSDOF 2
ENDMDL
MODEL 2
REMARK VINA RESULT: -6.566137667      5.097      6.005
REMARK  2 active torsions:
REMARK  status: ('A' for Active; 'I' for Inactive)
REMARK    1  A    between atoms: N1_9  and  N2_11 
REMARK    2  A    between atoms: N2_11  and  C8_13 
ROOT
HETATM    1  C1  UNL     1       0.335   5.825  -3.791  1.00  0.00     0.046 C 
HETATM    2  C2  UNL     1       1.781   5.437  -3.708  1.00  0.00     0.061 C 
HETATM    3  C3  UNL     1       1.867   3.956  -4.082  1.00  0.00     0.046 C 
HETATM    4  O1  UNL     1       2.574   6.113  -4.627  1.00  0.00    -0.380 OA
HETATM    5  C4  UNL     1       2.694   7.454  -4.408  1.00  0.00     0.169 C 
HETATM    6  C5  UNL     1       3.098   7.832  -3.002  1.00  0.00     0.037 C 
HETATM    7  C6  UNL     1       2.278   7.098  -2.010  1.00  0.00     0.046 C 
HETATM    8  C7  UNL     1       2.784   7.064  -0.641  1.00  0.00     0.009 C 
HETATM    9  N1  UNL     1       3.513   7.889   0.008  1.00  0.00    -0.306 N 
ATOM     10  H1  UNL     1       3.749   7.656   0.973  1.00  0.00     0.186 HD
HETATM   11  C11 UNL     1       2.274   5.789  -0.041  1.00  0.00     0.055 C 
HETATM   12  C12 UNL     1       1.727   4.977  -1.222  1.00  0.00     0.018 C 
HETATM   13  C13 UNL     1       2.389   5.608  -2.375  1.00  0.00    -0.004 C 
HETATM   14  C14 UNL     1       3.844   5.243  -2.421  1.00  0.00     0.019 C 
ENDROOT
BRANCH   9  15
HETATM   15  N2  UNL     1       4.006   9.077  -0.507  1.00  0.00    -0.280 N 
ATOM     16  H2  UNL     1       4.293   9.156  -1.482  1.00  0.00     0.189 HD
BRANCH  15  17
HETATM   17  C8  UNL     1       4.086  10.096   0.315  1.00  0.00     0.163 A 
HETATM   18  N3  UNL     1       5.145  10.541   0.988  1.00  0.00    -0.345 N 
HETATM   19  C9  UNL     1       5.007  11.581   1.759  1.00  0.00     0.097 A 
ATOM     20  H3  UNL     1       6.049  10.075   0.902  1.00  0.00     0.167 HD
HETATM   21  C10 UNL     1       3.773  12.165   1.837  1.00  0.00     0.070 A 
HETATM   22  S1  UNL     1       2.853  11.183   0.786  1.00  0.00    -0.063 SA
ENDBRANCH  15  17
ENDBRANCH   9  15
TORSDOF 2
ENDMDL
MODEL 3
REMARK VINA RESULT: -6.560624983      3.759      5.514
REMARK  2 active torsions:
REMARK  status: ('A' for Active; 'I' for Inactive)
REMARK    1  A    between atoms: N1_9  and  N2_11 
REMARK    2  A    between atoms: N2_11  and  C8_13 
ROOT
HETATM    1  C1  UNL     1       2.106   7.709  -4.107  1.00  0.00     0.046 C 
HETATM    2  C2  UNL     1       2.951   7.417  -2.903  1.00  0.00     0.061 C 
HETATM    3  C3  UNL     1       3.195   5.906  -2.885  1.00  0.00     0.046 C 
HETATM    4  O1  UNL     1       4.205   8.010  -2.969  1.00  0.00    -0.380 OA
HETATM    5  C4  UNL     1       4.203   9.372  -2.910  1.00  0.00     0.169 C 
HETATM    6  C5  UNL     1       3.417   9.954  -1.758  1.00  0.00     0.037 C 
HETATM    7  C6  UNL     1       2.086   9.313  -1.659  1.00  0.00     0.046 C 
HETATM    8  C7  UNL     1       1.367   9.489  -0.400  1.00  0.00     0.009 C 
HETATM    9  N1  UNL     1       1.397  10.431   0.461  1.00  0.00    -0.306 N 
ATOM     10  H1  UNL     1       0.799  10.342   1.283  1.00  0.00     0.186 HD
HETATM   11  C11 UNL     1       0.499   8.278  -0.245  1.00  0.00     0.055 C 
HETATM   12  C12 UNL     1       0.993   7.287  -1.307  1.00  0.00     0.018 C 
HETATM   13  C13 UNL     1       2.338   7.796  -1.616  1.00  0.00    -0.004 C 
HETATM   14  C14 UNL     1       3.288   7.511  -0.489  1.00  0.00     0.019 C 
ENDROOT
BRANCH   9  15
HETATM   15  N2  UNL     1       2.184  11.567   0.358  1.00  0.00    -0.280 N 
ATOM     16  H2  UNL     1       2.148  12.167  -0.466  1.00  0.00     0.189 HD
BRANCH  15  17
HETATM   17  C8  UNL     1       2.978  11.837   1.367  1.00  0.00     0.163 A 
HETATM   18  N3  UNL     1       2.668  12.359   2.552  1.00  0.00    -0.345 N 
HETATM   19  C9  UNL     1       3.619  12.546   3.422  1.00  0.00     0.097 A 
ATOM     20  H3  UNL     1       1.704  12.607   2.775  1.00  0.00     0.167 HD
HETATM   21  C10 UNL     1       4.892  12.196   3.069  1.00  0.00     0.070 A 
HETATM   22  S1  UNL     1       4.667  11.604   1.483  1.00  0.00    -0.063 SA
ENDBRANCH  15  17
ENDBRANCH   9  15
TORSDOF 2
ENDMDL
MODEL 4
REMARK VINA RESULT: -6.508062116      4.870      6.255
REMARK  2 active torsions:
REMARK  status: ('A' for Active; 'I' for Inactive)
REMARK    1  A    between atoms: N1_9  and  N2_11 
REMARK    2  A    between atoms: N2_11  and  C8_13 
ROOT
HETATM    1  C1  UNL     1       3.360   4.246  -3.603  1.00  0.00     0.046 C 
HETATM    2  C2  UNL     1       2.175   4.895  -2.953  1.00  0.00     0.061 C 
HETATM    3  C3  UNL     1       0.937   4.438  -3.727  1.00  0.00     0.046 C 
HETATM    4  O1  UNL     1       1.985   4.478  -1.642  1.00  0.00    -0.380 OA
HETATM    5  C4  UNL     1       2.955   4.869  -0.766  1.00  0.00     0.169 C 
HETATM    6  C5  UNL     1       3.279   6.344  -0.797  1.00  0.00     0.037 C 
HETATM    7  C6  UNL     1       3.459   6.809  -2.192  1.00  0.00     0.046 C 
HETATM    8  C7  UNL     1       3.404   8.251  -2.413  1.00  0.00     0.009 C 
HETATM    9  N1  UNL     1       3.695   9.231  -1.648  1.00  0.00    -0.306 N 
ATOM     10  H1  UNL     1       3.577  10.174  -2.019  1.00  0.00     0.186 HD
HETATM   11  C11 UNL     1       2.902   8.437  -3.812  1.00  0.00     0.055 C 
HETATM   12  C12 UNL     1       2.391   7.057  -4.246  1.00  0.00     0.018 C 
HETATM   13  C13 UNL     1       2.200   6.370  -2.960  1.00  0.00    -0.004 C 
HETATM   14  C14 UNL     1       0.999   6.910  -2.239  1.00  0.00     0.019 C 
ENDROOT
BRANCH   9  15
HETATM   15  N2  UNL     1       4.162   9.104  -0.349  1.00  0.00    -0.280 N 
ATOM     16  H2  UNL     1       4.521   8.217   0.003  1.00  0.00     0.189 HD
BRANCH  15  17
HETATM   17  C8  UNL     1       4.121  10.175   0.407  1.00  0.00     0.163 A 
HETATM   18  N3  UNL     1       5.111  10.756   1.081  1.00  0.00    -0.345 N 
HETATM   19  C9  UNL     1       4.853  11.825   1.778  1.00  0.00     0.097 A 
ATOM     20  H3  UNL     1       6.055  10.371   1.052  1.00  0.00     0.167 HD
HETATM   21  C10 UNL     1       3.570  12.297   1.780  1.00  0.00     0.070 A 
HETATM   22  S1  UNL     1       2.780  11.172   0.768  1.00  0.00    -0.063 SA
ENDBRANCH  15  17
ENDBRANCH   9  15
TORSDOF 2
ENDMDL
MODEL 5
REMARK VINA RESULT: -6.432037454      1.892      2.448
REMARK  2 active torsions:
REMARK  status: ('A' for Active; 'I' for Inactive)
REMARK    1  A    between atoms: N1_9  and  N2_11 
REMARK    2  A    between atoms: N2_11  and  C8_13 
ROOT
HETATM    1  C1  UNL     1      -1.746   8.171   2.192  1.00  0.00     0.046 C 
HETATM    2  C2  UNL     1      -1.507   7.675   0.797  1.00  0.00     0.061 C 
HETATM    3  C3  UNL     1      -2.472   6.510   0.567  1.00  0.00     0.046 C 
HETATM    4  O1  UNL     1      -1.812   8.624  -0.171  1.00  0.00    -0.380 OA
HETATM    5  C4  UNL     1      -0.995   9.716  -0.185  1.00  0.00     0.169 C 
HETATM    6  C5  UNL     1       0.483   9.401  -0.218  1.00  0.00     0.037 C 
HETATM    7  C6  UNL     1       0.818   8.371   0.793  1.00  0.00     0.046 C 
HETATM    8  C7  UNL     1       2.103   7.697   0.637  1.00  0.00     0.009 C 
HETATM    9  N1  UNL     1       3.203   8.091   0.120  1.00  0.00    -0.306 N 
ATOM     10  H1  UNL     1       3.988   7.438   0.120  1.00  0.00     0.186 HD
HETATM   11  C11 UNL     1       1.931   6.333   1.231  1.00  0.00     0.055 C 
HETATM   12  C12 UNL     1       0.420   6.170   1.442  1.00  0.00     0.018 C 
HETATM   13  C13 UNL     1      -0.137   7.192   0.542  1.00  0.00    -0.004 C 
HETATM   14  C14 UNL     1       0.003   6.773  -0.893  1.00  0.00     0.019 C 
ENDROOT
BRANCH   9  15
HETATM   15  N2  UNL     1       3.406   9.342  -0.440  1.00  0.00    -0.280 N 
ATOM     16  H2  UNL     1       3.197   9.526  -1.421  1.00  0.00     0.189 HD
BRANCH  15  17
HETATM   17  C8  UNL     1       3.877  10.279   0.348  1.00  0.00     0.163 A 
HETATM   18  N3  UNL     1       5.113  10.422   0.825  1.00  0.00    -0.345 N 
HETATM   19  C9  UNL     1       5.372  11.435   1.599  1.00  0.00     0.097 A 
ATOM     20  H3  UNL     1       5.842   9.749   0.587  1.00  0.00     0.167 HD
HETATM   21  C10 UNL     1       4.357  12.305   1.884  1.00  0.00     0.070 A 
HETATM   22  S1  UNL     1       3.056  11.621   1.016  1.00  0.00    -0.063 SA
ENDBRANCH  15  17
ENDBRANCH   9  15
TORSDOF 2
ENDMDL
