MODEL 1
REMARK VINA RESULT: -5.700468799      0.000      0.000
REMARK  7 active torsions:
REMARK  status: ('A' for Active; 'I' for Inactive)
REMARK    1  A    between atoms: C2_2  and  O1_3 
REMARK    2  A    between atoms: O1_3  and  C3_4 
REMARK    3  A    between atoms: C3_4  and  C4_6 
REMARK    4  A    between atoms: C5_10  and  N2_11 
REMARK    5  A    between atoms: N2_11  and  C6_13 
REMARK    6  A    between atoms: C9_17  and  N3_18 
REMARK    7  A    between atoms: N3_18  and  N4_19 
ROOT
HETATM    1  C4  UNL     1       9.480   3.671  13.696  1.00  0.00     0.160 A 
HETATM    2  N1  UNL     1      10.324   4.277  14.536  1.00  0.00    -0.317 N 
ATOM      3  H1  UNL     1      10.277   5.231  14.894  1.00  0.00     0.175 HD
HETATM    4  S1  UNL     1      11.479   3.107  14.865  1.00  0.00     0.008 SA
HETATM    5  C5  UNL     1      10.860   1.835  13.911  1.00  0.00     0.135 A 
HETATM    6  C9  UNL     1       9.746   2.398  13.361  1.00  0.00     0.198 A 
ENDROOT
BRANCH   5   7
HETATM    7  N2  UNL     1      11.326   0.621  13.739  1.00  0.00    -0.346 N 
ATOM      8  H2  UNL     1      11.909   0.406  12.930  1.00  0.00     0.163 HD
BRANCH   7   9
HETATM    9  C6  UNL     1      11.011  -0.411  14.700  1.00  0.00     0.169 C 
HETATM   10  C7  UNL     1      12.230  -1.104  15.245  1.00  0.00     0.076 C 
HETATM   11  C8  UNL     1      10.004  -1.412  14.183  1.00  0.00     0.076 C 
HETATM   12  F1  UNL     1      10.388   0.235  15.777  1.00  0.00    -0.220 F 
ENDBRANCH   7   9
ENDBRANCH   5   7
BRANCH   6  13
HETATM   13  N3  UNL     1       8.935   1.646  12.485  1.00  0.00    -0.328 NA
BRANCH  13  14
HETATM   14  N4  UNL     1       8.266   1.044  11.786  1.00  0.00    -0.280 N 
ATOM     15  H42 UNL     1       8.821   0.971  12.639  1.00  0.00     0.191 HD
ATOM     16  H41 UNL     1       7.666   0.517  11.152  1.00  0.00     0.191 HD
ENDBRANCH  13  14
ENDBRANCH   6  13
BRANCH   1  17
HETATM   17  C3  UNL     1       8.306   4.447  13.191  1.00  0.00     0.314 C 
HETATM   18  O2  UNL     1       8.343   5.708  13.112  1.00  0.00    -0.257 OA
BRANCH  17  19
HETATM   19  O1  UNL     1       7.146   3.847  12.795  1.00  0.00    -0.317 OA
BRANCH  19  20
HETATM   20  C2  UNL     1       5.958   3.832  13.545  1.00  0.00     0.175 C 
HETATM   21  C1  UNL     1       5.623   2.451  14.042  1.00  0.00     0.034 C 
ENDBRANCH  19  20
ENDBRANCH  17  19
ENDBRANCH   1  17
TORSDOF 7
ENDMDL
MODEL 2
REMARK VINA RESULT: -5.581226695      2.974      4.261
REMARK  7 active torsions:
REMARK  status: ('A' for Active; 'I' for Inactive)
REMARK    1  A    between atoms: C2_2  and  O1_3 
REMARK    2  A    between atoms: O1_3  and  C3_4 
REMARK    3  A    between atoms: C3_4  and  C4_6 
REMARK    4  A    between atoms: C5_10  and  N2_11 
REMARK    5  A    between atoms: N2_11  and  C6_13 
REMARK    6  A    between atoms: C9_17  and  N3_18 
REMARK    7  A    between atoms: N3_18  and  N4_19 
ROOT
HETATM    1  C4  UNL     1      10.146   4.632  12.478  1.00  0.00     0.160 A 
HETATM    2  N1  UNL     1       9.028   5.348  12.326  1.00  0.00    -0.317 N 
ATOM      3  H1  UNL     1       8.929   6.280  11.924  1.00  0.00     0.175 HD
HETATM    4  S1  UNL     1       7.826   4.360  12.950  1.00  0.00     0.008 SA
HETATM    5  C5  UNL     1       8.780   3.020  13.405  1.00  0.00     0.135 A 
HETATM    6  C9  UNL     1      10.032   3.417  13.038  1.00  0.00     0.198 A 
ENDROOT
BRANCH   5   7
HETATM    7  N2  UNL     1       8.416   1.892  13.966  1.00  0.00    -0.346 N 
ATOM      8  H2  UNL     1       8.342   1.825  14.980  1.00  0.00     0.163 HD
BRANCH   7   9
HETATM    9  C6  UNL     1       8.122   0.744  13.140  1.00  0.00     0.169 C 
HETATM   10  C7  UNL     1       9.031  -0.425  13.407  1.00  0.00     0.076 C 
HETATM   11  C8  UNL     1       8.080   1.071  11.665  1.00  0.00     0.076 C 
HETATM   12  F1  UNL     1       6.822   0.341  13.478  1.00  0.00    -0.220 F 
ENDBRANCH   7   9
ENDBRANCH   5   7
BRANCH   6  13
HETATM   13  N3  UNL     1      11.134   2.562  13.255  1.00  0.00    -0.328 NA
BRANCH  13  14
HETATM   14  N4  UNL     1      12.030   1.883  13.440  1.00  0.00    -0.280 N 
ATOM     15  H42 UNL     1      11.399   2.537  13.905  1.00  0.00     0.191 HD
ATOM     16  H41 UNL     1      12.832   1.272  13.592  1.00  0.00     0.191 HD
ENDBRANCH  13  14
ENDBRANCH   6  13
BRANCH   1  17
HETATM   17  C3  UNL     1      11.437   5.229  12.016  1.00  0.00     0.314 C 
HETATM   18  O2  UNL     1      11.452   6.235  11.251  1.00  0.00    -0.257 OA
BRANCH  17  19
HETATM   19  O1  UNL     1      12.650   4.729  12.387  1.00  0.00    -0.317 OA
BRANCH  19  20
HETATM   20  C2  UNL     1      13.511   5.331  13.320  1.00  0.00     0.175 C 
HETATM   21  C1  UNL     1      12.918   5.353  14.703  1.00  0.00     0.034 C 
ENDBRANCH  19  20
ENDBRANCH  17  19
ENDBRANCH   1  17
TORSDOF 7
ENDMDL
MODEL 3
REMARK VINA RESULT: -5.508587216      3.053      4.618
REMARK  7 active torsions:
REMARK  status: ('A' for Active; 'I' for Inactive)
REMARK    1  A    between atoms: C2_2  and  O1_3 
REMARK    2  A    between atoms: O1_3  and  C3_4 
REMARK    3  A    between atoms: C3_4  and  C4_6 
REMARK    4  A    between atoms: C5_10  and  N2_11 
REMARK    5  A    between atoms: N2_11  and  C6_13 
REMARK    6  A    between atoms: C9_17  and  N3_18 
REMARK    7  A    between atoms: N3_18  and  N4_19 
ROOT
HETATM    1  C4  UNL     1      11.308   4.343  14.225  1.00  0.00     0.160 A 
HETATM    2  N1  UNL     1      10.963   4.920  13.070  1.00  0.00    -0.317 N 
ATOM      3  H1  UNL     1      11.347   5.768  12.652  1.00  0.00     0.175 HD
HETATM    4  S1  UNL     1       9.753   3.930  12.467  1.00  0.00     0.008 SA
HETATM    5  C5  UNL     1       9.700   2.769  13.717  1.00  0.00     0.135 A 
HETATM    6  C9  UNL     1      10.659   3.221  14.575  1.00  0.00     0.198 A 
ENDROOT
BRANCH   5   7
HETATM    7  N2  UNL     1       8.937   1.709  13.836  1.00  0.00    -0.346 N 
ATOM      8  H2  UNL     1       8.074   1.757  14.377  1.00  0.00     0.163 HD
BRANCH   7   9
HETATM    9  C6  UNL     1       9.325   0.471  13.199  1.00  0.00     0.169 C 
HETATM   10  C7  UNL     1       8.434   0.096  12.046  1.00  0.00     0.076 C 
HETATM   11  C8  UNL     1       9.463  -0.677  14.172  1.00  0.00     0.076 C 
HETATM   12  F1  UNL     1      10.608   0.685  12.676  1.00  0.00    -0.220 F 
ENDBRANCH   7   9
ENDBRANCH   5   7
BRANCH   6  13
HETATM   13  N3  UNL     1      10.928   2.516  15.767  1.00  0.00    -0.328 NA
BRANCH  13  14
HETATM   14  N4  UNL     1      11.129   1.940  16.729  1.00  0.00    -0.280 N 
ATOM     15  H42 UNL     1      11.537   2.630  16.098  1.00  0.00     0.191 HD
ATOM     16  H41 UNL     1      11.296   1.417  17.589  1.00  0.00     0.191 HD
ENDBRANCH  13  14
ENDBRANCH   6  13
BRANCH   1  17
HETATM   17  C3  UNL     1      12.386   4.982  15.041  1.00  0.00     0.314 C 
HETATM   18  O2  UNL     1      12.110   5.642  16.082  1.00  0.00    -0.257 OA
BRANCH  17  19
HETATM   19  O1  UNL     1      13.707   4.890  14.711  1.00  0.00    -0.317 OA
BRANCH  19  20
HETATM   20  C2  UNL     1      14.298   3.782  14.080  1.00  0.00     0.175 C 
HETATM   21  C1  UNL     1      14.581   2.667  15.050  1.00  0.00     0.034 C 
ENDBRANCH  19  20
ENDBRANCH  17  19
ENDBRANCH   1  17
TORSDOF 7
ENDMDL
MODEL 4
REMARK VINA RESULT: -5.507601660      3.310      4.695
REMARK  7 active torsions:
REMARK  status: ('A' for Active; 'I' for Inactive)
REMARK    1  A    between atoms: C2_2  and  O1_3 
REMARK    2  A    between atoms: O1_3  and  C3_4 
REMARK    3  A    between atoms: C3_4  and  C4_6 
REMARK    4  A    between atoms: C5_10  and  N2_11 
REMARK    5  A    between atoms: N2_11  and  C6_13 
REMARK    6  A    between atoms: C9_17  and  N3_18 
REMARK    7  A    between atoms: N3_18  and  N4_19 
ROOT
HETATM    1  C4  UNL     1      11.450   4.532  14.073  1.00  0.00     0.160 A 
HETATM    2  N1  UNL     1      11.172   4.937  12.831  1.00  0.00    -0.317 N 
ATOM      3  H1  UNL     1      11.581   5.719  12.319  1.00  0.00     0.175 HD
HETATM    4  S1  UNL     1       9.995   3.865  12.308  1.00  0.00     0.008 SA
HETATM    5  C5  UNL     1       9.868   2.893  13.705  1.00  0.00     0.135 A 
HETATM    6  C9  UNL     1      10.779   3.467  14.542  1.00  0.00     0.198 A 
ENDROOT
BRANCH   5   7
HETATM    7  N2  UNL     1       9.097   1.856  13.931  1.00  0.00    -0.346 N 
ATOM      8  H2  UNL     1       8.272   1.951  14.521  1.00  0.00     0.163 HD
BRANCH   7   9
HETATM    9  C6  UNL     1       9.423   0.579  13.340  1.00  0.00     0.169 C 
HETATM   10  C7  UNL     1       8.531   0.218  12.183  1.00  0.00     0.076 C 
HETATM   11  C8  UNL     1       9.478  -0.543  14.351  1.00  0.00     0.076 C 
HETATM   12  F1  UNL     1      10.725   0.701  12.835  1.00  0.00    -0.220 F 
ENDBRANCH   7   9
ENDBRANCH   5   7
BRANCH   6  13
HETATM   13  N3  UNL     1      10.979   2.939  15.836  1.00  0.00    -0.328 NA
BRANCH  13  14
HETATM   14  N4  UNL     1      11.136   2.528  16.886  1.00  0.00    -0.280 N 
ATOM     15  H42 UNL     1      11.292   3.354  16.309  1.00  0.00     0.191 HD
ATOM     16  H41 UNL     1      11.269   2.146  17.823  1.00  0.00     0.191 HD
ENDBRANCH  13  14
ENDBRANCH   6  13
BRANCH   1  17
HETATM   17  C3  UNL     1      12.483   5.285  14.849  1.00  0.00     0.314 C 
HETATM   18  O2  UNL     1      13.528   5.723  14.289  1.00  0.00    -0.257 OA
BRANCH  17  19
HETATM   19  O1  UNL     1      12.357   5.538  16.184  1.00  0.00    -0.317 OA
BRANCH  19  20
HETATM   20  C2  UNL     1      13.431   5.794  17.053  1.00  0.00     0.175 C 
HETATM   21  C1  UNL     1      14.073   4.525  17.545  1.00  0.00     0.034 C 
ENDBRANCH  19  20
ENDBRANCH  17  19
ENDBRANCH   1  17
TORSDOF 7
ENDMDL
MODEL 5
REMARK VINA RESULT: -5.496229506      3.078      4.496
REMARK  7 active torsions:
REMARK  status: ('A' for Active; 'I' for Inactive)
REMARK    1  A    between atoms: C2_2  and  O1_3 
REMARK    2  A    between atoms: O1_3  and  C3_4 
REMARK    3  A    between atoms: C3_4  and  C4_6 
REMARK    4  A    between atoms: C5_10  and  N2_11 
REMARK    5  A    between atoms: N2_11  and  C6_13 
REMARK    6  A    between atoms: C9_17  and  N3_18 
REMARK    7  A    between atoms: N3_18  and  N4_19 
ROOT
HETATM    1  C4  UNL     1      11.113   2.750  15.920  1.00  0.00     0.160 A 
HETATM    2  N1  UNL     1      11.609   1.577  16.326  1.00  0.00    -0.317 N 
ATOM      3  H1  UNL     1      12.128   1.377  17.181  1.00  0.00     0.175 HD
HETATM    4  S1  UNL     1      11.181   0.511  15.105  1.00  0.00     0.008 SA
HETATM    5  C5  UNL     1      10.359   1.592  14.072  1.00  0.00     0.135 A 
HETATM    6  C9  UNL     1      10.458   2.773  14.748  1.00  0.00     0.198 A 
ENDROOT
BRANCH   5   7
HETATM    7  N2  UNL     1       9.776   1.362  12.920  1.00  0.00    -0.346 N 
ATOM      8  H2  UNL     1      10.186   1.720  12.058  1.00  0.00     0.163 HD
BRANCH   7   9
HETATM    9  C6  UNL     1       8.550   0.599  12.877  1.00  0.00     0.169 C 
HETATM   10  C7  UNL     1       8.133   0.228  11.479  1.00  0.00     0.076 C 
HETATM   11  C8  UNL     1       7.415   1.261  13.623  1.00  0.00     0.076 C 
HETATM   12  F1  UNL     1       8.809  -0.597  13.561  1.00  0.00    -0.220 F 
ENDBRANCH   7   9
ENDBRANCH   5   7
BRANCH   6  13
HETATM   13  N3  UNL     1       9.888   3.945  14.207  1.00  0.00    -0.328 NA
BRANCH  13  14
HETATM   14  N4  UNL     1       9.443   4.896  13.764  1.00  0.00    -0.280 N 
ATOM     15  H42 UNL     1      10.330   4.430  13.955  1.00  0.00     0.191 HD
ATOM     16  H41 UNL     1       9.030   5.741  13.370  1.00  0.00     0.191 HD
ENDBRANCH  13  14
ENDBRANCH   6  13
BRANCH   1  17
HETATM   17  C3  UNL     1      11.319   3.946  16.794  1.00  0.00     0.314 C 
HETATM   18  O2  UNL     1      11.221   3.858  18.051  1.00  0.00    -0.257 OA
BRANCH  17  19
HETATM   19  O1  UNL     1      11.618   5.178  16.291  1.00  0.00    -0.317 OA
BRANCH  19  20
HETATM   20  C2  UNL     1      12.905   5.595  15.912  1.00  0.00     0.175 C 
HETATM   21  C1  UNL     1      13.095   5.551  14.420  1.00  0.00     0.034 C 
ENDBRANCH  19  20
ENDBRANCH  17  19
ENDBRANCH   1  17
TORSDOF 7
ENDMDL
