MODEL 1
REMARK VINA RESULT: -5.788774659      0.000      0.000
REMARK  3 active torsions:
REMARK  status: ('A' for Active; 'I' for Inactive)
REMARK    1  A    between atoms: O1_1  and  C1_3 
REMARK    2  A    between atoms: C5_10  and  C6_11 
REMARK    3  A    between atoms: N1_12  and  N2_14 
ROOT
HETATM    1  C1  UNL     1       9.171   1.853  13.641  1.00  0.00     0.123 A 
HETATM    2  C2  UNL     1       8.799   3.048  13.048  1.00  0.00     0.152 A 
HETATM    3  F1  UNL     1       7.447   3.259  12.916  1.00  0.00    -0.203 F 
HETATM    4  C3  UNL     1       9.618   4.021  12.591  1.00  0.00     0.076 A 
HETATM    5  C4  UNL     1      10.994   4.009  12.626  1.00  0.00     0.075 A 
HETATM    6  S1  UNL     1      11.860   5.257  12.035  1.00  0.00    -0.072 SA
HETATM    7  S2  UNL     1      11.668   2.614  13.324  1.00  0.00    -0.074 SA
HETATM    8  C5  UNL     1      10.478   1.474  13.855  1.00  0.00     0.059 A 
ENDROOT
BRANCH   8   9
HETATM    9  C6  UNL     1      10.844   0.211  14.481  1.00  0.00     0.128 C 
HETATM   10  N1  UNL     1      10.516   0.077  15.724  1.00  0.00    -0.313 N 
ATOM     11  H1  UNL     1      10.031   0.854  16.172  1.00  0.00     0.185 HD
BRANCH  10  12
HETATM   12  N2  UNL     1      10.776  -1.044  16.489  1.00  0.00    -0.328 N 
HETATM   13  C7  UNL     1      11.743  -2.064  16.187  1.00  0.00     0.142 C 
HETATM   14  C8  UNL     1      10.955  -3.331  16.503  1.00  0.00     0.023 C 
HETATM   15  C9  UNL     1      10.248  -2.923  17.779  1.00  0.00     0.023 C 
HETATM   16  C10 UNL     1      10.140  -1.407  17.723  1.00  0.00     0.142 C 
ENDBRANCH  10  12
ENDBRANCH   8   9
BRANCH   1  17
HETATM   17  O1  UNL     1       8.170   0.981  14.046  1.00  0.00    -0.356 OA
ATOM     18  H1  UNL     1       7.573   0.647  13.388  1.00  0.00     0.218 HD
ENDBRANCH   1  17
TORSDOF 3
ENDMDL
MODEL 2
REMARK VINA RESULT: -5.724566159      0.902      1.144
REMARK  3 active torsions:
REMARK  status: ('A' for Active; 'I' for Inactive)
REMARK    1  A    between atoms: O1_1  and  C1_3 
REMARK    2  A    between atoms: C5_10  and  C6_11 
REMARK    3  A    between atoms: N1_12  and  N2_14 
ROOT
HETATM    1  C1  UNL     1       9.233   1.883  13.724  1.00  0.00     0.123 A 
HETATM    2  C2  UNL     1       8.840   2.894  12.862  1.00  0.00     0.152 A 
HETATM    3  F1  UNL     1       7.512   2.901  12.508  1.00  0.00    -0.203 F 
HETATM    4  C3  UNL     1       9.618   3.867  12.337  1.00  0.00     0.076 A 
HETATM    5  C4  UNL     1      10.966   4.040  12.561  1.00  0.00     0.075 A 
HETATM    6  S1  UNL     1      11.784   5.262  11.858  1.00  0.00    -0.072 SA
HETATM    7  S2  UNL     1      11.659   2.892  13.605  1.00  0.00    -0.074 SA
HETATM    8  C5  UNL     1      10.522   1.722  14.184  1.00  0.00     0.059 A 
ENDROOT
BRANCH   8   9
HETATM    9  C6  UNL     1      10.910   0.650  15.090  1.00  0.00     0.128 C 
HETATM   10  N1  UNL     1      11.049  -0.520  14.560  1.00  0.00    -0.313 N 
ATOM     11  H1  UNL     1      10.880  -0.610  13.558  1.00  0.00     0.185 HD
BRANCH  10  12
HETATM   12  N2  UNL     1      11.411  -1.659  15.253  1.00  0.00    -0.328 N 
HETATM   13  C7  UNL     1      10.719  -2.919  15.222  1.00  0.00     0.142 C 
HETATM   14  C8  UNL     1      10.718  -3.300  16.699  1.00  0.00     0.023 C 
HETATM   15  C9  UNL     1      12.122  -2.901  17.103  1.00  0.00     0.023 C 
HETATM   16  C10 UNL     1      12.537  -1.808  16.130  1.00  0.00     0.142 C 
ENDBRANCH  10  12
ENDBRANCH   8   9
BRANCH   1  17
HETATM   17  O1  UNL     1       8.274   0.977  14.153  1.00  0.00    -0.356 OA
ATOM     18  H1  UNL     1       7.525   1.310  14.632  1.00  0.00     0.218 HD
ENDBRANCH   1  17
TORSDOF 3
ENDMDL
MODEL 3
REMARK VINA RESULT: -5.650375719      0.762      1.137
REMARK  3 active torsions:
REMARK  status: ('A' for Active; 'I' for Inactive)
REMARK    1  A    between atoms: O1_1  and  C1_3 
REMARK    2  A    between atoms: C5_10  and  C6_11 
REMARK    3  A    between atoms: N1_12  and  N2_14 
ROOT
HETATM    1  C1  UNL     1       9.136   1.962  13.753  1.00  0.00     0.123 A 
HETATM    2  C2  UNL     1       8.822   2.930  12.813  1.00  0.00     0.152 A 
HETATM    3  F1  UNL     1       7.523   2.935  12.364  1.00  0.00    -0.203 F 
HETATM    4  C3  UNL     1       9.652   3.863  12.294  1.00  0.00     0.076 A 
HETATM    5  C4  UNL     1      10.983   4.030  12.605  1.00  0.00     0.075 A 
HETATM    6  S1  UNL     1      11.869   5.202  11.899  1.00  0.00    -0.072 SA
HETATM    7  S2  UNL     1      11.581   2.931  13.755  1.00  0.00    -0.074 SA
HETATM    8  C5  UNL     1      10.386   1.809  14.312  1.00  0.00     0.059 A 
ENDROOT
BRANCH   8   9
HETATM    9  C6  UNL     1      10.691   0.783  15.300  1.00  0.00     0.128 C 
HETATM   10  N1  UNL     1      10.381  -0.429  14.974  1.00  0.00    -0.313 N 
ATOM     11  H1  UNL     1       9.951  -0.579  14.062  1.00  0.00     0.185 HD
BRANCH  10  12
HETATM   12  N2  UNL     1      10.590  -1.536  15.775  1.00  0.00    -0.328 N 
HETATM   13  C7  UNL     1      10.805  -1.518  17.196  1.00  0.00     0.142 C 
HETATM   14  C8  UNL     1      11.952  -2.513  17.341  1.00  0.00     0.023 C 
HETATM   15  C9  UNL     1      11.521  -3.596  16.374  1.00  0.00     0.023 C 
HETATM   16  C10 UNL     1      10.633  -2.906  15.350  1.00  0.00     0.142 C 
ENDBRANCH  10  12
ENDBRANCH   8   9
BRANCH   1  17
HETATM   17  O1  UNL     1       8.134   1.092  14.159  1.00  0.00    -0.356 OA
ATOM     18  H1  UNL     1       7.960   0.327  13.624  1.00  0.00     0.218 HD
ENDBRANCH   1  17
TORSDOF 3
ENDMDL
MODEL 4
REMARK VINA RESULT: -5.553511118      4.400      5.483
REMARK  3 active torsions:
REMARK  status: ('A' for Active; 'I' for Inactive)
REMARK    1  A    between atoms: O1_1  and  C1_3 
REMARK    2  A    between atoms: C5_10  and  C6_11 
REMARK    3  A    between atoms: N1_12  and  N2_14 
ROOT
HETATM    1  C1  UNL     1      11.636   4.049  12.601  1.00  0.00     0.123 A 
HETATM    2  C2  UNL     1      12.909   4.587  12.698  1.00  0.00     0.152 A 
HETATM    3  F1  UNL     1      13.171   5.665  11.886  1.00  0.00    -0.203 F 
HETATM    4  C3  UNL     1      13.913   4.166  13.499  1.00  0.00     0.076 A 
HETATM    5  C4  UNL     1      13.861   3.111  14.383  1.00  0.00     0.075 A 
HETATM    6  S1  UNL     1      15.153   2.712  15.291  1.00  0.00    -0.072 SA
HETATM    7  S2  UNL     1      12.367   2.301  14.424  1.00  0.00    -0.074 SA
HETATM    8  C5  UNL     1      11.198   2.970  13.337  1.00  0.00     0.059 A 
ENDROOT
BRANCH   8   9
HETATM    9  C6  UNL     1       9.853   2.424  13.218  1.00  0.00     0.128 C 
HETATM   10  N1  UNL     1       8.884   3.272  13.323  1.00  0.00    -0.313 N 
ATOM     11  H1  UNL     1       9.125   4.251  13.479  1.00  0.00     0.185 HD
BRANCH  10  12
HETATM   12  N2  UNL     1       7.543   2.948  13.238  1.00  0.00    -0.328 N 
HETATM   13  C7  UNL     1       6.491   3.826  12.802  1.00  0.00     0.142 C 
HETATM   14  C8  UNL     1       5.408   3.537  13.838  1.00  0.00     0.023 C 
HETATM   15  C9  UNL     1       5.515   2.031  13.957  1.00  0.00     0.023 C 
HETATM   16  C10 UNL     1       6.944   1.686  13.564  1.00  0.00     0.142 C 
ENDBRANCH  10  12
ENDBRANCH   8   9
BRANCH   1  17
HETATM   17  O1  UNL     1      10.744   4.631  11.712  1.00  0.00    -0.356 OA
ATOM     18  H1  UNL     1      10.251   4.061  11.134  1.00  0.00     0.218 HD
ENDBRANCH   1  17
TORSDOF 3
ENDMDL
MODEL 5
REMARK VINA RESULT: -5.475654811      1.678      1.837
REMARK  3 active torsions:
REMARK  status: ('A' for Active; 'I' for Inactive)
REMARK    1  A    between atoms: O1_1  and  C1_3 
REMARK    2  A    between atoms: C5_10  and  C6_11 
REMARK    3  A    between atoms: N1_12  and  N2_14 
ROOT
HETATM    1  C1  UNL     1       9.172   0.318  13.234  1.00  0.00     0.123 A 
HETATM    2  C2  UNL     1       8.384   1.108  12.412  1.00  0.00     0.152 A 
HETATM    3  F1  UNL     1       7.597   0.437  11.507  1.00  0.00    -0.203 F 
HETATM    4  C3  UNL     1       8.309   2.457  12.407  1.00  0.00     0.076 A 
HETATM    5  C4  UNL     1       9.009   3.314  13.227  1.00  0.00     0.075 A 
HETATM    6  S1  UNL     1       8.820   4.929  13.112  1.00  0.00    -0.072 SA
HETATM    7  S2  UNL     1      10.049   2.543  14.328  1.00  0.00    -0.074 SA
HETATM    8  C5  UNL     1      10.021   0.816  14.198  1.00  0.00     0.059 A 
ENDROOT
BRANCH   8   9
HETATM    9  C6  UNL     1      10.839  -0.036  15.050  1.00  0.00     0.128 C 
HETATM   10  N1  UNL     1      10.220  -0.998  15.652  1.00  0.00    -0.313 N 
ATOM     11  H1  UNL     1       9.218  -1.092  15.490  1.00  0.00     0.185 HD
BRANCH  10  12
HETATM   12  N2  UNL     1      10.821  -1.909  16.500  1.00  0.00    -0.328 N 
HETATM   13  C7  UNL     1      12.200  -2.313  16.461  1.00  0.00     0.142 C 
HETATM   14  C8  UNL     1      12.079  -3.822  16.644  1.00  0.00     0.023 C 
HETATM   15  C9  UNL     1      11.008  -3.900  17.713  1.00  0.00     0.023 C 
HETATM   16  C10 UNL     1      10.194  -2.623  17.575  1.00  0.00     0.142 C 
ENDBRANCH  10  12
ENDBRANCH   8   9
BRANCH   1  17
HETATM   17  O1  UNL     1       9.104  -1.060  13.081  1.00  0.00    -0.356 OA
ATOM     18  H1  UNL     1       9.098  -1.413  12.200  1.00  0.00     0.218 HD
ENDBRANCH   1  17
TORSDOF 3
ENDMDL
