MODEL 1
REMARK VINA RESULT: -6.829979014      0.000      0.000
REMARK  3 active torsions:
REMARK  status: ('A' for Active; 'I' for Inactive)
REMARK    1  A    between atoms: N1_2  and  C1_4 
REMARK    2  A    between atoms: C2_5  and  O3_6 
REMARK    3  A    between atoms: C3_9  and  N2_10 
ROOT
HETATM    1  C1  UNL     1      12.011   3.803  13.107  1.00  0.00     0.186 A 
HETATM    2  C2  UNL     1      11.604   4.726  12.169  1.00  0.00     0.221 A 
HETATM    3  O4  UNL     1      10.321   4.643  12.022  1.00  0.00    -0.267 OA
HETATM    4  C3  UNL     1       9.779   3.721  12.792  1.00  0.00     0.173 A 
HETATM    5  C9  UNL     1      10.845   3.167  13.500  1.00  0.00     0.123 A 
HETATM    6 CL1  UNL     1      10.675   1.892  14.659  1.00  0.00    -0.077 Cl
ENDROOT
BRANCH   4   7
HETATM    7  N2  UNL     1       8.404   3.361  12.893  1.00  0.00    -0.360 N 
HETATM    8  C4  UNL     1       7.476   4.378  13.337  1.00  0.00     0.125 C 
HETATM    9  C5  UNL     1       6.078   3.814  13.103  1.00  0.00     0.020 C 
HETATM   10  C6  UNL     1       6.002   2.566  13.971  1.00  0.00     0.003 C 
HETATM   11  C7  UNL     1       6.903   1.490  13.425  1.00  0.00     0.020 C 
HETATM   12  C8  UNL     1       7.988   2.015  12.546  1.00  0.00     0.125 C 
ENDBRANCH   4   7
BRANCH   2  13
HETATM   13  O3  UNL     1      12.510   5.586  11.520  1.00  0.00    -0.339 OA
ATOM     14  H3  UNL     1      12.543   6.518  11.703  1.00  0.00     0.220 HD
ENDBRANCH   2  13
BRANCH   1  15
HETATM   15  N1  UNL     1      13.319   3.543  13.604  1.00  0.00    -0.109 N 
HETATM   16  O1  UNL     1      13.992   4.459  14.104  1.00  0.00    -0.532 OA
HETATM   17  O2  UNL     1      13.815   2.258  13.504  1.00  0.00    -0.532 OA
ENDBRANCH   1  15
TORSDOF 3
ENDMDL
MODEL 2
REMARK VINA RESULT: -6.828282555      1.859      2.623
REMARK  3 active torsions:
REMARK  status: ('A' for Active; 'I' for Inactive)
REMARK    1  A    between atoms: N1_2  and  C1_4 
REMARK    2  A    between atoms: C2_5  and  O3_6 
REMARK    3  A    between atoms: C3_9  and  N2_10 
ROOT
HETATM    1  C1  UNL     1      11.916   4.708  13.934  1.00  0.00     0.186 A 
HETATM    2  C2  UNL     1      11.745   4.861  12.576  1.00  0.00     0.221 A 
HETATM    3  O4  UNL     1      10.964   3.927  12.139  1.00  0.00    -0.267 OA
HETATM    4  C3  UNL     1      10.562   3.112  13.093  1.00  0.00     0.173 A 
HETATM    5  C9  UNL     1      11.160   3.593  14.257  1.00  0.00     0.123 A 
HETATM    6 CL1  UNL     1      10.959   2.869  15.817  1.00  0.00    -0.077 Cl
ENDROOT
BRANCH   4   7
HETATM    7  N2  UNL     1       9.701   1.982  12.976  1.00  0.00    -0.360 N 
HETATM    8  C4  UNL     1      10.282   0.674  13.190  1.00  0.00     0.125 C 
HETATM    9  C5  UNL     1       9.113  -0.305  13.265  1.00  0.00     0.020 C 
HETATM   10  C6  UNL     1       8.427  -0.209  11.909  1.00  0.00     0.003 C 
HETATM   11  C7  UNL     1       7.748   1.126  11.757  1.00  0.00     0.020 C 
HETATM   12  C8  UNL     1       8.300   2.178  12.659  1.00  0.00     0.125 C 
ENDBRANCH   4   7
BRANCH   2  13
HETATM   13  O3  UNL     1      12.362   5.902  11.855  1.00  0.00    -0.339 OA
ATOM     14  H3  UNL     1      13.306   5.975  11.780  1.00  0.00     0.220 HD
ENDBRANCH   2  13
BRANCH   1  15
HETATM   15  N1  UNL     1      12.671   5.505  14.841  1.00  0.00    -0.109 N 
HETATM   16  O1  UNL     1      13.773   5.964  14.502  1.00  0.00    -0.532 OA
HETATM   17  O2  UNL     1      12.149   5.736  16.098  1.00  0.00    -0.532 OA
ENDBRANCH   1  15
TORSDOF 3
ENDMDL
MODEL 3
REMARK VINA RESULT: -6.669732427      2.645      5.441
REMARK  3 active torsions:
REMARK  status: ('A' for Active; 'I' for Inactive)
REMARK    1  A    between atoms: N1_2  and  C1_4 
REMARK    2  A    between atoms: C2_5  and  O3_6 
REMARK    3  A    between atoms: C3_9  and  N2_10 
ROOT
HETATM    1  C1  UNL     1       7.922   2.827  13.377  1.00  0.00     0.186 A 
HETATM    2  C2  UNL     1       7.620   4.170  13.421  1.00  0.00     0.221 A 
HETATM    3  O4  UNL     1       8.720   4.852  13.440  1.00  0.00    -0.267 OA
HETATM    4  C3  UNL     1       9.793   4.087  13.413  1.00  0.00     0.173 A 
HETATM    5  C9  UNL     1       9.307   2.781  13.372  1.00  0.00     0.123 A 
HETATM    6 CL1  UNL     1      10.317   1.375  13.330  1.00  0.00    -0.077 Cl
ENDROOT
BRANCH   4   7
HETATM    7  N2  UNL     1      11.159   4.493  13.421  1.00  0.00    -0.360 N 
HETATM    8  C4  UNL     1      11.837   4.586  12.146  1.00  0.00     0.125 C 
HETATM    9  C5  UNL     1      13.168   5.279  12.420  1.00  0.00     0.020 C 
HETATM   10  C6  UNL     1      13.906   4.359  13.383  1.00  0.00     0.003 C 
HETATM   11  C7  UNL     1      13.234   4.362  14.730  1.00  0.00     0.020 C 
HETATM   12  C8  UNL     1      11.808   4.800  14.681  1.00  0.00     0.125 C 
ENDBRANCH   4   7
BRANCH   2  13
HETATM   13  O3  UNL     1       6.293   4.640  13.439  1.00  0.00    -0.339 OA
ATOM     14  H3  UNL     1       5.787   4.696  14.241  1.00  0.00     0.220 HD
ENDBRANCH   2  13
BRANCH   1  15
HETATM   15  N1  UNL     1       7.043   1.709  13.325  1.00  0.00    -0.109 N 
HETATM   16  O1  UNL     1       6.108   1.609  14.135  1.00  0.00    -0.532 OA
HETATM   17  O2  UNL     1       7.269   0.744  12.363  1.00  0.00    -0.532 OA
ENDBRANCH   1  15
TORSDOF 3
ENDMDL
MODEL 4
REMARK VINA RESULT: -6.493573026      0.895      1.207
REMARK  3 active torsions:
REMARK  status: ('A' for Active; 'I' for Inactive)
REMARK    1  A    between atoms: N1_2  and  C1_4 
REMARK    2  A    between atoms: C2_5  and  O3_6 
REMARK    3  A    between atoms: C3_9  and  N2_10 
ROOT
HETATM    1  C1  UNL     1      11.927   4.669  13.563  1.00  0.00     0.186 A 
HETATM    2  C2  UNL     1      11.650   5.075  12.277  1.00  0.00     0.221 A 
HETATM    3  O4  UNL     1      10.449   4.708  11.965  1.00  0.00    -0.267 OA
HETATM    4  C3  UNL     1       9.844   4.064  12.944  1.00  0.00     0.173 A 
HETATM    5  C9  UNL     1      10.773   4.027  13.982  1.00  0.00     0.123 A 
HETATM    6 CL1  UNL     1      10.478   3.279  15.516  1.00  0.00    -0.077 Cl
ENDROOT
BRANCH   4   7
HETATM    7  N2  UNL     1       8.526   3.522  12.952  1.00  0.00    -0.360 N 
HETATM    8  C4  UNL     1       7.444   4.400  13.343  1.00  0.00     0.125 C 
HETATM    9  C5  UNL     1       6.152   3.657  13.015  1.00  0.00     0.020 C 
HETATM   10  C6  UNL     1       6.190   2.397  13.868  1.00  0.00     0.003 C 
HETATM   11  C7  UNL     1       7.259   1.460  13.374  1.00  0.00     0.020 C 
HETATM   12  C8  UNL     1       8.317   2.139  12.571  1.00  0.00     0.125 C 
ENDBRANCH   4   7
BRANCH   2  13
HETATM   13  O3  UNL     1      12.587   5.776  11.493  1.00  0.00    -0.339 OA
ATOM     14  H3  UNL     1      13.042   6.546  11.816  1.00  0.00     0.220 HD
ENDBRANCH   2  13
BRANCH   1  15
HETATM   15  N1  UNL     1      13.108   4.864  14.333  1.00  0.00    -0.109 N 
HETATM   16  O1  UNL     1      14.197   4.425  13.930  1.00  0.00    -0.532 OA
HETATM   17  O2  UNL     1      13.002   5.537  15.534  1.00  0.00    -0.532 OA
ENDBRANCH   1  15
TORSDOF 3
ENDMDL
MODEL 5
REMARK VINA RESULT: -6.286312952      2.760      3.825
REMARK  3 active torsions:
REMARK  status: ('A' for Active; 'I' for Inactive)
REMARK    1  A    between atoms: N1_2  and  C1_4 
REMARK    2  A    between atoms: C2_5  and  O3_6 
REMARK    3  A    between atoms: C3_9  and  N2_10 
ROOT
HETATM    1  C1  UNL     1      10.735   4.266  12.787  1.00  0.00     0.186 A 
HETATM    2  C2  UNL     1       9.387   4.292  13.068  1.00  0.00     0.221 A 
HETATM    3  O4  UNL     1       9.064   3.211  13.701  1.00  0.00    -0.267 OA
HETATM    4  C3  UNL     1      10.092   2.408  13.894  1.00  0.00     0.173 A 
HETATM    5  C9  UNL     1      11.178   3.065  13.317  1.00  0.00     0.123 A 
HETATM    6 CL1  UNL     1      12.788   2.429  13.290  1.00  0.00    -0.077 Cl
ENDROOT
BRANCH   4   7
HETATM    7  N2  UNL     1      10.105   1.144  14.551  1.00  0.00    -0.360 N 
HETATM    8  C4  UNL     1      10.919   1.017  15.741  1.00  0.00     0.125 C 
HETATM    9  C5  UNL     1      10.547  -0.322  16.371  1.00  0.00     0.020 C 
HETATM   10  C6  UNL     1      10.911  -1.368  15.327  1.00  0.00     0.003 C 
HETATM   11  C7  UNL     1       9.983  -1.276  14.146  1.00  0.00     0.020 C 
HETATM   12  C8  UNL     1       9.314   0.051  14.020  1.00  0.00     0.125 C 
ENDBRANCH   4   7
BRANCH   2  13
HETATM   13  O3  UNL     1       8.562   5.369  12.688  1.00  0.00    -0.339 OA
ATOM     14  H3  UNL     1       7.664   5.449  12.987  1.00  0.00     0.220 HD
ENDBRANCH   2  13
BRANCH   1  15
HETATM   15  N1  UNL     1      11.535   5.240  12.127  1.00  0.00    -0.109 N 
HETATM   16  O1  UNL     1      11.040   5.970  11.254  1.00  0.00    -0.532 OA
HETATM   17  O2  UNL     1      12.868   5.338  12.476  1.00  0.00    -0.532 OA
ENDBRANCH   1  15
TORSDOF 3
ENDMDL
