MODEL 1
REMARK VINA RESULT: -5.907497876      0.000      0.000
REMARK  3 active torsions:
REMARK  status: ('A' for Active; 'I' for Inactive)
REMARK    1  A    between atoms: C1_2  and  N1_3 
REMARK    2  A    between atoms: C4_8  and  O2_9 
REMARK    3  A    between atoms: N2_11  and  N3_12 
ROOT
HETATM    1  N1  UNL     1      10.313   4.903  14.191  1.00  0.00    -0.313 N 
ATOM      2  H1  UNL     1      10.210   5.823  14.619  1.00  0.00     0.170 HD
HETATM    3  C2  UNL     1      11.457   4.306  14.345  1.00  0.00     0.174 A 
HETATM    4  S1  UNL     1      12.826   4.918  15.203  1.00  0.00    -0.059 SA
HETATM    5  C3  UNL     1      13.886   3.612  14.947  1.00  0.00     0.111 A 
HETATM    6  C4  UNL     1      13.118   2.768  14.208  1.00  0.00     0.170 A 
HETATM    7  N2  UNL     1      11.886   3.125  13.906  1.00  0.00    -0.210 N 
ENDROOT
BRANCH   7   8
HETATM    8  N3  UNL     1      10.975   2.307  13.134  1.00  0.00    -0.297 N 
HETATM    9  C5  UNL     1      10.343   1.349  13.690  1.00  0.00     0.022 C 
HETATM   10  C6  UNL     1      10.433   0.946  15.123  1.00  0.00     0.056 C 
HETATM   11  C9  UNL     1       9.404   0.416  13.009  1.00  0.00     0.129 C 
HETATM   12  C7  UNL     1      10.155  -0.537  15.127  1.00  0.00     0.008 C 
HETATM   13  C8  UNL     1       9.622  -0.891  13.764  1.00  0.00     0.026 C 
HETATM   14 CL1  UNL     1       7.698   0.838  13.257  1.00  0.00    -0.119 Cl
ATOM     15  H3  UNL     1      10.837   2.498  12.141  1.00  0.00     0.187 HD
ENDBRANCH   7   8
BRANCH   6  16
HETATM   16  O2  UNL     1      13.647   1.515  13.767  1.00  0.00    -0.344 OA
ATOM     17  H2  UNL     1      13.228   1.043  13.057  1.00  0.00     0.219 HD
ENDBRANCH   6  16
BRANCH   1  18
HETATM   18  C1  UNL     1       9.209   4.400  13.494  1.00  0.00     0.354 C 
HETATM   19  O1  UNL     1       9.173   4.530  12.243  1.00  0.00    -0.283 OA
ENDBRANCH   1  18
TORSDOF 3
ENDMDL
MODEL 2
REMARK VINA RESULT: -5.877875303      2.281      3.085
REMARK  3 active torsions:
REMARK  status: ('A' for Active; 'I' for Inactive)
REMARK    1  A    between atoms: C1_2  and  N1_3 
REMARK    2  A    between atoms: C4_8  and  O2_9 
REMARK    3  A    between atoms: N2_11  and  N3_12 
ROOT
HETATM    1  N1  UNL     1      12.333   2.708  13.495  1.00  0.00    -0.313 N 
ATOM      2  H1  UNL     1      13.299   2.900  13.231  1.00  0.00     0.170 HD
HETATM    3  C2  UNL     1      12.134   1.739  14.338  1.00  0.00     0.174 A 
HETATM    4  S1  UNL     1      13.345   0.740  15.058  1.00  0.00    -0.059 SA
HETATM    5  C3  UNL     1      12.327  -0.253  15.992  1.00  0.00     0.111 A 
HETATM    6  C4  UNL     1      11.099   0.245  15.695  1.00  0.00     0.170 A 
HETATM    7  N2  UNL     1      11.006   1.257  14.856  1.00  0.00    -0.210 N 
ENDROOT
BRANCH   7   8
HETATM    8  N3  UNL     1       9.755   1.876  14.471  1.00  0.00    -0.297 N 
HETATM    9  C5  UNL     1       8.974   1.288  13.651  1.00  0.00     0.022 C 
HETATM   10  C6  UNL     1       9.204  -0.035  13.004  1.00  0.00     0.056 C 
HETATM   11  C9  UNL     1       7.678   1.824  13.151  1.00  0.00     0.129 C 
HETATM   12  C7  UNL     1       8.482   0.048  11.683  1.00  0.00     0.008 C 
HETATM   13  C8  UNL     1       7.616   1.279  11.728  1.00  0.00     0.026 C 
HETATM   14 CL1  UNL     1       6.270   1.145  13.990  1.00  0.00    -0.119 Cl
ATOM     15  H3  UNL     1       9.496   2.784  14.857  1.00  0.00     0.187 HD
ENDBRANCH   7   8
BRANCH   6  16
HETATM   16  O2  UNL     1       9.929  -0.325  16.286  1.00  0.00    -0.344 OA
ATOM     17  H2  UNL     1       9.133   0.188  16.364  1.00  0.00     0.219 HD
ENDBRANCH   6  16
BRANCH   1  18
HETATM   18  C1  UNL     1      11.345   3.512  12.916  1.00  0.00     0.354 C 
HETATM   19  O1  UNL     1      10.914   4.502  13.563  1.00  0.00    -0.283 OA
ENDBRANCH   1  18
TORSDOF 3
ENDMDL
MODEL 3
REMARK VINA RESULT: -5.852204233      2.044      2.558
REMARK  3 active torsions:
REMARK  status: ('A' for Active; 'I' for Inactive)
REMARK    1  A    between atoms: C1_2  and  N1_3 
REMARK    2  A    between atoms: C4_8  and  O2_9 
REMARK    3  A    between atoms: N2_11  and  N3_12 
ROOT
HETATM    1  N1  UNL     1      12.107   3.659  12.856  1.00  0.00    -0.313 N 
ATOM      2  H1  UNL     1      13.020   3.950  12.506  1.00  0.00     0.170 HD
HETATM    3  C2  UNL     1      12.096   2.853  13.875  1.00  0.00     0.174 A 
HETATM    4  S1  UNL     1      13.476   2.222  14.699  1.00  0.00    -0.059 SA
HETATM    5  C3  UNL     1      12.665   1.277  15.859  1.00  0.00     0.111 A 
HETATM    6  C4  UNL     1      11.363   1.504  15.544  1.00  0.00     0.170 A 
HETATM    7  N2  UNL     1      11.079   2.305  14.537  1.00  0.00    -0.210 N 
ENDROOT
BRANCH   7   8
HETATM    8  N3  UNL     1       9.732   2.627  14.116  1.00  0.00    -0.297 N 
HETATM    9  C5  UNL     1       9.038   1.770  13.475  1.00  0.00     0.022 C 
HETATM   10  C6  UNL     1       9.468   0.396  13.086  1.00  0.00     0.056 C 
HETATM   11  C9  UNL     1       7.657   1.982  12.959  1.00  0.00     0.129 C 
HETATM   12  C7  UNL     1       8.706   0.095  11.820  1.00  0.00     0.008 C 
HETATM   13  C8  UNL     1       7.648   1.156  11.676  1.00  0.00     0.026 C 
HETATM   14 CL1  UNL     1       6.406   1.272  13.998  1.00  0.00    -0.119 Cl
ATOM     15  H3  UNL     1       9.336   3.542  14.332  1.00  0.00     0.187 HD
ENDBRANCH   7   8
BRANCH   6  16
HETATM   16  O2  UNL     1      10.321   0.878  16.298  1.00  0.00    -0.344 OA
ATOM     17  H2  UNL     1       9.661   0.355  15.858  1.00  0.00     0.219 HD
ENDBRANCH   6  16
BRANCH   1  18
HETATM   18  C1  UNL     1      10.983   4.166  12.194  1.00  0.00     0.354 C 
HETATM   19  O1  UNL     1      11.147   5.049  11.313  1.00  0.00    -0.283 OA
ENDBRANCH   1  18
TORSDOF 3
ENDMDL
MODEL 4
REMARK VINA RESULT: -5.783587287      2.885      5.098
REMARK  3 active torsions:
REMARK  status: ('A' for Active; 'I' for Inactive)
REMARK    1  A    between atoms: C1_2  and  N1_3 
REMARK    2  A    between atoms: C4_8  and  O2_9 
REMARK    3  A    between atoms: N2_11  and  N3_12 
ROOT
HETATM    1  N1  UNL     1       8.588   0.865  13.256  1.00  0.00    -0.313 N 
ATOM      2  H1  UNL     1       7.963   0.104  13.518  1.00  0.00     0.170 HD
HETATM    3  C2  UNL     1       8.087   2.064  13.250  1.00  0.00     0.174 A 
HETATM    4  S1  UNL     1       6.462   2.498  13.643  1.00  0.00    -0.059 SA
HETATM    5  C3  UNL     1       6.585   4.177  13.396  1.00  0.00     0.111 A 
HETATM    6  C4  UNL     1       7.884   4.312  13.022  1.00  0.00     0.170 A 
HETATM    7  N2  UNL     1       8.642   3.236  12.950  1.00  0.00    -0.210 N 
ENDROOT
BRANCH   7   8
HETATM    8  N3  UNL     1      10.040   3.257  12.573  1.00  0.00    -0.297 N 
HETATM    9  C5  UNL     1      10.930   3.590  13.424  1.00  0.00     0.022 C 
HETATM   10  C6  UNL     1      10.693   3.981  14.843  1.00  0.00     0.056 C 
HETATM   11  C9  UNL     1      12.393   3.681  13.160  1.00  0.00     0.129 C 
HETATM   12  C7  UNL     1      11.816   4.932  15.175  1.00  0.00     0.008 C 
HETATM   13  C8  UNL     1      12.825   4.833  14.062  1.00  0.00     0.026 C 
HETATM   14 CL1  UNL     1      13.295   2.262  13.725  1.00  0.00    -0.119 Cl
ATOM     15  H3  UNL     1      10.314   3.004  11.623  1.00  0.00     0.187 HD
ENDBRANCH   7   8
BRANCH   6  16
HETATM   16  O2  UNL     1       8.413   5.603  12.711  1.00  0.00    -0.344 OA
ATOM     17  H2  UNL     1       9.047   6.012  13.289  1.00  0.00     0.219 HD
ENDBRANCH   6  16
BRANCH   1  18
HETATM   18  C1  UNL     1       9.907   0.522  12.936  1.00  0.00     0.354 C 
HETATM   19  O1  UNL     1      10.689   0.194  13.865  1.00  0.00    -0.283 OA
ENDBRANCH   1  18
TORSDOF 3
ENDMDL
MODEL 5
REMARK VINA RESULT: -5.675907245      3.032      4.252
REMARK  3 active torsions:
REMARK  status: ('A' for Active; 'I' for Inactive)
REMARK    1  A    between atoms: C1_2  and  N1_3 
REMARK    2  A    between atoms: C4_8  and  O2_9 
REMARK    3  A    between atoms: N2_11  and  N3_12 
ROOT
HETATM    1  N1  UNL     1       9.490   5.076  12.327  1.00  0.00    -0.313 N 
ATOM      2  H1  UNL     1       8.955   5.912  12.090  1.00  0.00     0.170 HD
HETATM    3  C2  UNL     1       8.818   4.048  12.752  1.00  0.00     0.174 A 
HETATM    4  S1  UNL     1       7.106   3.954  12.958  1.00  0.00    -0.059 SA
HETATM    5  C3  UNL     1       7.011   2.357  13.536  1.00  0.00     0.111 A 
HETATM    6  C4  UNL     1       8.316   1.980  13.537  1.00  0.00     0.170 A 
HETATM    7  N2  UNL     1       9.229   2.841  13.137  1.00  0.00    -0.210 N 
ENDROOT
BRANCH   7   8
HETATM    8  N3  UNL     1      10.647   2.551  13.087  1.00  0.00    -0.297 N 
HETATM    9  C5  UNL     1      11.366   2.682  14.132  1.00  0.00     0.022 C 
HETATM   10  C6  UNL     1      10.899   3.121  15.478  1.00  0.00     0.056 C 
HETATM   11  C9  UNL     1      12.835   2.447  14.211  1.00  0.00     0.129 C 
HETATM   12  C7  UNL     1      12.093   3.802  16.100  1.00  0.00     0.008 C 
HETATM   13  C8  UNL     1      13.285   3.478  15.241  1.00  0.00     0.026 C 
HETATM   14 CL1  UNL     1      13.254   0.865  14.897  1.00  0.00    -0.119 Cl
ATOM     15  H3  UNL     1      11.072   2.240  12.213  1.00  0.00     0.187 HD
ENDBRANCH   7   8
BRANCH   6  16
HETATM   16  O2  UNL     1       8.686   0.668  13.968  1.00  0.00    -0.344 OA
ATOM     17  H2  UNL     1       8.480  -0.088  13.430  1.00  0.00     0.219 HD
ENDBRANCH   6  16
BRANCH   1  18
HETATM   18  C1  UNL     1      10.878   5.143  12.163  1.00  0.00     0.354 C 
HETATM   19  O1  UNL     1      11.373   4.814  11.054  1.00  0.00    -0.283 OA
ENDBRANCH   1  18
TORSDOF 3
ENDMDL
