MODEL 1
REMARK VINA RESULT: -5.905867955      0.000      0.000
REMARK  4 active torsions:
REMARK  status: ('A' for Active; 'I' for Inactive)
REMARK    1  A    between atoms: N1_1  and  N2_4 
REMARK       I    between atoms: N2_4  and  C1_5 
REMARK       I    between atoms: C1_5  and  N3_6 
REMARK       I    between atoms: C1_5  and  N4_10 
REMARK    2  A    between atoms: N4_10  and  C2_11 
REMARK    3  A    between atoms: N4_10  and  C3_13 
REMARK    4  A    between atoms: C3_13  and  C4_14 
ROOT
HETATM    1  N2  UNL     1      50.384  50.370 -21.493  1.00  0.00    -0.093 NA
HETATM    2  C1  UNL     1      49.404  49.998 -20.500  1.00  0.00     0.400 C 
HETATM    3  N3  UNL     1      49.418  50.989 -19.460  1.00  0.00    -0.042 N 
ATOM      4  H31 UNL     1      48.726  50.727 -18.759  1.00  0.00     0.278 HD
ATOM      5  H32 UNL     1      49.277  51.934 -19.817  1.00  0.00     0.278 HD
ATOM      6  H33 UNL     1      50.346  51.128 -19.063  1.00  0.00     0.278 HD
HETATM    7  N4  UNL     1      49.559  48.653 -19.989  1.00  0.00    -0.313 N 
ENDROOT
BRANCH   7   8
HETATM    8  C2  UNL     1      48.529  47.687 -20.241  1.00  0.00     0.353 C 
HETATM    9  O1  UNL     1      47.364  47.776 -19.803  1.00  0.00    -0.283 OA
ENDBRANCH   7   8
BRANCH   7  10
HETATM   10  C3  UNL     1      50.692  48.225 -19.213  1.00  0.00     0.168 C 
BRANCH  10  11
HETATM   11  C4  UNL     1      50.329  47.552 -17.957  1.00  0.00    -0.024 A 
HETATM   12  C5  UNL     1      50.448  46.226 -17.598  1.00  0.00     0.027 A 
HETATM   13  C6  UNL     1      49.961  46.028 -16.309  1.00  0.00     0.088 A 
HETATM   14  N5  UNL     1      49.544  47.226 -15.875  1.00  0.00    -0.375 N 
HETATM   15  C7  UNL     1      49.749  48.149 -16.828  1.00  0.00     0.096 A 
ATOM     16  H5  UNL     1      49.134  47.408 -14.959  1.00  0.00     0.164 HD
ENDBRANCH  10  11
ENDBRANCH   7  10
BRANCH   1  17
HETATM   17  N1  UNL     1      50.426  49.540 -22.589  1.00  0.00    -0.345 N 
ATOM     18  H12 UNL     1      49.654  49.485 -23.254  1.00  0.00     0.172 HD
ATOM     19  H11 UNL     1      51.284  48.996 -22.674  1.00  0.00     0.172 HD
ENDBRANCH   1  17
TORSDOF 4
ENDMDL
MODEL 2
REMARK VINA RESULT: -5.711455043      2.011      2.706
REMARK  4 active torsions:
REMARK  status: ('A' for Active; 'I' for Inactive)
REMARK    1  A    between atoms: N1_1  and  N2_4 
REMARK       I    between atoms: N2_4  and  C1_5 
REMARK       I    between atoms: C1_5  and  N3_6 
REMARK       I    between atoms: C1_5  and  N4_10 
REMARK    2  A    between atoms: N4_10  and  C2_11 
REMARK    3  A    between atoms: N4_10  and  C3_13 
REMARK    4  A    between atoms: C3_13  and  C4_14 
ROOT
HETATM    1  N2  UNL     1      48.736  49.432 -21.477  1.00  0.00    -0.093 NA
HETATM    2  C1  UNL     1      49.975  48.972 -20.897  1.00  0.00     0.400 C 
HETATM    3  N3  UNL     1      50.683  48.212 -21.890  1.00  0.00    -0.042 N 
ATOM      4  H31 UNL     1      51.558  47.886 -21.480  1.00  0.00     0.278 HD
ATOM      5  H32 UNL     1      50.823  48.731 -22.756  1.00  0.00     0.278 HD
ATOM      6  H33 UNL     1      50.122  47.451 -22.273  1.00  0.00     0.278 HD
HETATM    7  N4  UNL     1      49.816  48.251 -19.652  1.00  0.00    -0.313 N 
ENDROOT
BRANCH   7   8
HETATM    8  C2  UNL     1      50.361  48.807 -18.448  1.00  0.00     0.353 C 
HETATM    9  O1  UNL     1      49.670  49.217 -17.492  1.00  0.00    -0.283 OA
ENDBRANCH   7   8
BRANCH   7  10
HETATM   10  C3  UNL     1      49.152  46.979 -19.552  1.00  0.00     0.168 C 
BRANCH  10  11
HETATM   11  C4  UNL     1      49.975  45.928 -18.937  1.00  0.00    -0.024 A 
HETATM   12  C5  UNL     1      51.177  45.392 -19.348  1.00  0.00     0.027 A 
HETATM   13  C6  UNL     1      51.593  44.401 -18.464  1.00  0.00     0.088 A 
HETATM   14  N5  UNL     1      50.652  44.325 -17.511  1.00  0.00    -0.375 N 
HETATM   15  C7  UNL     1      49.681  45.217 -17.763  1.00  0.00     0.096 A 
ATOM     16  H5  UNL     1      50.671  43.687 -16.716  1.00  0.00     0.164 HD
ENDBRANCH  10  11
ENDBRANCH   7  10
BRANCH   1  17
HETATM   17  N1  UNL     1      47.988  50.240 -20.652  1.00  0.00    -0.345 N 
ATOM     18  H12 UNL     1      48.391  51.050 -20.180  1.00  0.00     0.172 HD
ATOM     19  H11 UNL     1      47.011  49.961 -20.560  1.00  0.00     0.172 HD
ENDBRANCH   1  17
TORSDOF 4
ENDMDL
MODEL 3
REMARK VINA RESULT: -5.624795785      2.616      4.895
REMARK  4 active torsions:
REMARK  status: ('A' for Active; 'I' for Inactive)
REMARK    1  A    between atoms: N1_1  and  N2_4 
REMARK       I    between atoms: N2_4  and  C1_5 
REMARK       I    between atoms: C1_5  and  N3_6 
REMARK       I    between atoms: C1_5  and  N4_10 
REMARK    2  A    between atoms: N4_10  and  C2_11 
REMARK    3  A    between atoms: N4_10  and  C3_13 
REMARK    4  A    between atoms: C3_13  and  C4_14 
ROOT
HETATM    1  N2  UNL     1      49.190  48.090 -16.788  1.00  0.00    -0.093 NA
HETATM    2  C1  UNL     1      50.372  48.233 -17.604  1.00  0.00     0.400 C 
HETATM    3  N3  UNL     1      50.129  49.264 -18.574  1.00  0.00    -0.042 N 
ATOM      4  H31 UNL     1      50.963  49.365 -19.151  1.00  0.00     0.278 HD
ATOM      5  H32 UNL     1      49.837  50.143 -18.147  1.00  0.00     0.278 HD
ATOM      6  H33 UNL     1      49.289  49.093 -19.126  1.00  0.00     0.278 HD
HETATM    7  N4  UNL     1      50.829  46.999 -18.206  1.00  0.00    -0.313 N 
ENDROOT
BRANCH   7   8
HETATM    8  C2  UNL     1      52.104  46.464 -17.824  1.00  0.00     0.353 C 
HETATM    9  O1  UNL     1      52.514  46.409 -16.646  1.00  0.00    -0.283 OA
ENDBRANCH   7   8
BRANCH   7  10
HETATM   10  C3  UNL     1      50.079  46.275 -19.198  1.00  0.00     0.168 C 
BRANCH  10  11
HETATM   11  C4  UNL     1      50.377  46.681 -20.579  1.00  0.00    -0.024 A 
HETATM   12  C5  UNL     1      49.631  47.436 -21.459  1.00  0.00     0.027 A 
HETATM   13  C6  UNL     1      50.297  47.561 -22.675  1.00  0.00     0.088 A 
HETATM   14  N5  UNL     1      51.449  46.887 -22.545  1.00  0.00    -0.375 N 
HETATM   15  C7  UNL     1      51.526  46.355 -21.316  1.00  0.00     0.096 A 
ATOM     16  H5  UNL     1      52.160  46.793 -23.272  1.00  0.00     0.164 HD
ENDBRANCH  10  11
ENDBRANCH   7  10
BRANCH   1  17
HETATM   17  N1  UNL     1      49.312  47.180 -15.764  1.00  0.00    -0.345 N 
ATOM     18  H12 UNL     1      49.538  46.200 -15.938  1.00  0.00     0.172 HD
ATOM     19  H11 UNL     1      49.160  47.568 -14.833  1.00  0.00     0.172 HD
ENDBRANCH   1  17
TORSDOF 4
ENDMDL
MODEL 4
REMARK VINA RESULT: -5.589367749      2.552      4.813
REMARK  4 active torsions:
REMARK  status: ('A' for Active; 'I' for Inactive)
REMARK    1  A    between atoms: N1_1  and  N2_4 
REMARK       I    between atoms: N2_4  and  C1_5 
REMARK       I    between atoms: C1_5  and  N3_6 
REMARK       I    between atoms: C1_5  and  N4_10 
REMARK    2  A    between atoms: N4_10  and  C2_11 
REMARK    3  A    between atoms: N4_10  and  C3_13 
REMARK    4  A    between atoms: C3_13  and  C4_14 
ROOT
HETATM    1  N2  UNL     1      49.164  48.058 -16.697  1.00  0.00    -0.093 NA
HETATM    2  C1  UNL     1      50.266  48.281 -17.602  1.00  0.00     0.400 C 
HETATM    3  N3  UNL     1      49.936  49.394 -18.449  1.00  0.00    -0.042 N 
ATOM      4  H31 UNL     1      50.714  49.551 -19.088  1.00  0.00     0.278 HD
ATOM      5  H32 UNL     1      49.686  50.229 -17.920  1.00  0.00     0.278 HD
ATOM      6  H33 UNL     1      49.048  49.267 -18.935  1.00  0.00     0.278 HD
HETATM    7  N4  UNL     1      50.664  47.109 -18.352  1.00  0.00    -0.313 N 
ENDROOT
BRANCH   7   8
HETATM    8  C2  UNL     1      51.967  46.551 -18.137  1.00  0.00     0.353 C 
HETATM    9  O1  UNL     1      52.417  46.235 -17.016  1.00  0.00    -0.283 OA
ENDBRANCH   7   8
BRANCH   7  10
HETATM   10  C3  UNL     1      49.824  46.472 -19.332  1.00  0.00     0.168 C 
BRANCH  10  11
HETATM   11  C4  UNL     1      50.150  46.838 -20.717  1.00  0.00    -0.024 A 
HETATM   12  C5  UNL     1      51.205  46.445 -21.512  1.00  0.00     0.027 A 
HETATM   13  C6  UNL     1      51.125  47.054 -22.761  1.00  0.00     0.088 A 
HETATM   14  N5  UNL     1      50.025  47.820 -22.737  1.00  0.00    -0.375 N 
HETATM   15  C7  UNL     1      49.425  47.714 -21.541  1.00  0.00     0.096 A 
ATOM     16  H5  UNL     1      49.694  48.397 -23.511  1.00  0.00     0.164 HD
ENDBRANCH  10  11
ENDBRANCH   7  10
BRANCH   1  17
HETATM   17  N1  UNL     1      49.378  47.060 -15.774  1.00  0.00    -0.345 N 
ATOM     18  H12 UNL     1      49.869  46.199 -16.016  1.00  0.00     0.172 HD
ATOM     19  H11 UNL     1      49.008  47.258 -14.845  1.00  0.00     0.172 HD
ENDBRANCH   1  17
TORSDOF 4
ENDMDL
MODEL 5
REMARK VINA RESULT: -5.552531266      2.076      2.768
REMARK  4 active torsions:
REMARK  status: ('A' for Active; 'I' for Inactive)
REMARK    1  A    between atoms: N1_1  and  N2_4 
REMARK       I    between atoms: N2_4  and  C1_5 
REMARK       I    between atoms: C1_5  and  N3_6 
REMARK       I    between atoms: C1_5  and  N4_10 
REMARK    2  A    between atoms: N4_10  and  C2_11 
REMARK    3  A    between atoms: N4_10  and  C3_13 
REMARK    4  A    between atoms: C3_13  and  C4_14 
ROOT
HETATM    1  N2  UNL     1      48.643  49.479 -21.430  1.00  0.00    -0.093 NA
HETATM    2  C1  UNL     1      49.903  49.015 -20.901  1.00  0.00     0.400 C 
HETATM    3  N3  UNL     1      50.576  48.268 -21.927  1.00  0.00    -0.042 N 
ATOM      4  H31 UNL     1      51.466  47.939 -21.553  1.00  0.00     0.278 HD
ATOM      5  H32 UNL     1      50.684  48.798 -22.791  1.00  0.00     0.278 HD
ATOM      6  H33 UNL     1      50.004  47.510 -22.300  1.00  0.00     0.278 HD
HETATM    7  N4  UNL     1      49.789  48.278 -19.660  1.00  0.00    -0.313 N 
ENDROOT
BRANCH   7   8
HETATM    8  C2  UNL     1      50.376  48.821 -18.469  1.00  0.00     0.353 C 
HETATM    9  O1  UNL     1      49.718  49.270 -17.508  1.00  0.00    -0.283 OA
ENDBRANCH   7   8
BRANCH   7  10
HETATM   10  C3  UNL     1      49.131  47.004 -19.551  1.00  0.00     0.168 C 
BRANCH  10  11
HETATM   11  C4  UNL     1      49.944  45.971 -18.893  1.00  0.00    -0.024 A 
HETATM   12  C5  UNL     1      49.723  45.288 -17.716  1.00  0.00     0.027 A 
HETATM   13  C6  UNL     1      50.770  44.406 -17.464  1.00  0.00     0.088 A 
HETATM   14  N5  UNL     1      51.632  44.543 -18.481  1.00  0.00    -0.375 N 
HETATM   15  C7  UNL     1      51.172  45.463 -19.344  1.00  0.00     0.096 A 
ATOM     16  H5  UNL     1      52.507  44.027 -18.584  1.00  0.00     0.164 HD
ENDBRANCH  10  11
ENDBRANCH   7  10
BRANCH   1  17
HETATM   17  N1  UNL     1      47.923  50.276 -20.570  1.00  0.00    -0.345 N 
ATOM     18  H12 UNL     1      46.937  50.102 -20.372  1.00  0.00     0.172 HD
ATOM     19  H11 UNL     1      48.456  51.039 -20.155  1.00  0.00     0.172 HD
ENDBRANCH   1  17
TORSDOF 4
ENDMDL
