MODEL 1
REMARK VINA RESULT: -4.951675914      0.000      0.000
REMARK  8 active torsions:
REMARK  status: ('A' for Active; 'I' for Inactive)
REMARK    1  A    between atoms: N1_1  and  C1_5 
REMARK    2  A    between atoms: C1_5  and  C2_6 
REMARK    3  A    between atoms: C2_6  and  N2_7 
REMARK    4  A    between atoms: N2_7  and  C3_9 
REMARK    5  A    between atoms: C6_16  and  N5_17 
REMARK    6  A    between atoms: N5_17  and  C7_19 
REMARK    7  A    between atoms: C7_19  and  C8_20 
REMARK    8  A    between atoms: C8_20  and  N6_21 
ROOT
HETATM    1  C3  UNL     1      50.306  45.395 -18.662  1.00  0.00     0.145 A 
HETATM    2  N3  UNL     1      51.489  44.716 -18.826  1.00  0.00    -0.348 N 
ATOM      3  H3  UNL     1      51.781  44.033 -18.126  1.00  0.00     0.167 HD
HETATM    4  C4  UNL     1      52.261  44.944 -19.896  1.00  0.00     0.107 A 
HETATM    5  C5  UNL     1      51.924  45.851 -20.874  1.00  0.00     0.107 A 
HETATM    6  N4  UNL     1      50.772  46.519 -20.726  1.00  0.00    -0.348 N 
ATOM      7  H4  UNL     1      50.490  47.200 -21.431  1.00  0.00     0.167 HD
HETATM    8  C6  UNL     1      49.972  46.300 -19.642  1.00  0.00     0.145 A 
ENDROOT
BRANCH   1   9
HETATM    9  N2  UNL     1      49.607  45.137 -17.620  1.00  0.00    -0.372 N 
ATOM     10  H2  UNL     1      48.725  44.655 -17.790  1.00  0.00     0.161 HD
BRANCH   9  11
HETATM   11  C2  UNL     1      49.895  45.432 -16.254  1.00  0.00     0.148 C 
BRANCH  11  12
HETATM   12  C1  UNL     1      50.279  46.914 -16.184  1.00  0.00     0.249 C 
BRANCH  12  13
HETATM   13  N1  UNL     1      49.062  47.628 -15.857  1.00  0.00    -0.078 N 
ATOM     14  H13 UNL     1      48.605  48.046 -16.667  1.00  0.00     0.274 HD
ATOM     15  H12 UNL     1      48.294  47.017 -15.582  1.00  0.00     0.274 HD
ATOM     16  H11 UNL     1      49.318  48.307 -15.140  1.00  0.00     0.274 HD
ENDBRANCH  12  13
ENDBRANCH  11  12
ENDBRANCH   9  11
ENDBRANCH   1   9
BRANCH   8  17
HETATM   17  N5  UNL     1      48.891  46.958 -19.548  1.00  0.00    -0.372 N 
ATOM     18  H5  UNL     1      48.410  46.908 -18.651  1.00  0.00     0.161 HD
BRANCH  17  19
HETATM   19  C7  UNL     1      48.271  47.762 -20.553  1.00  0.00     0.148 C 
BRANCH  19  20
HETATM   20  C8  UNL     1      48.872  49.167 -20.454  1.00  0.00     0.249 C 
BRANCH  20  21
HETATM   21  N6  UNL     1      47.867  50.184 -20.579  1.00  0.00    -0.078 N 
ATOM     22  H63 UNL     1      47.128  50.063 -19.887  1.00  0.00     0.274 HD
ATOM     23  H62 UNL     1      48.218  51.094 -20.281  1.00  0.00     0.274 HD
ATOM     24  H61 UNL     1      47.488  50.223 -21.525  1.00  0.00     0.274 HD
ENDBRANCH  20  21
ENDBRANCH  19  20
ENDBRANCH  17  19
ENDBRANCH   8  17
TORSDOF 8
ENDMDL
MODEL 2
REMARK VINA RESULT: -4.949306447      0.263      3.761
REMARK  8 active torsions:
REMARK  status: ('A' for Active; 'I' for Inactive)
REMARK    1  A    between atoms: N1_1  and  C1_5 
REMARK    2  A    between atoms: C1_5  and  C2_6 
REMARK    3  A    between atoms: C2_6  and  N2_7 
REMARK    4  A    between atoms: N2_7  and  C3_9 
REMARK    5  A    between atoms: C6_16  and  N5_17 
REMARK    6  A    between atoms: N5_17  and  C7_19 
REMARK    7  A    between atoms: C7_19  and  C8_20 
REMARK    8  A    between atoms: C8_20  and  N6_21 
ROOT
HETATM    1  C3  UNL     1      49.878  46.285 -19.532  1.00  0.00     0.145 A 
HETATM    2  N3  UNL     1      50.720  46.347 -20.616  1.00  0.00    -0.348 N 
ATOM      3  H3  UNL     1      50.478  46.939 -21.411  1.00  0.00     0.167 HD
HETATM    4  C4  UNL     1      51.855  45.637 -20.637  1.00  0.00     0.107 A 
HETATM    5  C5  UNL     1      52.238  44.820 -19.598  1.00  0.00     0.107 A 
HETATM    6  N4  UNL     1      51.425  44.751 -18.535  1.00  0.00    -0.348 N 
ATOM      7  H4  UNL     1      51.676  44.155 -17.746  1.00  0.00     0.167 HD
HETATM    8  C6  UNL     1      50.264  45.468 -18.496  1.00  0.00     0.145 A 
ENDROOT
BRANCH   1   9
HETATM    9  N2  UNL     1      48.807  46.986 -19.566  1.00  0.00    -0.372 N 
ATOM     10  H2  UNL     1      48.213  46.924 -18.739  1.00  0.00     0.161 HD
BRANCH   9  11
HETATM   11  C2  UNL     1      48.330  47.843 -20.603  1.00  0.00     0.148 C 
BRANCH  11  12
HETATM   12  C1  UNL     1      49.011  49.203 -20.413  1.00  0.00     0.249 C 
BRANCH  12  13
HETATM   13  N1  UNL     1      48.001  50.200 -20.699  1.00  0.00    -0.078 N 
ATOM     14  H13 UNL     1      47.072  49.806 -20.849  1.00  0.00     0.274 HD
ATOM     15  H12 UNL     1      47.761  50.778 -19.894  1.00  0.00     0.274 HD
ATOM     16  H11 UNL     1      48.349  50.734 -21.495  1.00  0.00     0.274 HD
ENDBRANCH  12  13
ENDBRANCH  11  12
ENDBRANCH   9  11
ENDBRANCH   1   9
BRANCH   8  17
HETATM   17  N5  UNL     1      49.529  45.369 -17.466  1.00  0.00    -0.372 N 
ATOM     18  H5  UNL     1      48.594  44.992 -17.615  1.00  0.00     0.161 HD
BRANCH  17  19
HETATM   19  C7  UNL     1      49.859  45.725 -16.123  1.00  0.00     0.148 C 
BRANCH  19  20
HETATM   20  C8  UNL     1      50.161  47.227 -16.106  1.00  0.00     0.249 C 
BRANCH  20  21
HETATM   21  N6  UNL     1      48.960  48.008 -16.033  1.00  0.00    -0.078 N 
ATOM     22  H63 UNL     1      48.597  48.220 -16.963  1.00  0.00     0.274 HD
ATOM     23  H62 UNL     1      48.178  47.456 -15.680  1.00  0.00     0.274 HD
ATOM     24  H61 UNL     1      49.095  48.856 -15.485  1.00  0.00     0.274 HD
ENDBRANCH  20  21
ENDBRANCH  19  20
ENDBRANCH  17  19
ENDBRANCH   8  17
TORSDOF 8
ENDMDL
MODEL 3
REMARK VINA RESULT: -4.895330052      2.381      4.315
REMARK  8 active torsions:
REMARK  status: ('A' for Active; 'I' for Inactive)
REMARK    1  A    between atoms: N1_1  and  C1_5 
REMARK    2  A    between atoms: C1_5  and  C2_6 
REMARK    3  A    between atoms: C2_6  and  N2_7 
REMARK    4  A    between atoms: N2_7  and  C3_9 
REMARK    5  A    between atoms: C6_16  and  N5_17 
REMARK    6  A    between atoms: N5_17  and  C7_19 
REMARK    7  A    between atoms: C7_19  and  C8_20 
REMARK    8  A    between atoms: C8_20  and  N6_21 
ROOT
HETATM    1  C3  UNL     1      50.224  48.679 -18.702  1.00  0.00     0.145 A 
HETATM    2  N3  UNL     1      49.605  48.526 -17.485  1.00  0.00    -0.348 N 
ATOM      3  H3  UNL     1      48.809  49.118 -17.245  1.00  0.00     0.167 HD
HETATM    4  C4  UNL     1      50.038  47.607 -16.612  1.00  0.00     0.107 A 
HETATM    5  C5  UNL     1      51.104  46.779 -16.876  1.00  0.00     0.107 A 
HETATM    6  N4  UNL     1      51.716  46.918 -18.060  1.00  0.00    -0.348 N 
ATOM      7  H4  UNL     1      52.511  46.322 -18.289  1.00  0.00     0.167 HD
HETATM    8  C6  UNL     1      51.289  47.849 -18.962  1.00  0.00     0.145 A 
ENDROOT
BRANCH   1   9
HETATM    9  N2  UNL     1      49.767  49.572 -19.498  1.00  0.00    -0.372 N 
ATOM     10  H2  UNL     1      50.155  50.508 -19.378  1.00  0.00     0.161 HD
BRANCH   9  11
HETATM   11  C2  UNL     1      48.789  49.438 -20.528  1.00  0.00     0.148 C 
BRANCH  11  12
HETATM   12  C1  UNL     1      48.554  47.937 -20.733  1.00  0.00     0.249 C 
BRANCH  12  13
HETATM   13  N1  UNL     1      47.327  47.624 -20.030  1.00  0.00    -0.078 N 
ATOM     14  H13 UNL     1      46.919  46.731 -20.304  1.00  0.00     0.274 HD
ATOM     15  H12 UNL     1      47.469  47.400 -19.046  1.00  0.00     0.274 HD
ATOM     16  H11 UNL     1      46.705  48.418 -20.182  1.00  0.00     0.274 HD
ENDBRANCH  12  13
ENDBRANCH  11  12
ENDBRANCH   9  11
ENDBRANCH   1   9
BRANCH   8  17
HETATM   17  N5  UNL     1      51.901  47.940 -20.069  1.00  0.00    -0.372 N 
ATOM     18  H5  UNL     1      51.522  47.392 -20.841  1.00  0.00     0.161 HD
BRANCH  17  19
HETATM   19  C7  UNL     1      53.061  48.722 -20.361  1.00  0.00     0.148 C 
BRANCH  19  20
HETATM   20  C8  UNL     1      52.785  49.487 -21.660  1.00  0.00     0.249 C 
BRANCH  20  21
HETATM   21  N6  UNL     1      52.427  50.852 -21.404  1.00  0.00    -0.078 N 
ATOM     22  H63 UNL     1      51.491  50.923 -21.003  1.00  0.00     0.274 HD
ATOM     23  H62 UNL     1      52.962  51.239 -20.627  1.00  0.00     0.274 HD
ATOM     24  H61 UNL     1      52.517  51.428 -22.241  1.00  0.00     0.274 HD
ENDBRANCH  20  21
ENDBRANCH  19  20
ENDBRANCH  17  19
ENDBRANCH   8  17
TORSDOF 8
ENDMDL
MODEL 4
REMARK VINA RESULT: -4.886065331      1.219      1.450
REMARK  8 active torsions:
REMARK  status: ('A' for Active; 'I' for Inactive)
REMARK    1  A    between atoms: N1_1  and  C1_5 
REMARK    2  A    between atoms: C1_5  and  C2_6 
REMARK    3  A    between atoms: C2_6  and  N2_7 
REMARK    4  A    between atoms: N2_7  and  C3_9 
REMARK    5  A    between atoms: C6_16  and  N5_17 
REMARK    6  A    between atoms: N5_17  and  C7_19 
REMARK    7  A    between atoms: C7_19  and  C8_20 
REMARK    8  A    between atoms: C8_20  and  N6_21 
ROOT
HETATM    1  C3  UNL     1      50.050  46.513 -19.747  1.00  0.00     0.145 A 
HETATM    2  N3  UNL     1      51.162  45.717 -19.866  1.00  0.00    -0.348 N 
ATOM      3  H3  UNL     1      51.446  45.123 -19.087  1.00  0.00     0.167 HD
HETATM    4  C4  UNL     1      51.878  45.714 -20.999  1.00  0.00     0.107 A 
HETATM    5  C5  UNL     1      51.549  46.491 -22.085  1.00  0.00     0.107 A 
HETATM    6  N4  UNL     1      50.466  47.272 -21.981  1.00  0.00    -0.348 N 
ATOM      7  H4  UNL     1      50.192  47.862 -22.766  1.00  0.00     0.167 HD
HETATM    8  C6  UNL     1      49.724  47.288 -20.835  1.00  0.00     0.145 A 
ENDROOT
BRANCH   1   9
HETATM    9  N2  UNL     1      49.403  46.475 -18.642  1.00  0.00    -0.372 N 
ATOM     10  H2  UNL     1      48.436  46.797 -18.686  1.00  0.00     0.161 HD
BRANCH   9  11
HETATM   11  C2  UNL     1      49.851  46.045 -17.358  1.00  0.00     0.148 C 
BRANCH  11  12
HETATM   12  C1  UNL     1      50.218  47.302 -16.562  1.00  0.00     0.249 C 
BRANCH  12  13
HETATM   13  N1  UNL     1      49.014  47.699 -15.863  1.00  0.00    -0.078 N 
ATOM     14  H13 UNL     1      48.175  47.225 -16.195  1.00  0.00     0.274 HD
ATOM     15  H12 UNL     1      48.974  47.363 -14.901  1.00  0.00     0.274 HD
ATOM     16  H11 UNL     1      48.964  48.715 -15.941  1.00  0.00     0.274 HD
ENDBRANCH  12  13
ENDBRANCH  11  12
ENDBRANCH   9  11
ENDBRANCH   1   9
BRANCH   8  17
HETATM   17  N5  UNL     1      48.707  48.045 -20.787  1.00  0.00    -0.372 N 
ATOM     18  H5  UNL     1      47.824  47.598 -20.537  1.00  0.00     0.161 HD
BRANCH  17  19
HETATM   19  C7  UNL     1      48.653  49.450 -21.040  1.00  0.00     0.148 C 
BRANCH  19  20
HETATM   20  C8  UNL     1      49.588  50.133 -20.037  1.00  0.00     0.249 C 
BRANCH  20  21
HETATM   21  N6  UNL     1      48.965  51.269 -19.421  1.00  0.00    -0.078 N 
ATOM     22  H63 UNL     1      48.467  51.838 -20.107  1.00  0.00     0.274 HD
ATOM     23  H62 UNL     1      48.174  50.991 -18.841  1.00  0.00     0.274 HD
ATOM     24  H61 UNL     1      49.635  51.827 -18.893  1.00  0.00     0.274 HD
ENDBRANCH  20  21
ENDBRANCH  19  20
ENDBRANCH  17  19
ENDBRANCH   8  17
TORSDOF 8
ENDMDL
MODEL 5
REMARK VINA RESULT: -4.869128351      2.437      4.258
REMARK  8 active torsions:
REMARK  status: ('A' for Active; 'I' for Inactive)
REMARK    1  A    between atoms: N1_1  and  C1_5 
REMARK    2  A    between atoms: C1_5  and  C2_6 
REMARK    3  A    between atoms: C2_6  and  N2_7 
REMARK    4  A    between atoms: N2_7  and  C3_9 
REMARK    5  A    between atoms: C6_16  and  N5_17 
REMARK    6  A    between atoms: N5_17  and  C7_19 
REMARK    7  A    between atoms: C7_19  and  C8_20 
REMARK    8  A    between atoms: C8_20  and  N6_21 
ROOT
HETATM    1  C3  UNL     1      51.314  47.944 -19.071  1.00  0.00     0.145 A 
HETATM    2  N3  UNL     1      51.711  47.001 -18.154  1.00  0.00    -0.348 N 
ATOM      3  H3  UNL     1      52.502  46.392 -18.365  1.00  0.00     0.167 HD
HETATM    4  C4  UNL     1      51.068  46.875 -16.985  1.00  0.00     0.107 A 
HETATM    5  C5  UNL     1      49.995  47.665 -16.641  1.00  0.00     0.107 A 
HETATM    6  N4  UNL     1      49.599  48.589 -17.528  1.00  0.00    -0.348 N 
ATOM      7  H4  UNL     1      48.806  49.192 -17.307  1.00  0.00     0.167 HD
HETATM    8  C6  UNL     1      50.242  48.731 -18.723  1.00  0.00     0.145 A 
ENDROOT
BRANCH   1   9
HETATM    9  N2  UNL     1      51.966  48.020 -20.171  1.00  0.00    -0.372 N 
ATOM     10  H2  UNL     1      51.644  47.403 -20.917  1.00  0.00     0.161 HD
BRANCH   9  11
HETATM   11  C2  UNL     1      53.081  48.849 -20.494  1.00  0.00     0.148 C 
BRANCH  11  12
HETATM   12  C1  UNL     1      52.738  49.577 -21.799  1.00  0.00     0.249 C 
BRANCH  12  13
HETATM   13  N1  UNL     1      52.519  50.962 -21.439  1.00  0.00    -0.078 N 
ATOM     14  H13 UNL     1      53.377  51.511 -21.393  1.00  0.00     0.274 HD
ATOM     15  H12 UNL     1      52.063  51.505 -22.172  1.00  0.00     0.274 HD
ATOM     16  H11 UNL     1      52.000  50.947 -20.561  1.00  0.00     0.274 HD
ENDBRANCH  12  13
ENDBRANCH  11  12
ENDBRANCH   9  11
ENDBRANCH   1   9
BRANCH   8  17
HETATM   17  N5  UNL     1      49.828  49.621 -19.527  1.00  0.00    -0.372 N 
ATOM     18  H5  UNL     1      50.256  50.543 -19.439  1.00  0.00     0.161 HD
BRANCH  17  19
HETATM   19  C7  UNL     1      48.833  49.482 -20.543  1.00  0.00     0.148 C 
BRANCH  19  20
HETATM   20  C8  UNL     1      48.547  47.986 -20.704  1.00  0.00     0.249 C 
BRANCH  20  21
HETATM   21  N6  UNL     1      47.340  47.602 -20.030  1.00  0.00    -0.078 N 
ATOM     22  H63 UNL     1      47.436  47.684 -19.017  1.00  0.00     0.274 HD
ATOM     23  H62 UNL     1      46.598  48.286 -20.175  1.00  0.00     0.274 HD
ATOM     24  H61 UNL     1      47.039  46.665 -20.299  1.00  0.00     0.274 HD
ENDBRANCH  20  21
ENDBRANCH  19  20
ENDBRANCH  17  19
ENDBRANCH   8  17
TORSDOF 8
ENDMDL
