MODEL 1
REMARK VINA RESULT: -5.125637303      0.000      0.000
REMARK  6 active torsions:
REMARK  status: ('A' for Active; 'I' for Inactive)
REMARK    1  A    between atoms: C2_2  and  N1_3 
REMARK    2  A    between atoms: C2_2  and  N4_17 
REMARK    3  A    between atoms: N1_3  and  C3_5 
REMARK    4  A    between atoms: C5_7  and  N2_8 
REMARK    5  A    between atoms: C6_12  and  N3_13 
REMARK    6  A    between atoms: N4_17  and  N5_19 
ROOT
HETATM    1  C3  UNL     1      50.048  48.404 -19.974  1.00  0.00     0.113 C 
HETATM    2  C4  UNL     1      50.219  49.616 -20.847  1.00  0.00     0.061 C 
HETATM    3  C5  UNL     1      48.736  49.568 -21.202  1.00  0.00     0.217 C 
HETATM    4  C6  UNL     1      48.764  48.115 -20.763  1.00  0.00     0.236 C 
ENDROOT
BRANCH   1   5
HETATM    5  N1  UNL     1      50.982  47.367 -20.057  1.00  0.00    -0.394 N 
ATOM      6  H1  UNL     1      51.001  46.792 -20.900  1.00  0.00     0.155 HD
BRANCH   5   7
HETATM    7  C2  UNL     1      51.891  47.084 -19.031  1.00  0.00     0.196 C 
HETATM    8  C1  UNL     1      53.302  46.962 -19.548  1.00  0.00     0.056 C 
BRANCH   7   9
HETATM    9  N4  UNL     1      51.576  45.836 -18.421  1.00  0.00    -0.232 N 
ATOM     10  H4  UNL     1      51.852  44.968 -18.880  1.00  0.00     0.189 HD
BRANCH   9  11
HETATM   11  N5  UNL     1      50.922  45.784 -17.253  1.00  0.00    -0.002 N 
HETATM   12  C7  UNL     1      51.637  44.866 -16.359  1.00  0.00     0.300 C 
HETATM   13  C8  UNL     1      49.597  45.182 -17.493  1.00  0.00     0.300 C 
HETATM   14  C9  UNL     1      50.693  46.989 -16.536  1.00  0.00     0.300 C 
ENDBRANCH   9  11
ENDBRANCH   7   9
ENDBRANCH   5   7
ENDBRANCH   1   5
BRANCH   4  15
HETATM   15  N3  UNL     1      47.647  47.714 -19.961  1.00  0.00    -0.071 N 
ATOM     16  H33 UNL     1      47.967  47.194 -19.144  1.00  0.00     0.274 HD
ATOM     17  H32 UNL     1      47.232  48.525 -19.502  1.00  0.00     0.274 HD
ATOM     18  H31 UNL     1      46.933  47.186 -20.461  1.00  0.00     0.274 HD
ENDBRANCH   4  15
BRANCH   3  19
HETATM   19  N2  UNL     1      47.968  50.471 -20.410  1.00  0.00    -0.073 N 
ATOM     20  H23 UNL     1      48.532  50.882 -19.666  1.00  0.00     0.274 HD
ATOM     21  H22 UNL     1      47.742  51.319 -20.930  1.00  0.00     0.274 HD
ATOM     22  H21 UNL     1      47.127  50.031 -20.037  1.00  0.00     0.274 HD
ENDBRANCH   3  19
TORSDOF 6
ENDMDL
MODEL 2
REMARK VINA RESULT: -5.114082840      1.556      1.980
REMARK  6 active torsions:
REMARK  status: ('A' for Active; 'I' for Inactive)
REMARK    1  A    between atoms: C2_2  and  N1_3 
REMARK    2  A    between atoms: C2_2  and  N4_17 
REMARK    3  A    between atoms: N1_3  and  C3_5 
REMARK    4  A    between atoms: C5_7  and  N2_8 
REMARK    5  A    between atoms: C6_12  and  N3_13 
REMARK    6  A    between atoms: N4_17  and  N5_19 
ROOT
HETATM    1  C3  UNL     1      49.580  48.244 -19.094  1.00  0.00     0.113 C 
HETATM    2  C4  UNL     1      50.233  49.233 -20.020  1.00  0.00     0.061 C 
HETATM    3  C5  UNL     1      49.060  49.100 -20.987  1.00  0.00     0.217 C 
HETATM    4  C6  UNL     1      48.752  47.782 -20.301  1.00  0.00     0.236 C 
ENDROOT
BRANCH   1   5
HETATM    5  N1  UNL     1      50.350  47.219 -18.539  1.00  0.00    -0.394 N 
ATOM      6  H1  UNL     1      51.147  46.864 -19.067  1.00  0.00     0.155 HD
BRANCH   5   7
HETATM    7  C2  UNL     1      50.073  46.659 -17.286  1.00  0.00     0.196 C 
HETATM    8  C1  UNL     1      49.940  47.712 -16.216  1.00  0.00     0.056 C 
BRANCH   7   9
HETATM    9  N4  UNL     1      51.138  45.804 -16.880  1.00  0.00    -0.232 N 
ATOM     10  H4  UNL     1      52.084  46.178 -16.811  1.00  0.00     0.189 HD
BRANCH   9  11
HETATM   11  N5  UNL     1      50.917  44.515 -16.588  1.00  0.00    -0.002 N 
HETATM   12  C7  UNL     1      51.572  43.687 -17.605  1.00  0.00     0.300 C 
HETATM   13  C8  UNL     1      49.470  44.257 -16.710  1.00  0.00     0.300 C 
HETATM   14  C9  UNL     1      51.309  44.021 -15.315  1.00  0.00     0.300 C 
ENDBRANCH   9  11
ENDBRANCH   7   9
ENDBRANCH   5   7
ENDBRANCH   1   5
BRANCH   4  15
HETATM   15  N3  UNL     1      47.364  47.564 -20.025  1.00  0.00    -0.071 N 
ATOM     16  H33 UNL     1      46.810  48.361 -20.340  1.00  0.00     0.274 HD
ATOM     17  H32 UNL     1      46.990  46.838 -20.636  1.00  0.00     0.274 HD
ATOM     18  H31 UNL     1      47.153  47.350 -19.050  1.00  0.00     0.274 HD
ENDBRANCH   4  15
BRANCH   3  19
HETATM   19  N2  UNL     1      48.113  50.153 -20.824  1.00  0.00    -0.073 N 
ATOM     20  H23 UNL     1      47.631  50.083 -19.928  1.00  0.00     0.274 HD
ATOM     21  H22 UNL     1      48.577  51.051 -20.688  1.00  0.00     0.274 HD
ATOM     22  H21 UNL     1      47.450  50.194 -21.598  1.00  0.00     0.274 HD
ENDBRANCH   3  19
TORSDOF 6
ENDMDL
MODEL 3
REMARK VINA RESULT: -5.096857779      0.880      1.226
REMARK  6 active torsions:
REMARK  status: ('A' for Active; 'I' for Inactive)
REMARK    1  A    between atoms: C2_2  and  N1_3 
REMARK    2  A    between atoms: C2_2  and  N4_17 
REMARK    3  A    between atoms: N1_3  and  C3_5 
REMARK    4  A    between atoms: C5_7  and  N2_8 
REMARK    5  A    between atoms: C6_12  and  N3_13 
REMARK    6  A    between atoms: N4_17  and  N5_19 
ROOT
HETATM    1  C3  UNL     1      50.041  48.336 -20.176  1.00  0.00     0.113 C 
HETATM    2  C4  UNL     1      50.220  49.582 -21.000  1.00  0.00     0.061 C 
HETATM    3  C5  UNL     1      48.715  49.633 -21.246  1.00  0.00     0.217 C 
HETATM    4  C6  UNL     1      48.689  48.160 -20.883  1.00  0.00     0.236 C 
ENDROOT
BRANCH   1   5
HETATM    5  N1  UNL     1      50.904  47.255 -20.379  1.00  0.00    -0.394 N 
ATOM      6  H1  UNL     1      51.205  47.041 -21.330  1.00  0.00     0.155 HD
BRANCH   5   7
HETATM    7  C2  UNL     1      51.373  46.456 -19.331  1.00  0.00     0.196 C 
HETATM    8  C1  UNL     1      51.878  45.123 -19.822  1.00  0.00     0.056 C 
BRANCH   7   9
HETATM    9  N4  UNL     1      50.320  46.175 -18.413  1.00  0.00    -0.232 N 
ATOM     10  H4  UNL     1      49.393  45.943 -18.768  1.00  0.00     0.189 HD
BRANCH   9  11
HETATM   11  N5  UNL     1      50.528  46.212 -17.090  1.00  0.00    -0.002 N 
HETATM   12  C7  UNL     1      49.701  45.178 -16.459  1.00  0.00     0.300 C 
HETATM   13  C8  UNL     1      50.035  47.506 -16.582  1.00  0.00     0.300 C 
HETATM   14  C9  UNL     1      51.852  46.062 -16.596  1.00  0.00     0.300 C 
ENDBRANCH   9  11
ENDBRANCH   7   9
ENDBRANCH   5   7
ENDBRANCH   1   5
BRANCH   4  15
HETATM   15  N3  UNL     1      47.611  47.779 -20.020  1.00  0.00    -0.071 N 
ATOM     16  H33 UNL     1      47.353  46.805 -20.184  1.00  0.00     0.274 HD
ATOM     17  H32 UNL     1      47.935  47.715 -19.056  1.00  0.00     0.274 HD
ATOM     18  H31 UNL     1      46.788  48.378 -20.079  1.00  0.00     0.274 HD
ENDBRANCH   4  15
BRANCH   3  19
HETATM   19  N2  UNL     1      48.059  50.533 -20.356  1.00  0.00    -0.073 N 
ATOM     20  H23 UNL     1      47.099  50.241 -20.175  1.00  0.00     0.274 HD
ATOM     21  H22 UNL     1      48.432  50.456 -19.410  1.00  0.00     0.274 HD
ATOM     22  H21 UNL     1      48.096  51.496 -20.691  1.00  0.00     0.274 HD
ENDBRANCH   3  19
TORSDOF 6
ENDMDL
MODEL 4
REMARK VINA RESULT: -5.044170073      2.622      5.009
REMARK  6 active torsions:
REMARK  status: ('A' for Active; 'I' for Inactive)
REMARK    1  A    between atoms: C2_2  and  N1_3 
REMARK    2  A    between atoms: C2_2  and  N4_17 
REMARK    3  A    between atoms: N1_3  and  C3_5 
REMARK    4  A    between atoms: C5_7  and  N2_8 
REMARK    5  A    between atoms: C6_12  and  N3_13 
REMARK    6  A    between atoms: N4_17  and  N5_19 
ROOT
HETATM    1  C3  UNL     1      50.435  48.554 -20.078  1.00  0.00     0.113 C 
HETATM    2  C4  UNL     1      49.822  47.474 -20.927  1.00  0.00     0.061 C 
HETATM    3  C5  UNL     1      48.936  47.060 -19.756  1.00  0.00     0.217 C 
HETATM    4  C6  UNL     1      49.932  47.769 -18.858  1.00  0.00     0.236 C 
ENDROOT
BRANCH   1   5
HETATM    5  N1  UNL     1      51.823  48.718 -20.084  1.00  0.00    -0.394 N 
ATOM      6  H1  UNL     1      52.340  48.549 -19.221  1.00  0.00     0.155 HD
BRANCH   5   7
HETATM    7  C2  UNL     1      52.534  49.105 -21.226  1.00  0.00     0.196 C 
HETATM    8  C1  UNL     1      53.869  49.715 -20.879  1.00  0.00     0.056 C 
BRANCH   7   9
HETATM    9  N4  UNL     1      51.811  50.100 -21.945  1.00  0.00    -0.232 N 
ATOM     10  H4  UNL     1      51.529  50.958 -21.470  1.00  0.00     0.189 HD
BRANCH   9  11
HETATM   11  N5  UNL     1      51.496  49.928 -23.235  1.00  0.00    -0.002 N 
HETATM   12  C7  UNL     1      52.154  48.710 -23.718  1.00  0.00     0.300 C 
HETATM   13  C8  UNL     1      52.075  51.046 -24.004  1.00  0.00     0.300 C 
HETATM   14  C9  UNL     1      50.126  49.851 -23.605  1.00  0.00     0.300 C 
ENDBRANCH   9  11
ENDBRANCH   7   9
ENDBRANCH   5   7
ENDBRANCH   1   5
BRANCH   4  15
HETATM   15  N3  UNL     1      49.341  48.575 -17.833  1.00  0.00    -0.071 N 
ATOM     16  H33 UNL     1      49.089  49.492 -18.203  1.00  0.00     0.274 HD
ATOM     17  H32 UNL     1      48.415  48.222 -17.594  1.00  0.00     0.274 HD
ATOM     18  H31 UNL     1      49.909  48.676 -16.992  1.00  0.00     0.274 HD
ENDBRANCH   4  15
BRANCH   3  19
HETATM   19  N2  UNL     1      47.629  47.624 -19.850  1.00  0.00    -0.073 N 
ATOM     20  H23 UNL     1      47.672  48.629 -20.017  1.00  0.00     0.274 HD
ATOM     21  H22 UNL     1      47.163  47.337 -20.710  1.00  0.00     0.274 HD
ATOM     22  H21 UNL     1      47.061  47.408 -19.030  1.00  0.00     0.274 HD
ENDBRANCH   3  19
TORSDOF 6
ENDMDL
MODEL 5
REMARK VINA RESULT: -5.023139810      2.650      5.053
REMARK  6 active torsions:
REMARK  status: ('A' for Active; 'I' for Inactive)
REMARK    1  A    between atoms: C2_2  and  N1_3 
REMARK    2  A    between atoms: C2_2  and  N4_17 
REMARK    3  A    between atoms: N1_3  and  C3_5 
REMARK    4  A    between atoms: C5_7  and  N2_8 
REMARK    5  A    between atoms: C6_12  and  N3_13 
REMARK    6  A    between atoms: N4_17  and  N5_19 
ROOT
HETATM    1  C3  UNL     1      50.437  48.569 -20.047  1.00  0.00     0.113 C 
HETATM    2  C4  UNL     1      49.833  47.510 -20.927  1.00  0.00     0.061 C 
HETATM    3  C5  UNL     1      48.935  47.069 -19.776  1.00  0.00     0.217 C 
HETATM    4  C6  UNL     1      49.922  47.757 -18.851  1.00  0.00     0.236 C 
ENDROOT
BRANCH   1   5
HETATM    5  N1  UNL     1      51.826  48.734 -20.034  1.00  0.00    -0.394 N 
ATOM      6  H1  UNL     1      52.326  48.600 -19.155  1.00  0.00     0.155 HD
BRANCH   5   7
HETATM    7  C2  UNL     1      52.558  49.073 -21.178  1.00  0.00     0.196 C 
HETATM    8  C1  UNL     1      53.902  49.662 -20.832  1.00  0.00     0.056 C 
BRANCH   7   9
HETATM    9  N4  UNL     1      51.865  50.065 -21.931  1.00  0.00    -0.232 N 
ATOM     10  H4  UNL     1      51.465  50.871 -21.453  1.00  0.00     0.189 HD
BRANCH   9  11
HETATM   11  N5  UNL     1      51.732  49.955 -23.260  1.00  0.00    -0.002 N 
HETATM   12  C7  UNL     1      52.252  51.177 -23.883  1.00  0.00     0.300 C 
HETATM   13  C8  UNL     1      50.293  49.907 -23.576  1.00  0.00     0.300 C 
HETATM   14  C9  UNL     1      52.328  48.848 -23.923  1.00  0.00     0.300 C 
ENDBRANCH   9  11
ENDBRANCH   7   9
ENDBRANCH   5   7
ENDBRANCH   1   5
BRANCH   4  15
HETATM   15  N3  UNL     1      49.320  48.539 -17.814  1.00  0.00    -0.071 N 
ATOM     16  H33 UNL     1      49.826  48.415 -16.936  1.00  0.00     0.274 HD
ATOM     17  H32 UNL     1      49.489  49.532 -17.975  1.00  0.00     0.274 HD
ATOM     18  H31 UNL     1      48.324  48.368 -17.676  1.00  0.00     0.274 HD
ENDBRANCH   4  15
BRANCH   3  19
HETATM   19  N2  UNL     1      47.629  47.635 -19.870  1.00  0.00    -0.073 N 
ATOM     20  H23 UNL     1      47.342  48.051 -18.984  1.00  0.00     0.274 HD
ATOM     21  H22 UNL     1      47.631  48.475 -20.449  1.00  0.00     0.274 HD
ATOM     22  H21 UNL     1      46.942  46.958 -20.202  1.00  0.00     0.274 HD
ENDBRANCH   3  19
TORSDOF 6
ENDMDL
