MODEL 1
REMARK VINA RESULT: -6.719444631      0.000      0.000
REMARK  4 active torsions:
REMARK  status: ('A' for Active; 'I' for Inactive)
REMARK    1  A    between atoms: C2_2  and  C3_3 
REMARK    2  A    between atoms: C3_3  and  N1_4 
REMARK       I    between atoms: N1_4  and  C4_6 
REMARK       I    between atoms: C4_6  and  N2_8 
REMARK    3  A    between atoms: C8_12  and  O2_13 
REMARK    4  A    between atoms: C14_20  and  N3_21 
ROOT
HETATM    1  N1  UNL     1      -0.073   5.057   9.647  1.00  0.00    -0.343 N 
ATOM      2  H1  UNL     1      -0.787   5.650   9.222  1.00  0.00     0.164 HD
HETATM    3  C4  UNL     1      -0.424   4.273  10.764  1.00  0.00     0.318 C 
HETATM    4  O1  UNL     1       0.450   3.549  11.285  1.00  0.00    -0.247 OA
HETATM    5  N2  UNL     1      -1.734   4.306  11.282  1.00  0.00    -0.331 N 
HETATM    6  C5  UNL     1      -2.099   3.503  12.439  1.00  0.00     0.132 C 
HETATM    7  C6  UNL     1      -3.424   2.801  12.294  1.00  0.00     0.013 C 
HETATM    8  C7  UNL     1      -3.927   3.112  10.873  1.00  0.00     0.046 C 
HETATM    9  C8  UNL     1      -4.081   4.638  11.011  1.00  0.00     0.078 C 
HETATM   10  C9  UNL     1      -2.703   5.173  10.619  1.00  0.00     0.165 C 
HETATM   11  C10 UNL     1      -4.290   4.938  12.447  1.00  0.00     0.028 C 
HETATM   12  C11 UNL     1      -5.535   5.685  12.790  1.00  0.00     0.008 C 
HETATM   13  C12 UNL     1      -5.727   5.706  14.258  1.00  0.00     0.002 C 
HETATM   14  C13 UNL     1      -5.166   4.650  15.096  1.00  0.00     0.025 C 
HETATM   15  C14 UNL     1      -4.486   3.485  14.481  1.00  0.00     0.088 C 
HETATM   16  C16 UNL     1      -4.523   3.539  13.016  1.00  0.00     0.021 C 
ENDROOT
BRANCH   1  17
HETATM   17  C3  UNL     1       1.263   5.057   9.075  1.00  0.00     0.124 C 
BRANCH  17  18
HETATM   18  C2  UNL     1       1.372   4.067   7.965  1.00  0.00     0.015 C 
HETATM   19  C1  UNL     1       0.179   4.052   7.062  1.00  0.00     0.006 C 
ENDBRANCH  17  18
ENDBRANCH   1  17
BRANCH   9  20
HETATM   20  O2  UNL     1      -5.064   5.110  10.168  1.00  0.00    -0.388 OA
ATOM     21  H2  UNL     1      -5.387   5.953  10.464  1.00  0.00     0.210 HD
ENDBRANCH   9  20
BRANCH  15  22
HETATM   22  N3  UNL     1      -5.119   2.267  14.921  1.00  0.00    -0.362 N 
HETATM   23  C15 UNL     1      -4.777   1.534  15.904  1.00  0.00     0.197 C 
HETATM   24  N4  UNL     1      -5.569   0.361  16.146  1.00  0.00    -0.067 NA
HETATM   25  N5  UNL     1      -3.701   1.733  16.797  1.00  0.00    -0.067 NA
ATOM     26  H3  UNL     1      -5.930   1.959  14.386  1.00  0.00     0.162 HD
ENDBRANCH  15  22
TORSDOF 4
ENDMDL
MODEL 2
REMARK VINA RESULT: -6.709236676      2.225      2.685
REMARK  4 active torsions:
REMARK  status: ('A' for Active; 'I' for Inactive)
REMARK    1  A    between atoms: C2_2  and  C3_3 
REMARK    2  A    between atoms: C3_3  and  N1_4 
REMARK       I    between atoms: N1_4  and  C4_6 
REMARK       I    between atoms: C4_6  and  N2_8 
REMARK    3  A    between atoms: C8_12  and  O2_13 
REMARK    4  A    between atoms: C14_20  and  N3_21 
ROOT
HETATM    1  N1  UNL     1      -0.685   7.600  11.302  1.00  0.00    -0.343 N 
ATOM      2  H1  UNL     1      -1.529   8.089  11.003  1.00  0.00     0.164 HD
HETATM    3  C4  UNL     1      -0.821   6.422  12.064  1.00  0.00     0.318 C 
HETATM    4  O1  UNL     1       0.212   5.825  12.432  1.00  0.00    -0.247 OA
HETATM    5  N2  UNL     1      -2.097   5.929  12.402  1.00  0.00    -0.331 N 
HETATM    6  C5  UNL     1      -2.243   4.716  13.193  1.00  0.00     0.132 C 
HETATM    7  C6  UNL     1      -3.301   3.779  12.674  1.00  0.00     0.013 C 
HETATM    8  C7  UNL     1      -3.835   4.405  11.374  1.00  0.00     0.046 C 
HETATM    9  C8  UNL     1      -4.431   5.696  11.966  1.00  0.00     0.078 C 
HETATM   10  C9  UNL     1      -3.258   6.677  11.933  1.00  0.00     0.165 C 
HETATM   11  C10 UNL     1      -4.756   5.427  13.387  1.00  0.00     0.028 C 
HETATM   12  C11 UNL     1      -6.173   5.655  13.794  1.00  0.00     0.008 C 
HETATM   13  C12 UNL     1      -6.401   5.128  15.158  1.00  0.00     0.002 C 
HETATM   14  C13 UNL     1      -5.579   4.041  15.682  1.00  0.00     0.025 C 
HETATM   15  C14 UNL     1      -4.573   3.377  14.819  1.00  0.00     0.088 C 
HETATM   16  C16 UNL     1      -4.586   3.909  13.453  1.00  0.00     0.021 C 
ENDROOT
BRANCH   1  17
HETATM   17  C3  UNL     1       0.608   8.148  10.927  1.00  0.00     0.124 C 
BRANCH  17  18
HETATM   18  C2  UNL     1       0.961   9.322  11.775  1.00  0.00     0.015 C 
HETATM   19  C1  UNL     1       1.785   8.964  12.973  1.00  0.00     0.006 C 
ENDBRANCH  17  18
ENDBRANCH   1  17
BRANCH   9  20
HETATM   20  O2  UNL     1      -5.486   6.144  11.202  1.00  0.00    -0.388 OA
ATOM     21  H2  UNL     1      -5.398   7.072  11.015  1.00  0.00     0.210 HD
ENDBRANCH   9  20
BRANCH  15  22
HETATM   22  N3  UNL     1      -4.835   1.960  14.772  1.00  0.00    -0.362 N 
HETATM   23  C15 UNL     1      -4.476   1.083  15.621  1.00  0.00     0.197 C 
HETATM   24  N4  UNL     1      -4.858  -0.275  15.353  1.00  0.00    -0.067 NA
HETATM   25  N5  UNL     1      -3.737   1.281  16.809  1.00  0.00    -0.067 NA
ATOM     26  H3  UNL     1      -5.366   1.624  13.969  1.00  0.00     0.162 HD
ENDBRANCH  15  22
TORSDOF 4
ENDMDL
MODEL 3
REMARK VINA RESULT: -6.696934982      2.539      7.242
REMARK  4 active torsions:
REMARK  status: ('A' for Active; 'I' for Inactive)
REMARK    1  A    between atoms: C2_2  and  C3_3 
REMARK    2  A    between atoms: C3_3  and  N1_4 
REMARK       I    between atoms: N1_4  and  C4_6 
REMARK       I    between atoms: C4_6  and  N2_8 
REMARK    3  A    between atoms: C8_12  and  O2_13 
REMARK    4  A    between atoms: C14_20  and  N3_21 
ROOT
HETATM    1  N1  UNL     1      -5.593   2.653  15.870  1.00  0.00    -0.343 N 
ATOM      2  H1  UNL     1      -5.324   1.674  15.775  1.00  0.00     0.164 HD
HETATM    3  C4  UNL     1      -5.292   3.541  14.818  1.00  0.00     0.318 C 
HETATM    4  O1  UNL     1      -5.619   4.741  14.936  1.00  0.00    -0.247 OA
HETATM    5  N2  UNL     1      -4.636   3.084  13.658  1.00  0.00    -0.331 N 
HETATM    6  C5  UNL     1      -4.319   3.999  12.571  1.00  0.00     0.132 C 
HETATM    7  C6  UNL     1      -4.626   3.444  11.205  1.00  0.00     0.013 C 
HETATM    8  C7  UNL     1      -5.283   2.072  11.431  1.00  0.00     0.046 C 
HETATM    9  C8  UNL     1      -4.098   1.355  12.105  1.00  0.00     0.078 C 
HETATM   10  C9  UNL     1      -4.289   1.669  13.590  1.00  0.00     0.165 C 
HETATM   11  C10 UNL     1      -2.856   2.028  11.657  1.00  0.00     0.028 C 
HETATM   12  C11 UNL     1      -1.840   1.161  10.993  1.00  0.00     0.008 C 
HETATM   13  C12 UNL     1      -0.773   1.995  10.395  1.00  0.00     0.002 C 
HETATM   14  C13 UNL     1      -1.045   3.371   9.988  1.00  0.00     0.025 C 
HETATM   15  C14 UNL     1      -2.420   3.919  10.070  1.00  0.00     0.088 C 
HETATM   16  C16 UNL     1      -3.384   2.916  10.530  1.00  0.00     0.021 C 
ENDROOT
BRANCH   1  17
HETATM   17  C3  UNL     1      -6.270   3.076  17.086  1.00  0.00     0.124 C 
BRANCH  17  18
HETATM   18  C2  UNL     1      -6.365   1.955  18.065  1.00  0.00     0.015 C 
HETATM   19  C1  UNL     1      -6.094   0.613  17.460  1.00  0.00     0.006 C 
ENDBRANCH  17  18
ENDBRANCH   1  17
BRANCH   9  20
HETATM   20  O2  UNL     1      -4.145  -0.002  11.865  1.00  0.00    -0.388 OA
ATOM     21  H2  UNL     1      -3.798  -0.205  11.005  1.00  0.00     0.210 HD
ENDBRANCH   9  20
BRANCH  15  22
HETATM   22  N3  UNL     1      -2.827   4.401   8.774  1.00  0.00    -0.362 N 
HETATM   23  C15 UNL     1      -3.201   5.579   8.474  1.00  0.00     0.197 C 
HETATM   24  N4  UNL     1      -3.561   5.818   7.103  1.00  0.00    -0.067 NA
HETATM   25  N5  UNL     1      -3.311   6.696   9.331  1.00  0.00    -0.067 NA
ATOM     26  H3  UNL     1      -2.813   3.722   8.013  1.00  0.00     0.162 HD
ENDBRANCH  15  22
TORSDOF 4
ENDMDL
MODEL 4
REMARK VINA RESULT: -6.679624757      3.433      5.738
REMARK  4 active torsions:
REMARK  status: ('A' for Active; 'I' for Inactive)
REMARK    1  A    between atoms: C2_2  and  C3_3 
REMARK    2  A    between atoms: C3_3  and  N1_4 
REMARK       I    between atoms: N1_4  and  C4_6 
REMARK       I    between atoms: C4_6  and  N2_8 
REMARK    3  A    between atoms: C8_12  and  O2_13 
REMARK    4  A    between atoms: C14_20  and  N3_21 
ROOT
HETATM    1  N1  UNL     1      -2.670   1.561  11.391  1.00  0.00    -0.343 N 
ATOM      2  H1  UNL     1      -3.032   1.408  12.332  1.00  0.00     0.164 HD
HETATM    3  C4  UNL     1      -2.860   2.822  10.790  1.00  0.00     0.318 C 
HETATM    4  O1  UNL     1      -2.418   3.008   9.637  1.00  0.00    -0.247 OA
HETATM    5  N2  UNL     1      -3.535   3.850  11.477  1.00  0.00    -0.331 N 
HETATM    6  C5  UNL     1      -3.739   5.152  10.858  1.00  0.00     0.132 C 
HETATM    7  C6  UNL     1      -3.462   6.310  11.781  1.00  0.00     0.013 C 
HETATM    8  C7  UNL     1      -2.948   5.702  13.098  1.00  0.00     0.046 C 
HETATM    9  C8  UNL     1      -4.212   4.919  13.500  1.00  0.00     0.078 C 
HETATM   10  C9  UNL     1      -4.020   3.561  12.822  1.00  0.00     0.165 C 
HETATM   11  C10 UNL     1      -5.372   5.583  12.860  1.00  0.00     0.028 C 
HETATM   12  C11 UNL     1      -6.456   6.042  13.776  1.00  0.00     0.008 C 
HETATM   13  C12 UNL     1      -7.423   6.885  13.037  1.00  0.00     0.002 C 
HETATM   14  C13 UNL     1      -7.007   7.625  11.849  1.00  0.00     0.025 C 
HETATM   15  C14 UNL     1      -5.586   7.628  11.425  1.00  0.00     0.088 C 
HETATM   16  C16 UNL     1      -4.736   6.878  12.354  1.00  0.00     0.021 C 
ENDROOT
BRANCH   1  17
HETATM   17  C3  UNL     1      -1.979   0.469  10.725  1.00  0.00     0.124 C 
BRANCH  17  18
HETATM   18  C2  UNL     1      -2.824  -0.759  10.689  1.00  0.00     0.015 C 
HETATM   19  C1  UNL     1      -4.120  -0.611  11.423  1.00  0.00     0.006 C 
ENDBRANCH  17  18
ENDBRANCH   1  17
BRANCH   9  20
HETATM   20  O2  UNL     1      -4.295   4.792  14.870  1.00  0.00    -0.388 OA
ATOM     21  H2  UNL     1      -4.447   5.636  15.278  1.00  0.00     0.210 HD
ENDBRANCH   9  20
BRANCH  15  22
HETATM   22  N3  UNL     1      -5.108   8.985  11.343  1.00  0.00    -0.362 N 
HETATM   23  C15 UNL     1      -5.128   9.748  10.325  1.00  0.00     0.197 C 
HETATM   24  N4  UNL     1      -4.588  11.069  10.492  1.00  0.00    -0.067 NA
HETATM   25  N5  UNL     1      -5.619   9.453   9.034  1.00  0.00    -0.067 NA
ATOM     26  H3  UNL     1      -4.710   9.377  12.196  1.00  0.00     0.162 HD
ENDBRANCH  15  22
TORSDOF 4
ENDMDL
MODEL 5
REMARK VINA RESULT: -6.659180980      1.594      1.848
REMARK  4 active torsions:
REMARK  status: ('A' for Active; 'I' for Inactive)
REMARK    1  A    between atoms: C2_2  and  C3_3 
REMARK    2  A    between atoms: C3_3  and  N1_4 
REMARK       I    between atoms: N1_4  and  C4_6 
REMARK       I    between atoms: C4_6  and  N2_8 
REMARK    3  A    between atoms: C8_12  and  O2_13 
REMARK    4  A    between atoms: C14_20  and  N3_21 
ROOT
HETATM    1  N1  UNL     1      -0.595   7.458  11.072  1.00  0.00    -0.343 N 
ATOM      2  H1  UNL     1      -1.432   7.950  10.761  1.00  0.00     0.164 HD
HETATM    3  C4  UNL     1      -0.745   6.305  11.868  1.00  0.00     0.318 C 
HETATM    4  O1  UNL     1       0.280   5.704  12.250  1.00  0.00    -0.247 OA
HETATM    5  N2  UNL     1      -2.027   5.841  12.225  1.00  0.00    -0.331 N 
HETATM    6  C5  UNL     1      -2.187   4.654  13.052  1.00  0.00     0.132 C 
HETATM    7  C6  UNL     1      -3.261   3.718  12.564  1.00  0.00     0.013 C 
HETATM    8  C7  UNL     1      -3.791   4.313  11.248  1.00  0.00     0.046 C 
HETATM    9  C8  UNL     1      -4.366   5.630  11.804  1.00  0.00     0.078 C 
HETATM   10  C9  UNL     1      -3.179   6.592  11.738  1.00  0.00     0.165 C 
HETATM   11  C10 UNL     1      -4.689   5.408  13.233  1.00  0.00     0.028 C 
HETATM   12  C11 UNL     1      -6.101   5.668  13.638  1.00  0.00     0.008 C 
HETATM   13  C12 UNL     1      -6.331   5.186  15.018  1.00  0.00     0.002 C 
HETATM   14  C13 UNL     1      -5.523   4.102  15.571  1.00  0.00     0.025 C 
HETATM   15  C14 UNL     1      -4.531   3.399  14.724  1.00  0.00     0.088 C 
HETATM   16  C16 UNL     1      -4.541   3.890  13.344  1.00  0.00     0.021 C 
ENDROOT
BRANCH   1  17
HETATM   17  C3  UNL     1       0.705   7.975  10.675  1.00  0.00     0.124 C 
BRANCH  17  18
HETATM   18  C2  UNL     1       1.028   7.596   9.270  1.00  0.00     0.015 C 
HETATM   19  C1  UNL     1       1.906   6.388   9.167  1.00  0.00     0.006 C 
ENDBRANCH  17  18
ENDBRANCH   1  17
BRANCH   9  20
HETATM   20  O2  UNL     1      -5.417   6.071  11.030  1.00  0.00    -0.388 OA
ATOM     21  H2  UNL     1      -5.549   5.500  10.282  1.00  0.00     0.210 HD
ENDBRANCH   9  20
BRANCH  15  22
HETATM   22  N3  UNL     1      -4.813   1.985  14.721  1.00  0.00    -0.362 N 
HETATM   23  C15 UNL     1      -4.480   1.132  15.603  1.00  0.00     0.197 C 
HETATM   24  N4  UNL     1      -4.879  -0.229  15.375  1.00  0.00    -0.067 NA
HETATM   25  N5  UNL     1      -3.756   1.358  16.795  1.00  0.00    -0.067 NA
ATOM     26  H3  UNL     1      -5.338   1.630  13.922  1.00  0.00     0.162 HD
ENDBRANCH  15  22
TORSDOF 4
ENDMDL
