MODEL 1
REMARK VINA RESULT: -6.355446246      0.000      0.000
REMARK  4 active torsions:
REMARK  status: ('A' for Active; 'I' for Inactive)
REMARK    1  A    between atoms: C2_2  and  C5_5 
REMARK       I    between atoms: N1_7  and  C7_8 
REMARK    2  A    between atoms: C10_15  and  N4_16 
REMARK       I    between atoms: N4_16  and  C11_18 
REMARK       I    between atoms: C11_18  and  N5_20 
REMARK    3  A    between atoms: C15_24  and  C16_25 
REMARK    4  A    between atoms: C16_25  and  N6_26 
ROOT
HETATM    1  C5  UNL     1      -4.810   5.841  13.605  1.00  0.00     0.034 C 
HETATM    2  C6  UNL     1      -3.483   6.518  13.866  1.00  0.00     0.132 C 
HETATM    3  N1  UNL     1      -3.259   7.387  12.727  1.00  0.00    -0.355 N 
HETATM    4  C7  UNL     1      -1.995   7.912  12.388  1.00  0.00     0.183 C 
HETATM    5  N2  UNL     1      -1.300   7.265  11.518  1.00  0.00    -0.374 N 
ATOM      6  H21 UNL     1      -0.385   7.645  11.273  1.00  0.00     0.158 HD
ATOM      7  H22 UNL     1      -1.679   6.411  11.109  1.00  0.00     0.158 HD
HETATM    8  N3  UNL     1      -1.466   9.102  12.960  1.00  0.00    -0.064 NA
HETATM    9  C8  UNL     1      -4.401   7.725  11.911  1.00  0.00     0.127 C 
HETATM   10  C9  UNL     1      -4.919   6.492  11.252  1.00  0.00     0.045 C 
HETATM   11  C10 UNL     1      -4.944   5.335  12.216  1.00  0.00     0.094 C 
ENDROOT
BRANCH  11  12
HETATM   12  N4  UNL     1      -3.944   4.387  11.824  1.00  0.00    -0.338 N 
HETATM   13  C11 UNL     1      -4.222   3.073  11.358  1.00  0.00     0.319 C 
HETATM   14  O1  UNL     1      -5.465   2.774  11.303  1.00  0.00    -0.247 OA
HETATM   15  N5  UNL     1      -3.219   2.154  10.980  1.00  0.00    -0.328 N 
HETATM   16  C12 UNL     1      -1.802   2.449  11.025  1.00  0.00     0.128 C 
HETATM   17  C15 UNL     1      -3.422   0.833  10.506  1.00  0.00     0.114 C 
HETATM   18  C13 UNL     1      -1.114   1.218  10.446  1.00  0.00     0.022 C 
HETATM   19  C14 UNL     1      -2.095   0.138  10.846  1.00  0.00     0.029 C 
ATOM     20  H4  UNL     1      -2.967   4.674  11.884  1.00  0.00     0.164 HD
BRANCH  17  21
HETATM   21  C16 UNL     1      -4.488   0.035  11.183  1.00  0.00     0.254 C 
BRANCH  21  22
HETATM   22  N6  UNL     1      -4.020  -1.255  11.618  1.00  0.00    -0.077 N 
ATOM     23  H63 UNL     1      -4.746  -1.964  11.508  1.00  0.00     0.274 HD
ATOM     24  H62 UNL     1      -3.326  -1.631  10.973  1.00  0.00     0.274 HD
ATOM     25  H61 UNL     1      -3.663  -1.241  12.573  1.00  0.00     0.274 HD
ENDBRANCH  21  22
ENDBRANCH  17  21
ENDBRANCH  11  12
BRANCH   1  26
HETATM   26  C2  UNL     1      -5.080   4.824  14.683  1.00  0.00    -0.044 C 
HETATM   27  C1  UNL     1      -5.635   5.627  15.869  1.00  0.00     0.015 C 
HETATM   28  C3  UNL     1      -6.194   3.887  14.279  1.00  0.00     0.015 C 
HETATM   29  C4  UNL     1      -3.871   4.092  15.170  1.00  0.00     0.015 C 
ENDBRANCH   1  26
TORSDOF 4
ENDMDL
MODEL 2
REMARK VINA RESULT: -6.063749128      2.859      4.913
REMARK  4 active torsions:
REMARK  status: ('A' for Active; 'I' for Inactive)
REMARK    1  A    between atoms: C2_2  and  C5_5 
REMARK       I    between atoms: N1_7  and  C7_8 
REMARK    2  A    between atoms: C10_15  and  N4_16 
REMARK       I    between atoms: N4_16  and  C11_18 
REMARK       I    between atoms: C11_18  and  N5_20 
REMARK    3  A    between atoms: C15_24  and  C16_25 
REMARK    4  A    between atoms: C16_25  and  N6_26 
ROOT
HETATM    1  C5  UNL     1      -3.044   6.480  12.864  1.00  0.00     0.034 C 
HETATM    2  C6  UNL     1      -2.446   5.577  11.807  1.00  0.00     0.132 C 
HETATM    3  N1  UNL     1      -3.515   5.327  10.860  1.00  0.00    -0.355 N 
HETATM    4  C7  UNL     1      -3.501   4.258   9.940  1.00  0.00     0.183 C 
HETATM    5  N2  UNL     1      -4.100   3.172  10.286  1.00  0.00    -0.374 N 
ATOM      6  H21 UNL     1      -4.090   2.399   9.620  1.00  0.00     0.158 HD
ATOM      7  H22 UNL     1      -4.557   3.121  11.196  1.00  0.00     0.158 HD
HETATM    8  N3  UNL     1      -2.862   4.330   8.671  1.00  0.00    -0.064 NA
HETATM    9  C8  UNL     1      -4.641   6.230  10.871  1.00  0.00     0.127 C 
HETATM   10  C9  UNL     1      -5.358   6.109  12.173  1.00  0.00     0.045 C 
HETATM   11  C10 UNL     1      -4.385   6.037  13.320  1.00  0.00     0.094 C 
ENDROOT
BRANCH  11  12
HETATM   12  N4  UNL     1      -4.423   4.716  13.874  1.00  0.00    -0.338 N 
HETATM   13  C11 UNL     1      -5.326   4.298  14.890  1.00  0.00     0.319 C 
HETATM   14  O1  UNL     1      -6.136   5.203  15.295  1.00  0.00    -0.247 OA
HETATM   15  N5  UNL     1      -5.343   2.991  15.424  1.00  0.00    -0.328 N 
HETATM   16  C12 UNL     1      -4.447   1.938  14.997  1.00  0.00     0.128 C 
HETATM   17  C15 UNL     1      -6.213   2.505  16.433  1.00  0.00     0.114 C 
HETATM   18  C13 UNL     1      -4.886   0.697  15.766  1.00  0.00     0.022 C 
HETATM   19  C14 UNL     1      -5.425   1.330  17.029  1.00  0.00     0.029 C 
ATOM     20  H4  UNL     1      -3.758   4.030  13.516  1.00  0.00     0.164 HD
BRANCH  17  21
HETATM   21  C16 UNL     1      -6.498   3.427  17.573  1.00  0.00     0.254 C 
BRANCH  21  22
HETATM   22  N6  UNL     1      -6.230   2.825  18.853  1.00  0.00    -0.077 N 
ATOM     23  H63 UNL     1      -5.231   2.830  19.057  1.00  0.00     0.274 HD
ATOM     24  H62 UNL     1      -6.556   3.420  19.614  1.00  0.00     0.274 HD
ATOM     25  H61 UNL     1      -6.616   1.884  18.932  1.00  0.00     0.274 HD
ENDBRANCH  21  22
ENDBRANCH  17  21
ENDBRANCH  11  12
BRANCH   1  26
HETATM   26  C2  UNL     1      -2.039   6.707  13.963  1.00  0.00    -0.044 C 
HETATM   27  C1  UNL     1      -0.998   7.668  13.369  1.00  0.00     0.015 C 
HETATM   28  C3  UNL     1      -2.659   7.456  15.120  1.00  0.00     0.015 C 
HETATM   29  C4  UNL     1      -1.309   5.480  14.407  1.00  0.00     0.015 C 
ENDBRANCH   1  26
TORSDOF 4
ENDMDL
MODEL 3
REMARK VINA RESULT: -5.924163841      2.822      5.422
REMARK  4 active torsions:
REMARK  status: ('A' for Active; 'I' for Inactive)
REMARK    1  A    between atoms: C2_2  and  C5_5 
REMARK       I    between atoms: N1_7  and  C7_8 
REMARK    2  A    between atoms: C10_15  and  N4_16 
REMARK       I    between atoms: N4_16  and  C11_18 
REMARK       I    between atoms: C11_18  and  N5_20 
REMARK    3  A    between atoms: C15_24  and  C16_25 
REMARK    4  A    between atoms: C16_25  and  N6_26 
ROOT
HETATM    1  C5  UNL     1      -2.718   5.058  12.472  1.00  0.00     0.034 C 
HETATM    2  C6  UNL     1      -1.817   3.917  12.054  1.00  0.00     0.132 C 
HETATM    3  N1  UNL     1      -2.530   3.226  10.998  1.00  0.00    -0.355 N 
HETATM    4  C7  UNL     1      -2.225   1.911  10.588  1.00  0.00     0.183 C 
HETATM    5  N2  UNL     1      -2.904   0.955  11.118  1.00  0.00    -0.374 N 
ATOM      6  H21 UNL     1      -2.684   0.003  10.822  1.00  0.00     0.158 HD
ATOM      7  H22 UNL     1      -3.627   1.174  11.804  1.00  0.00     0.158 HD
HETATM    8  N3  UNL     1      -1.216   1.606   9.633  1.00  0.00    -0.064 NA
HETATM    9  C8  UNL     1      -3.600   3.937  10.339  1.00  0.00     0.127 C 
HETATM   10  C9  UNL     1      -4.693   4.199  11.318  1.00  0.00     0.045 C 
HETATM   11  C10 UNL     1      -4.135   4.650  12.642  1.00  0.00     0.094 C 
ENDROOT
BRANCH  11  12
HETATM   12  N4  UNL     1      -4.350   3.614  13.609  1.00  0.00    -0.338 N 
HETATM   13  C11 UNL     1      -5.353   3.651  14.616  1.00  0.00     0.319 C 
HETATM   14  O1  UNL     1      -6.084   4.701  14.607  1.00  0.00    -0.247 OA
HETATM   15  N5  UNL     1      -5.543   2.619  15.561  1.00  0.00    -0.328 N 
HETATM   16  C12 UNL     1      -4.741   1.415  15.607  1.00  0.00     0.128 C 
HETATM   17  C15 UNL     1      -6.521   2.587  16.588  1.00  0.00     0.114 C 
HETATM   18  C13 UNL     1      -5.358   0.561  16.709  1.00  0.00     0.022 C 
HETATM   19  C14 UNL     1      -5.902   1.637  17.622  1.00  0.00     0.029 C 
ATOM     20  H4  UNL     1      -3.741   2.796  13.572  1.00  0.00     0.164 HD
BRANCH  17  21
HETATM   21  C16 UNL     1      -6.775   3.870  17.311  1.00  0.00     0.254 C 
BRANCH  21  22
HETATM   22  N6  UNL     1      -6.390   3.810  18.696  1.00  0.00    -0.077 N 
ATOM     23  H63 UNL     1      -5.631   3.143  18.837  1.00  0.00     0.274 HD
ATOM     24  H62 UNL     1      -5.912   4.664  18.981  1.00  0.00     0.274 HD
ATOM     25  H61 UNL     1      -7.176   3.606  19.314  1.00  0.00     0.274 HD
ENDBRANCH  21  22
ENDBRANCH  17  21
ENDBRANCH  11  12
BRANCH   1  26
HETATM   26  C2  UNL     1      -2.115   5.773  13.653  1.00  0.00    -0.044 C 
HETATM   27  C1  UNL     1      -0.970   6.617  13.074  1.00  0.00     0.015 C 
HETATM   28  C3  UNL     1      -3.088   6.769  14.241  1.00  0.00     0.015 C 
HETATM   29  C4  UNL     1      -1.523   4.876  14.693  1.00  0.00     0.015 C 
ENDBRANCH   1  26
TORSDOF 4
ENDMDL
MODEL 4
REMARK VINA RESULT: -5.859782967      1.593      2.211
REMARK  4 active torsions:
REMARK  status: ('A' for Active; 'I' for Inactive)
REMARK    1  A    between atoms: C2_2  and  C5_5 
REMARK       I    between atoms: N1_7  and  C7_8 
REMARK    2  A    between atoms: C10_15  and  N4_16 
REMARK       I    between atoms: N4_16  and  C11_18 
REMARK       I    between atoms: C11_18  and  N5_20 
REMARK    3  A    between atoms: C15_24  and  C16_25 
REMARK    4  A    between atoms: C16_25  and  N6_26 
ROOT
HETATM    1  C5  UNL     1      -3.011   7.189  12.812  1.00  0.00     0.034 C 
HETATM    2  C6  UNL     1      -1.742   7.662  12.139  1.00  0.00     0.132 C 
HETATM    3  N1  UNL     1      -2.140   8.085  10.810  1.00  0.00    -0.355 N 
HETATM    4  C7  UNL     1      -1.233   8.243   9.742  1.00  0.00     0.183 C 
HETATM    5  N2  UNL     1      -1.084   7.247   8.940  1.00  0.00    -0.374 N 
ATOM      6  H21 UNL     1      -0.428   7.362   8.167  1.00  0.00     0.158 HD
ATOM      7  H22 UNL     1      -1.617   6.392   9.099  1.00  0.00     0.158 HD
HETATM    8  N3  UNL     1      -0.489   9.436   9.521  1.00  0.00    -0.064 NA
HETATM    9  C8  UNL     1      -3.540   8.357  10.589  1.00  0.00     0.127 C 
HETATM   10  C9  UNL     1      -4.320   7.096  10.750  1.00  0.00     0.045 C 
HETATM   11  C10 UNL     1      -3.840   6.315  11.945  1.00  0.00     0.094 C 
ENDROOT
BRANCH  11  12
HETATM   12  N4  UNL     1      -3.181   5.128  11.485  1.00  0.00    -0.338 N 
HETATM   13  C11 UNL     1      -3.801   3.852  11.389  1.00  0.00     0.319 C 
HETATM   14  O1  UNL     1      -5.029   3.823  11.748  1.00  0.00    -0.247 OA
HETATM   15  N5  UNL     1      -3.131   2.695  10.936  1.00  0.00    -0.328 N 
HETATM   16  C12 UNL     1      -1.744   2.682  10.520  1.00  0.00     0.128 C 
HETATM   17  C15 UNL     1      -3.683   1.395  10.813  1.00  0.00     0.114 C 
HETATM   18  C13 UNL     1      -1.483   1.262  10.029  1.00  0.00     0.022 C 
HETATM   19  C14 UNL     1      -2.449   0.487  10.897  1.00  0.00     0.029 C 
ATOM     20  H4  UNL     1      -2.202   5.204  11.208  1.00  0.00     0.164 HD
BRANCH  17  21
HETATM   21  C16 UNL     1      -4.596   0.948  11.908  1.00  0.00     0.254 C 
BRANCH  21  22
HETATM   22  N6  UNL     1      -4.107   1.302  13.215  1.00  0.00    -0.077 N 
ATOM     23  H63 UNL     1      -4.876   1.509  13.850  1.00  0.00     0.274 HD
ATOM     24  H62 UNL     1      -3.714   0.490  13.691  1.00  0.00     0.274 HD
ATOM     25  H61 UNL     1      -3.436   2.070  13.188  1.00  0.00     0.274 HD
ENDBRANCH  21  22
ENDBRANCH  17  21
ENDBRANCH  11  12
BRANCH   1  26
HETATM   26  C2  UNL     1      -2.682   6.618  14.166  1.00  0.00    -0.044 C 
HETATM   27  C1  UNL     1      -2.296   7.825  15.033  1.00  0.00     0.015 C 
HETATM   28  C3  UNL     1      -3.912   6.033  14.822  1.00  0.00     0.015 C 
HETATM   29  C4  UNL     1      -1.526   5.670  14.183  1.00  0.00     0.015 C 
ENDBRANCH   1  26
TORSDOF 4
ENDMDL
MODEL 5
REMARK VINA RESULT: -5.855454525      2.706      4.905
REMARK  4 active torsions:
REMARK  status: ('A' for Active; 'I' for Inactive)
REMARK    1  A    between atoms: C2_2  and  C5_5 
REMARK       I    between atoms: N1_7  and  C7_8 
REMARK    2  A    between atoms: C10_15  and  N4_16 
REMARK       I    between atoms: N4_16  and  C11_18 
REMARK       I    between atoms: C11_18  and  N5_20 
REMARK    3  A    between atoms: C15_24  and  C16_25 
REMARK    4  A    between atoms: C16_25  and  N6_26 
ROOT
HETATM    1  C5  UNL     1      -4.819   6.832  12.821  1.00  0.00     0.034 C 
HETATM    2  C6  UNL     1      -5.575   5.558  13.129  1.00  0.00     0.132 C 
HETATM    3  N1  UNL     1      -4.974   5.030  14.338  1.00  0.00    -0.355 N 
HETATM    4  C7  UNL     1      -5.122   3.692  14.758  1.00  0.00     0.183 C 
HETATM    5  N2  UNL     1      -4.200   2.861  14.419  1.00  0.00    -0.374 N 
ATOM      6  H21 UNL     1      -4.307   1.893  14.723  1.00  0.00     0.158 HD
ATOM      7  H22 UNL     1      -3.406   3.190  13.870  1.00  0.00     0.158 HD
HETATM    8  N3  UNL     1      -6.230   3.234  15.523  1.00  0.00    -0.064 NA
HETATM    9  C8  UNL     1      -4.189   5.937  15.142  1.00  0.00     0.127 C 
HETATM   10  C9  UNL     1      -2.988   6.367  14.372  1.00  0.00     0.045 C 
HETATM   11  C10 UNL     1      -3.347   6.680  12.943  1.00  0.00     0.094 C 
ENDROOT
BRANCH  11  12
HETATM   12  N4  UNL     1      -2.776   5.677  12.094  1.00  0.00    -0.338 N 
HETATM   13  C11 UNL     1      -1.381   5.432  11.968  1.00  0.00     0.319 C 
HETATM   14  O1  UNL     1      -0.636   6.185  12.687  1.00  0.00    -0.247 OA
HETATM   15  N5  UNL     1      -0.840   4.439  11.122  1.00  0.00    -0.328 N 
HETATM   16  C12 UNL     1      -1.644   3.566  10.294  1.00  0.00     0.128 C 
HETATM   17  C15 UNL     1       0.535   4.139  10.949  1.00  0.00     0.114 C 
HETATM   18  C13 UNL     1      -0.655   2.609   9.637  1.00  0.00     0.022 C 
HETATM   19  C14 UNL     1       0.572   3.490   9.557  1.00  0.00     0.029 C 
ATOM     20  H4  UNL     1      -3.412   5.101  11.543  1.00  0.00     0.164 HD
BRANCH  17  21
HETATM   21  C16 UNL     1       1.472   5.300  10.884  1.00  0.00     0.254 C 
BRANCH  21  22
HETATM   22  N6  UNL     1       2.300   5.409  12.057  1.00  0.00    -0.077 N 
ATOM     23  H63 UNL     1       1.890   6.049  12.736  1.00  0.00     0.274 HD
ATOM     24  H62 UNL     1       2.274   4.550  12.605  1.00  0.00     0.274 HD
ATOM     25  H61 UNL     1       3.260   5.673  11.837  1.00  0.00     0.274 HD
ENDBRANCH  21  22
ENDBRANCH  17  21
ENDBRANCH  11  12
BRANCH   1  26
HETATM   26  C2  UNL     1      -5.295   7.399  11.510  1.00  0.00    -0.044 C 
HETATM   27  C1  UNL     1      -6.756   7.808  11.751  1.00  0.00     0.015 C 
HETATM   28  C3  UNL     1      -4.570   8.684  11.179  1.00  0.00     0.015 C 
HETATM   29  C4  UNL     1      -5.287   6.433  10.370  1.00  0.00     0.015 C 
ENDBRANCH   1  26
TORSDOF 4
ENDMDL
