MODEL 1
REMARK VINA RESULT: -7.003653937      0.000      0.000
REMARK  3 active torsions:
REMARK  status: ('A' for Active; 'I' for Inactive)
REMARK       I    between atoms: C2_4  and  N2_5 
REMARK       I    between atoms: C2_4  and  N3_13 
REMARK    1  A    between atoms: N2_5  and  C3_7 
REMARK    2  A    between atoms: C3_7  and  C4_8 
REMARK       I    between atoms: N3_13  and  C8_15 
REMARK       I    between atoms: C8_15  and  N4_17 
REMARK    3  A    between atoms: N4_17  and  C9_19 
ROOT
HETATM    1  C1  UNL     1      -4.585   1.612  16.223  1.00  0.00     0.165 C 
HETATM    2  N1  UNL     1      -5.033   2.901  15.772  1.00  0.00    -0.231 N 
ATOM      3  H1  UNL     1      -5.593   3.477  16.401  1.00  0.00     0.177 HD
HETATM    4  C2  UNL     1      -4.750   3.355  14.594  1.00  0.00     0.677 C 
HETATM    5  N2  UNL     1      -3.973   2.596  13.678  1.00  0.00    -0.224 N 
ATOM      6  H2  UNL     1      -3.003   2.844  13.486  1.00  0.00     0.177 HD
HETATM    7  N3  UNL     1      -5.241   4.635  14.252  1.00  0.00    -0.142 N 
ATOM      8  H3  UNL     1      -5.798   5.168  14.920  1.00  0.00     0.189 HD
HETATM    9  C8  UNL     1      -4.955   5.171  12.977  1.00  0.00     0.334 C 
HETATM   10  O2  UNL     1      -4.273   4.513  12.163  1.00  0.00    -0.246 OA
HETATM   11  N4  UNL     1      -5.443   6.475  12.599  1.00  0.00    -0.336 N 
ATOM     12  H4  UNL     1      -6.000   7.014  13.261  1.00  0.00     0.164 HD
ENDROOT
BRANCH   5  13
HETATM   13  C3  UNL     1      -4.585   1.478  13.033  1.00  0.00     0.170 C 
BRANCH  13  14
HETATM   14  C4  UNL     1      -4.005   1.190  11.670  1.00  0.00     0.139 C 
HETATM   15  C5  UNL     1      -2.586   1.657  11.526  1.00  0.00     0.035 C 
HETATM   16  C6  UNL     1      -2.064   0.773  10.415  1.00  0.00     0.029 C 
HETATM   17  C7  UNL     1      -3.084  -0.331  10.375  1.00  0.00     0.168 C 
HETATM   18  O1  UNL     1      -3.890  -0.182  11.493  1.00  0.00    -0.384 OA
ENDBRANCH  13  14
ENDBRANCH   5  13
BRANCH  11  19
HETATM   19  C9  UNL     1      -5.152   7.030  11.294  1.00  0.00     0.116 C 
HETATM   20  C10 UNL     1      -4.428   8.333  11.406  1.00  0.00     0.262 C 
HETATM   21  N5  UNL     1      -5.110   9.341  10.615  1.00  0.00    -0.069 N 
HETATM   22  C11 UNL     1      -4.292  10.542  10.579  1.00  0.00     0.272 C 
HETATM   23  C12 UNL     1      -6.422   9.621  11.125  1.00  0.00     0.237 C 
HETATM   24  C16 UNL     1      -5.215   8.862   9.251  1.00  0.00     0.237 C 
HETATM   25  C13 UNL     1      -7.226   8.349  11.220  1.00  0.00     0.034 C 
HETATM   26  C14 UNL     1      -6.458   7.229  10.563  1.00  0.00     0.013 C 
HETATM   27  C15 UNL     1      -6.093   7.647   9.129  1.00  0.00     0.034 C 
ENDBRANCH  11  19
TORSDOF 3
ENDMDL
MODEL 2
REMARK VINA RESULT: -6.909724154      1.656      2.171
REMARK  3 active torsions:
REMARK  status: ('A' for Active; 'I' for Inactive)
REMARK       I    between atoms: C2_4  and  N2_5 
REMARK       I    between atoms: C2_4  and  N3_13 
REMARK    1  A    between atoms: N2_5  and  C3_7 
REMARK    2  A    between atoms: C3_7  and  C4_8 
REMARK       I    between atoms: N3_13  and  C8_15 
REMARK       I    between atoms: C8_15  and  N4_17 
REMARK    3  A    between atoms: N4_17  and  C9_19 
ROOT
HETATM    1  C1  UNL     1      -3.948   3.862  15.542  1.00  0.00     0.165 C 
HETATM    2  N1  UNL     1      -4.416   4.965  14.749  1.00  0.00    -0.231 N 
ATOM      3  H1  UNL     1      -4.716   5.819  15.220  1.00  0.00     0.177 HD
HETATM    4  C2  UNL     1      -4.471   4.910  13.458  1.00  0.00     0.677 C 
HETATM    5  N2  UNL     1      -4.065   3.746  12.751  1.00  0.00    -0.224 N 
ATOM      6  H2  UNL     1      -3.183   3.727  12.239  1.00  0.00     0.177 HD
HETATM    7  N3  UNL     1      -4.948   6.051  12.775  1.00  0.00    -0.142 N 
ATOM      8  H3  UNL     1      -5.236   6.880  13.296  1.00  0.00     0.189 HD
HETATM    9  C8  UNL     1      -5.023   6.037  11.365  1.00  0.00     0.334 C 
HETATM   10  O2  UNL     1      -4.669   5.019  10.732  1.00  0.00    -0.246 OA
HETATM   11  N4  UNL     1      -5.506   7.187  10.639  1.00  0.00    -0.336 N 
ATOM     12  H4  UNL     1      -5.796   8.018  11.153  1.00  0.00     0.164 HD
ENDROOT
BRANCH   5  13
HETATM   13  C3  UNL     1      -4.923   2.605  12.775  1.00  0.00     0.170 C 
BRANCH  13  14
HETATM   14  C4  UNL     1      -4.561   1.570  11.737  1.00  0.00     0.139 C 
HETATM   15  C5  UNL     1      -3.141   1.682  11.268  1.00  0.00     0.035 C 
HETATM   16  C6  UNL     1      -2.853   0.285  10.764  1.00  0.00     0.029 C 
HETATM   17  C7  UNL     1      -3.960  -0.518  11.388  1.00  0.00     0.168 C 
HETATM   18  O1  UNL     1      -4.591   0.305  12.309  1.00  0.00    -0.384 OA
ENDBRANCH  13  14
ENDBRANCH   5  13
BRANCH  11  19
HETATM   19  C9  UNL     1      -5.584   7.178   9.194  1.00  0.00     0.116 C 
HETATM   20  C10 UNL     1      -5.239   8.515   8.623  1.00  0.00     0.262 C 
HETATM   21  N5  UNL     1      -6.287   8.942   7.713  1.00  0.00    -0.069 N 
HETATM   22  C11 UNL     1      -5.847  10.144   7.024  1.00  0.00     0.272 C 
HETATM   23  C12 UNL     1      -7.530   9.160   8.395  1.00  0.00     0.237 C 
HETATM   24  C16 UNL     1      -6.464   7.919   6.703  1.00  0.00     0.237 C 
HETATM   25  C13 UNL     1      -7.927   7.923   9.161  1.00  0.00     0.034 C 
HETATM   26  C14 UNL     1      -6.991   6.797   8.799  1.00  0.00     0.013 C 
HETATM   27  C15 UNL     1      -6.981   6.626   7.271  1.00  0.00     0.034 C 
ENDBRANCH  11  19
TORSDOF 3
ENDMDL
MODEL 3
REMARK VINA RESULT: -6.625249008      4.184      5.532
REMARK  3 active torsions:
REMARK  status: ('A' for Active; 'I' for Inactive)
REMARK       I    between atoms: C2_4  and  N2_5 
REMARK       I    between atoms: C2_4  and  N3_13 
REMARK    1  A    between atoms: N2_5  and  C3_7 
REMARK    2  A    between atoms: C3_7  and  C4_8 
REMARK       I    between atoms: N3_13  and  C8_15 
REMARK       I    between atoms: C8_15  and  N4_17 
REMARK    3  A    between atoms: N4_17  and  C9_19 
ROOT
HETATM    1  C1  UNL     1      -5.498   3.795  14.946  1.00  0.00     0.165 C 
HETATM    2  N1  UNL     1      -4.307   4.486  14.534  1.00  0.00    -0.231 N 
ATOM      3  H1  UNL     1      -4.131   5.423  14.896  1.00  0.00     0.177 HD
HETATM    4  C2  UNL     1      -3.452   3.959  13.719  1.00  0.00     0.677 C 
HETATM    5  N2  UNL     1      -3.648   2.657  13.186  1.00  0.00    -0.224 N 
ATOM      6  H2  UNL     1      -3.098   1.867  13.521  1.00  0.00     0.177 HD
HETATM    7  N3  UNL     1      -2.315   4.725  13.379  1.00  0.00    -0.142 N 
ATOM      8  H3  UNL     1      -2.189   5.659  13.770  1.00  0.00     0.189 HD
HETATM    9  C8  UNL     1      -1.355   4.188  12.494  1.00  0.00     0.334 C 
HETATM   10  O2  UNL     1      -1.516   3.044  12.018  1.00  0.00    -0.246 OA
HETATM   11  N4  UNL     1      -0.183   4.947  12.128  1.00  0.00    -0.336 N 
ATOM     12  H4  UNL     1      -0.050   5.881  12.514  1.00  0.00     0.164 HD
ENDROOT
BRANCH   5  13
HETATM   13  C3  UNL     1      -4.635   2.482  12.168  1.00  0.00     0.170 C 
BRANCH  13  14
HETATM   14  C4  UNL     1      -4.568   1.127  11.504  1.00  0.00     0.139 C 
HETATM   15  C5  UNL     1      -3.301   0.917  10.728  1.00  0.00     0.035 C 
HETATM   16  C6  UNL     1      -3.188  -0.591  10.694  1.00  0.00     0.029 C 
HETATM   17  C7  UNL     1      -4.134  -1.011  11.784  1.00  0.00     0.168 C 
HETATM   18  O1  UNL     1      -4.496   0.136  12.473  1.00  0.00    -0.384 OA
ENDBRANCH  13  14
ENDBRANCH   5  13
BRANCH  11  19
HETATM   19  C9  UNL     1       0.805   4.402  11.221  1.00  0.00     0.116 C 
HETATM   20  C10 UNL     1       2.145   5.028  11.437  1.00  0.00     0.262 C 
HETATM   21  N5  UNL     1       2.664   5.517  10.172  1.00  0.00    -0.069 N 
HETATM   22  C11 UNL     1       4.040   5.946  10.366  1.00  0.00     0.272 C 
HETATM   23  C12 UNL     1       1.860   6.579   9.640  1.00  0.00     0.237 C 
HETATM   24  C16 UNL     1       2.695   4.416   9.231  1.00  0.00     0.237 C 
HETATM   25  C13 UNL     1       0.424   6.133   9.517  1.00  0.00     0.034 C 
HETATM   26  C14 UNL     1       0.341   4.655   9.807  1.00  0.00     0.013 C 
HETATM   27  C15 UNL     1       1.321   3.908   8.889  1.00  0.00     0.034 C 
ENDBRANCH  11  19
TORSDOF 3
ENDMDL
MODEL 4
REMARK VINA RESULT: -6.597536483      1.501      1.868
REMARK  3 active torsions:
REMARK  status: ('A' for Active; 'I' for Inactive)
REMARK       I    between atoms: C2_4  and  N2_5 
REMARK       I    between atoms: C2_4  and  N3_13 
REMARK    1  A    between atoms: N2_5  and  C3_7 
REMARK    2  A    between atoms: C3_7  and  C4_8 
REMARK       I    between atoms: N3_13  and  C8_15 
REMARK       I    between atoms: C8_15  and  N4_17 
REMARK    3  A    between atoms: N4_17  and  C9_19 
ROOT
HETATM    1  C1  UNL     1      -4.701   3.304  15.766  1.00  0.00     0.165 C 
HETATM    2  N1  UNL     1      -5.207   4.429  15.028  1.00  0.00    -0.231 N 
ATOM      3  H1  UNL     1      -5.734   5.147  15.525  1.00  0.00     0.177 HD
HETATM    4  C2  UNL     1      -5.015   4.560  13.756  1.00  0.00     0.677 C 
HETATM    5  N2  UNL     1      -4.287   3.590  13.015  1.00  0.00    -0.224 N 
ATOM      6  H2  UNL     1      -3.338   3.781  12.696  1.00  0.00     0.177 HD
HETATM    7  N3  UNL     1      -5.555   5.704  13.128  1.00  0.00    -0.142 N 
ATOM      8  H3  UNL     1      -6.076   6.392  13.673  1.00  0.00     0.189 HD
HETATM    9  C8  UNL     1      -5.369   5.889  11.740  1.00  0.00     0.334 C 
HETATM   10  O2  UNL     1      -4.731   5.043  11.079  1.00  0.00    -0.246 OA
HETATM   11  N4  UNL     1      -5.910   7.048  11.071  1.00  0.00    -0.336 N 
ATOM     12  H4  UNL     1      -6.432   7.740  11.609  1.00  0.00     0.164 HD
ENDROOT
BRANCH   5  13
HETATM   13  C3  UNL     1      -4.918   2.341  12.730  1.00  0.00     0.170 C 
BRANCH  13  14
HETATM   14  C4  UNL     1      -3.952   1.286  12.248  1.00  0.00     0.139 C 
HETATM   15  C5  UNL     1      -4.481   0.493  11.089  1.00  0.00     0.035 C 
HETATM   16  C6  UNL     1      -3.215  -0.013  10.436  1.00  0.00     0.029 C 
HETATM   17  C7  UNL     1      -2.164   0.883  11.031  1.00  0.00     0.168 C 
HETATM   18  O1  UNL     1      -2.828   1.895  11.708  1.00  0.00    -0.384 OA
ENDBRANCH  13  14
ENDBRANCH   5  13
BRANCH  11  19
HETATM   19  C9  UNL     1      -5.722   7.243   9.650  1.00  0.00     0.116 C 
HETATM   20  C10 UNL     1      -5.212   8.617   9.352  1.00  0.00     0.262 C 
HETATM   21  N5  UNL     1      -6.053   9.242   8.347  1.00  0.00    -0.069 N 
HETATM   22  C11 UNL     1      -5.436  10.491   7.932  1.00  0.00     0.272 C 
HETATM   23  C12 UNL     1      -7.388   9.457   8.827  1.00  0.00     0.237 C 
HETATM   24  C16 UNL     1      -6.092   8.383   7.181  1.00  0.00     0.237 C 
HETATM   25  C13 UNL     1      -7.979   8.160   9.319  1.00  0.00     0.034 C 
HETATM   26  C14 UNL     1      -7.049   7.027   8.963  1.00  0.00     0.013 C 
HETATM   27  C15 UNL     1      -6.767   7.067   7.452  1.00  0.00     0.034 C 
ENDBRANCH  11  19
TORSDOF 3
ENDMDL
MODEL 5
REMARK VINA RESULT: -6.543552237      2.674      3.906
REMARK  3 active torsions:
REMARK  status: ('A' for Active; 'I' for Inactive)
REMARK       I    between atoms: C2_4  and  N2_5 
REMARK       I    between atoms: C2_4  and  N3_13 
REMARK    1  A    between atoms: N2_5  and  C3_7 
REMARK    2  A    between atoms: C3_7  and  C4_8 
REMARK       I    between atoms: N3_13  and  C8_15 
REMARK       I    between atoms: C8_15  and  N4_17 
REMARK    3  A    between atoms: N4_17  and  C9_19 
ROOT
HETATM    1  C1  UNL     1       0.996   3.492   9.622  1.00  0.00     0.165 C 
HETATM    2  N1  UNL     1       0.180   4.671   9.709  1.00  0.00    -0.231 N 
ATOM      3  H1  UNL     1       0.619   5.585   9.594  1.00  0.00     0.177 HD
HETATM    4  C2  UNL     1      -1.094   4.612   9.929  1.00  0.00     0.677 C 
HETATM    5  N2  UNL     1      -1.756   3.367  10.096  1.00  0.00    -0.224 N 
ATOM      6  H2  UNL     1      -2.348   2.987   9.357  1.00  0.00     0.177 HD
HETATM    7  N3  UNL     1      -1.802   5.833   9.996  1.00  0.00    -0.142 N 
ATOM      8  H3  UNL     1      -1.312   6.719   9.874  1.00  0.00     0.189 HD
HETATM    9  C8  UNL     1      -3.194   5.816  10.232  1.00  0.00     0.334 C 
HETATM   10  O2  UNL     1      -3.788   4.727  10.381  1.00  0.00    -0.246 OA
HETATM   11  N4  UNL     1      -3.945   7.046  10.306  1.00  0.00    -0.336 N 
ATOM     12  H4  UNL     1      -3.463   7.936  10.186  1.00  0.00     0.164 HD
ENDROOT
BRANCH   5  13
HETATM   13  C3  UNL     1      -1.573   2.660  11.323  1.00  0.00     0.170 C 
BRANCH  13  14
HETATM   14  C4  UNL     1      -2.257   1.315  11.340  1.00  0.00     0.139 C 
HETATM   15  C5  UNL     1      -3.680   1.386  11.810  1.00  0.00     0.035 C 
HETATM   16  C6  UNL     1      -4.290   0.148  11.190  1.00  0.00     0.029 C 
HETATM   17  C7  UNL     1      -3.282  -0.216  10.136  1.00  0.00     0.168 C 
HETATM   18  O1  UNL     1      -2.391   0.843  10.041  1.00  0.00    -0.384 OA
ENDBRANCH  13  14
ENDBRANCH   5  13
BRANCH  11  19
HETATM   19  C9  UNL     1      -5.372   7.035  10.548  1.00  0.00     0.116 C 
HETATM   20  C10 UNL     1      -6.140   7.201   9.276  1.00  0.00     0.262 C 
HETATM   21  N5  UNL     1      -7.100   8.280   9.423  1.00  0.00    -0.069 N 
HETATM   22  C11 UNL     1      -7.964   8.301   8.254  1.00  0.00     0.272 C 
HETATM   23  C12 UNL     1      -6.453   9.547   9.612  1.00  0.00     0.237 C 
HETATM   24  C16 UNL     1      -7.944   7.994  10.565  1.00  0.00     0.237 C 
HETATM   25  C13 UNL     1      -5.508   9.478  10.786  1.00  0.00     0.034 C 
HETATM   26  C14 UNL     1      -5.700   8.162  11.497  1.00  0.00     0.013 C 
HETATM   27  C15 UNL     1      -7.185   8.002  11.863  1.00  0.00     0.034 C 
ENDBRANCH  11  19
TORSDOF 3
ENDMDL
