MODEL 1
REMARK VINA RESULT: -6.892313895      0.000      0.000
REMARK  5 active torsions:
REMARK  status: ('A' for Active; 'I' for Inactive)
REMARK    1  A    between atoms: C2_2  and  C4_4 
REMARK    2  A    between atoms: C5_5  and  N1_6 
REMARK    3  A    between atoms: C6_10  and  O1_11 
REMARK       I    between atoms: N2_14  and  C8_15 
REMARK       I    between atoms: C8_15  and  N3_17 
REMARK    4  A    between atoms: C9_19  and  C10_20 
REMARK    5  A    between atoms: C10_20  and  C11_21 
REMARK       I    between atoms: N4_24  and  C14_25 
ROOT
HETATM    1  C4  UNL     1      -5.522   8.344   7.998  1.00  0.00     0.125 C 
HETATM    2  C5  UNL     1      -5.003   9.766   7.866  1.00  0.00     0.236 C 
HETATM    3  C6  UNL     1      -6.023  10.591   8.611  1.00  0.00     0.168 C 
HETATM    4  C7  UNL     1      -6.701   9.646   9.526  1.00  0.00     0.162 C 
HETATM    5  N2  UNL     1      -6.175   8.323   9.283  1.00  0.00    -0.324 N 
HETATM    6  C8  UNL     1      -6.290   7.244  10.178  1.00  0.00     0.322 C 
HETATM    7  O2  UNL     1      -5.777   6.127   9.891  1.00  0.00    -0.247 OA
HETATM    8  N3  UNL     1      -6.967   7.330  11.426  1.00  0.00    -0.323 N 
ATOM      9  H3  UNL     1      -7.946   7.618  11.433  1.00  0.00     0.169 HD
HETATM   10  C9  UNL     1      -6.398   7.061  12.543  1.00  0.00     0.066 C 
ENDROOT
BRANCH   1  11
HETATM   11  C2  UNL     1      -6.427   7.979   6.853  1.00  0.00     0.002 C 
HETATM   12  C1  UNL     1      -5.940   8.588   5.542  1.00  0.00     0.011 C 
HETATM   13  C3  UNL     1      -6.478   6.488   6.616  1.00  0.00     0.011 C 
ENDBRANCH   1  11
BRANCH  10  14
HETATM   14  C10 UNL     1      -5.002   6.637  12.681  1.00  0.00     0.049 C 
BRANCH  14  15
HETATM   15  C11 UNL     1      -4.895   5.344  13.418  1.00  0.00    -0.007 C 
HETATM   16  C12 UNL     1      -6.206   5.012  14.117  1.00  0.00     0.025 C 
HETATM   17  C13 UNL     1      -6.106   3.641  14.706  1.00  0.00     0.126 C 
HETATM   18  N4  UNL     1      -4.895   3.441  15.488  1.00  0.00    -0.356 N 
HETATM   19  C14 UNL     1      -4.901   2.506  16.545  1.00  0.00     0.183 C 
HETATM   20  C15 UNL     1      -3.668   4.163  15.235  1.00  0.00     0.126 C 
HETATM   21  N5  UNL     1      -5.763   2.586  17.485  1.00  0.00    -0.374 N 
HETATM   22  N6  UNL     1      -3.947   1.468  16.569  1.00  0.00    -0.064 NA
ATOM     23  H52 UNL     1      -6.453   3.337  17.468  1.00  0.00     0.158 HD
ATOM     24  H51 UNL     1      -5.767   1.910  18.249  1.00  0.00     0.158 HD
HETATM   25  C16 UNL     1      -3.859   5.460  14.524  1.00  0.00     0.025 C 
ENDBRANCH  14  15
ENDBRANCH  10  14
BRANCH   2  26
HETATM   26  N1  UNL     1      -3.723   9.876   8.519  1.00  0.00    -0.070 N 
ATOM     27  H13 UNL     1      -3.418  10.845   8.609  1.00  0.00     0.274 HD
ATOM     28  H12 UNL     1      -3.776   9.646   9.511  1.00  0.00     0.274 HD
ATOM     29  H11 UNL     1      -3.037   9.302   8.027  1.00  0.00     0.274 HD
ENDBRANCH   2  26
BRANCH   3  30
HETATM   30  O1  UNL     1      -6.974  11.115   7.732  1.00  0.00    -0.392 OA
ATOM     31  H1  UNL     1      -7.527  10.426   7.383  1.00  0.00     0.210 HD
ENDBRANCH   3  30
TORSDOF 5
ENDMDL
MODEL 2
REMARK VINA RESULT: -6.886077738      1.648      2.494
REMARK  5 active torsions:
REMARK  status: ('A' for Active; 'I' for Inactive)
REMARK    1  A    between atoms: C2_2  and  C4_4 
REMARK    2  A    between atoms: C5_5  and  N1_6 
REMARK    3  A    between atoms: C6_10  and  O1_11 
REMARK       I    between atoms: N2_14  and  C8_15 
REMARK       I    between atoms: C8_15  and  N3_17 
REMARK    4  A    between atoms: C9_19  and  C10_20 
REMARK    5  A    between atoms: C10_20  and  C11_21 
REMARK       I    between atoms: N4_24  and  C14_25 
ROOT
HETATM    1  C4  UNL     1      -6.714   8.313   8.598  1.00  0.00     0.125 C 
HETATM    2  C5  UNL     1      -6.856   7.215   7.558  1.00  0.00     0.236 C 
HETATM    3  C6  UNL     1      -5.436   6.777   7.302  1.00  0.00     0.168 C 
HETATM    4  C7  UNL     1      -4.672   7.200   8.498  1.00  0.00     0.162 C 
HETATM    5  N2  UNL     1      -5.565   7.918   9.375  1.00  0.00    -0.324 N 
HETATM    6  C8  UNL     1      -5.323   8.151  10.741  1.00  0.00     0.322 C 
HETATM    7  O2  UNL     1      -6.174   8.771  11.438  1.00  0.00    -0.247 OA
HETATM    8  N3  UNL     1      -4.144   7.722  11.411  1.00  0.00    -0.323 N 
ATOM      9  H3  UNL     1      -3.239   8.032  11.057  1.00  0.00     0.169 HD
HETATM   10  C9  UNL     1      -4.172   6.961  12.443  1.00  0.00     0.066 C 
ENDROOT
BRANCH   1  11
HETATM   11  C2  UNL     1      -6.575   9.667   7.957  1.00  0.00     0.002 C 
HETATM   12  C1  UNL     1      -7.432   9.778   6.701  1.00  0.00     0.011 C 
HETATM   13  C3  UNL     1      -7.035  10.782   8.865  1.00  0.00     0.011 C 
ENDBRANCH   1  11
BRANCH  10  14
HETATM   14  C10 UNL     1      -5.398   6.442  13.058  1.00  0.00     0.049 C 
BRANCH  14  15
HETATM   15  C11 UNL     1      -5.162   5.124  13.716  1.00  0.00    -0.007 C 
HETATM   16  C12 UNL     1      -6.419   4.645  14.429  1.00  0.00     0.025 C 
HETATM   17  C13 UNL     1      -6.188   3.257  14.936  1.00  0.00     0.126 C 
HETATM   18  N4  UNL     1      -4.942   3.117  15.673  1.00  0.00    -0.356 N 
HETATM   19  C14 UNL     1      -4.838   2.128  16.674  1.00  0.00     0.183 C 
HETATM   20  C15 UNL     1      -3.786   3.951  15.430  1.00  0.00     0.126 C 
HETATM   21  N5  UNL     1      -5.674   2.084  17.640  1.00  0.00    -0.374 N 
HETATM   22  N6  UNL     1      -3.802   1.174  16.613  1.00  0.00    -0.064 NA
ATOM     23  H52 UNL     1      -6.423   2.775  17.685  1.00  0.00     0.158 HD
ATOM     24  H51 UNL     1      -5.599   1.369  18.363  1.00  0.00     0.158 HD
HETATM   25  C16 UNL     1      -4.105   5.266  14.799  1.00  0.00     0.025 C 
ENDBRANCH  14  15
ENDBRANCH  10  14
BRANCH   2  26
HETATM   26  N1  UNL     1      -7.608   6.118   8.112  1.00  0.00    -0.070 N 
ATOM     27  H13 UNL     1      -7.169   5.216   7.924  1.00  0.00     0.274 HD
ATOM     28  H12 UNL     1      -7.559   6.094   9.131  1.00  0.00     0.274 HD
ATOM     29  H11 UNL     1      -8.569   6.155   7.773  1.00  0.00     0.274 HD
ENDBRANCH   2  26
BRANCH   3  30
HETATM   30  O1  UNL     1      -4.908   7.431   6.187  1.00  0.00    -0.392 OA
ATOM     31  H1  UNL     1      -5.495   7.358   5.443  1.00  0.00     0.210 HD
ENDBRANCH   3  30
TORSDOF 5
ENDMDL
MODEL 3
REMARK VINA RESULT: -6.797261109      3.908      5.293
REMARK  5 active torsions:
REMARK  status: ('A' for Active; 'I' for Inactive)
REMARK    1  A    between atoms: C2_2  and  C4_4 
REMARK    2  A    between atoms: C5_5  and  N1_6 
REMARK    3  A    between atoms: C6_10  and  O1_11 
REMARK       I    between atoms: N2_14  and  C8_15 
REMARK       I    between atoms: C8_15  and  N3_17 
REMARK    4  A    between atoms: C9_19  and  C10_20 
REMARK    5  A    between atoms: C10_20  and  C11_21 
REMARK       I    between atoms: N4_24  and  C14_25 
ROOT
HETATM    1  C4  UNL     1      -1.635   4.150   9.647  1.00  0.00     0.125 C 
HETATM    2  C5  UNL     1      -0.996   2.947  10.318  1.00  0.00     0.236 C 
HETATM    3  C6  UNL     1      -0.106   3.555  11.374  1.00  0.00     0.168 C 
HETATM    4  C7  UNL     1      -0.653   4.909  11.616  1.00  0.00     0.162 C 
HETATM    5  N2  UNL     1      -1.749   5.126  10.703  1.00  0.00    -0.324 N 
HETATM    6  C8  UNL     1      -2.738   6.113  10.865  1.00  0.00     0.322 C 
HETATM    7  O2  UNL     1      -3.676   6.214  10.025  1.00  0.00    -0.247 OA
HETATM    8  N3  UNL     1      -2.752   7.036  11.947  1.00  0.00    -0.323 N 
ATOM      9  H3  UNL     1      -1.937   7.632  12.093  1.00  0.00     0.169 HD
HETATM   10  C9  UNL     1      -3.747   7.149  12.749  1.00  0.00     0.066 C 
ENDROOT
BRANCH   1  11
HETATM   11  C2  UNL     1      -0.823   4.623   8.471  1.00  0.00     0.002 C 
HETATM   12  C1  UNL     1      -0.106   3.463   7.788  1.00  0.00     0.011 C 
HETATM   13  C3  UNL     1      -1.679   5.260   7.403  1.00  0.00     0.011 C 
ENDBRANCH   1  11
BRANCH  10  14
HETATM   14  C10 UNL     1      -4.978   6.358  12.658  1.00  0.00     0.049 C 
BRANCH  14  15
HETATM   15  C11 UNL     1      -4.866   5.086  13.430  1.00  0.00    -0.007 C 
HETATM   16  C12 UNL     1      -6.174   4.772  14.144  1.00  0.00     0.025 C 
HETATM   17  C13 UNL     1      -6.070   3.418  14.771  1.00  0.00     0.126 C 
HETATM   18  N4  UNL     1      -4.855   3.242  15.553  1.00  0.00    -0.356 N 
HETATM   19  C14 UNL     1      -4.856   2.337  16.635  1.00  0.00     0.183 C 
HETATM   20  C15 UNL     1      -3.630   3.957  15.274  1.00  0.00     0.126 C 
HETATM   21  N5  UNL     1      -5.713   2.442  17.577  1.00  0.00    -0.374 N 
HETATM   22  N6  UNL     1      -3.901   1.300  16.684  1.00  0.00    -0.064 NA
ATOM     23  H52 UNL     1      -6.404   3.192  17.542  1.00  0.00     0.158 HD
ATOM     24  H51 UNL     1      -5.713   1.787  18.359  1.00  0.00     0.158 HD
HETATM   25  C16 UNL     1      -3.825   5.234  14.528  1.00  0.00     0.025 C 
ENDBRANCH  14  15
ENDBRANCH  10  14
BRANCH   2  26
HETATM   26  N1  UNL     1      -2.015   2.146  10.948  1.00  0.00    -0.070 N 
ATOM     27  H13 UNL     1      -1.989   2.220  11.965  1.00  0.00     0.274 HD
ATOM     28  H12 UNL     1      -2.950   2.525  10.797  1.00  0.00     0.274 HD
ATOM     29  H11 UNL     1      -1.936   1.179  10.630  1.00  0.00     0.274 HD
ENDBRANCH   2  26
BRANCH   3  30
HETATM   30  O1  UNL     1       1.203   3.684  10.905  1.00  0.00    -0.392 OA
ATOM     31  H1  UNL     1       1.243   4.296  10.179  1.00  0.00     0.210 HD
ENDBRANCH   3  30
TORSDOF 5
ENDMDL
MODEL 4
REMARK VINA RESULT: -6.767461672      3.888      5.406
REMARK  5 active torsions:
REMARK  status: ('A' for Active; 'I' for Inactive)
REMARK    1  A    between atoms: C2_2  and  C4_4 
REMARK    2  A    between atoms: C5_5  and  N1_6 
REMARK    3  A    between atoms: C6_10  and  O1_11 
REMARK       I    between atoms: N2_14  and  C8_15 
REMARK       I    between atoms: C8_15  and  N3_17 
REMARK    4  A    between atoms: C9_19  and  C10_20 
REMARK    5  A    between atoms: C10_20  and  C11_21 
REMARK       I    between atoms: N4_24  and  C14_25 
ROOT
HETATM    1  C4  UNL     1      -2.017   4.510  10.348  1.00  0.00     0.125 C 
HETATM    2  C5  UNL     1      -1.403   3.131  10.512  1.00  0.00     0.236 C 
HETATM    3  C6  UNL     1      -0.592   3.246  11.779  1.00  0.00     0.168 C 
HETATM    4  C7  UNL     1      -1.174   4.391  12.515  1.00  0.00     0.162 C 
HETATM    5  N2  UNL     1      -2.214   4.973  11.700  1.00  0.00    -0.324 N 
HETATM    6  C8  UNL     1      -3.226   5.821  12.186  1.00  0.00     0.322 C 
HETATM    7  O2  UNL     1      -4.110   6.265  11.401  1.00  0.00    -0.247 OA
HETATM    8  N3  UNL     1      -3.323   6.224  13.546  1.00  0.00    -0.323 N 
ATOM      9  H3  UNL     1      -2.529   6.700  13.974  1.00  0.00     0.169 HD
HETATM   10  C9  UNL     1      -4.369   6.013  14.258  1.00  0.00     0.066 C 
ENDROOT
BRANCH   1  11
HETATM   11  C2  UNL     1      -1.140   5.411   9.522  1.00  0.00     0.002 C 
HETATM   12  C1  UNL     1      -0.459   4.642   8.394  1.00  0.00     0.011 C 
HETATM   13  C3  UNL     1      -1.922   6.514   8.850  1.00  0.00     0.011 C 
ENDBRANCH   1  11
BRANCH  10  14
HETATM   14  C10 UNL     1      -5.579   5.341  13.775  1.00  0.00     0.049 C 
BRANCH  14  15
HETATM   15  C11 UNL     1      -5.916   4.154  14.615  1.00  0.00    -0.007 C 
HETATM   16  C12 UNL     1      -6.333   4.585  16.014  1.00  0.00     0.025 C 
HETATM   17  C13 UNL     1      -6.811   3.385  16.767  1.00  0.00     0.126 C 
HETATM   18  N4  UNL     1      -5.892   2.258  16.691  1.00  0.00    -0.356 N 
HETATM   19  C14 UNL     1      -5.860   1.321  17.745  1.00  0.00     0.183 C 
HETATM   20  C15 UNL     1      -4.998   2.048  15.575  1.00  0.00     0.126 C 
HETATM   21  N5  UNL     1      -5.653   1.695  18.949  1.00  0.00    -0.374 N 
HETATM   22  N6  UNL     1      -6.059  -0.049  17.472  1.00  0.00    -0.064 NA
ATOM     23  H52 UNL     1      -5.509   2.685  19.147  1.00  0.00     0.158 HD
ATOM     24  H51 UNL     1      -5.630   1.017  19.710  1.00  0.00     0.158 HD
HETATM   25  C16 UNL     1      -4.683   3.285  14.804  1.00  0.00     0.025 C 
ENDBRANCH  14  15
ENDBRANCH  10  14
BRANCH   2  26
HETATM   26  N1  UNL     1      -2.448   2.155  10.694  1.00  0.00    -0.070 N 
ATOM     27  H13 UNL     1      -2.966   2.303  11.561  1.00  0.00     0.274 HD
ATOM     28  H12 UNL     1      -3.218   2.289  10.039  1.00  0.00     0.274 HD
ATOM     29  H11 UNL     1      -2.053   1.216  10.638  1.00  0.00     0.274 HD
ENDBRANCH   2  26
BRANCH   3  30
HETATM   30  O1  UNL     1       0.742   3.540  11.488  1.00  0.00    -0.392 OA
ATOM     31  H1  UNL     1       1.263   2.746  11.454  1.00  0.00     0.210 HD
ENDBRANCH   3  30
TORSDOF 5
ENDMDL
MODEL 5
REMARK VINA RESULT: -6.624425179      3.830      5.372
REMARK  5 active torsions:
REMARK  status: ('A' for Active; 'I' for Inactive)
REMARK    1  A    between atoms: C2_2  and  C4_4 
REMARK    2  A    between atoms: C5_5  and  N1_6 
REMARK    3  A    between atoms: C6_10  and  O1_11 
REMARK       I    between atoms: N2_14  and  C8_15 
REMARK       I    between atoms: C8_15  and  N3_17 
REMARK    4  A    between atoms: C9_19  and  C10_20 
REMARK    5  A    between atoms: C10_20  and  C11_21 
REMARK       I    between atoms: N4_24  and  C14_25 
ROOT
HETATM    1  C4  UNL     1      -1.776   4.066   9.820  1.00  0.00     0.125 C 
HETATM    2  C5  UNL     1      -0.955   2.990  10.510  1.00  0.00     0.236 C 
HETATM    3  C6  UNL     1      -0.057   3.766  11.441  1.00  0.00     0.168 C 
HETATM    4  C7  UNL     1      -0.730   5.069  11.641  1.00  0.00     0.162 C 
HETATM    5  N2  UNL     1      -1.914   5.100  10.816  1.00  0.00    -0.324 N 
HETATM    6  C8  UNL     1      -2.990   5.987  11.000  1.00  0.00     0.322 C 
HETATM    7  O2  UNL     1      -3.998   5.924  10.242  1.00  0.00    -0.247 OA
HETATM    8  N3  UNL     1      -3.020   6.981  12.016  1.00  0.00    -0.323 N 
ATOM      9  H3  UNL     1      -2.268   7.670  12.049  1.00  0.00     0.169 HD
HETATM   10  C9  UNL     1      -3.953   7.048  12.893  1.00  0.00     0.066 C 
ENDROOT
BRANCH   1  11
HETATM   11  C2  UNL     1      -1.120   4.532   8.549  1.00  0.00     0.002 C 
HETATM   12  C1  UNL     1      -0.288   3.424   7.914  1.00  0.00     0.011 C 
HETATM   13  C3  UNL     1      -2.127   4.939   7.500  1.00  0.00     0.011 C 
ENDBRANCH   1  11
BRANCH  10  14
HETATM   14  C10 UNL     1      -5.092   6.127  12.964  1.00  0.00     0.049 C 
BRANCH  14  15
HETATM   15  C11 UNL     1      -5.024   5.271  14.185  1.00  0.00    -0.007 C 
HETATM   16  C12 UNL     1      -3.817   4.345  14.128  1.00  0.00     0.025 C 
HETATM   17  C13 UNL     1      -3.700   3.623  15.432  1.00  0.00     0.126 C 
HETATM   18  N4  UNL     1      -4.950   3.018  15.866  1.00  0.00    -0.356 N 
HETATM   19  C14 UNL     1      -4.915   1.872  16.688  1.00  0.00     0.183 C 
HETATM   20  C15 UNL     1      -6.246   3.538  15.493  1.00  0.00     0.126 C 
HETATM   21  N5  UNL     1      -4.276   0.826  16.326  1.00  0.00    -0.374 N 
HETATM   22  N6  UNL     1      -5.591   1.874  17.925  1.00  0.00    -0.064 NA
ATOM     23  H52 UNL     1      -3.786   0.824  15.431  1.00  0.00     0.158 HD
ATOM     24  H51 UNL     1      -4.250  -0.002  16.920  1.00  0.00     0.158 HD
HETATM   25  C16 UNL     1      -6.238   4.358  14.246  1.00  0.00     0.025 C 
ENDBRANCH  14  15
ENDBRANCH  10  14
BRANCH   2  26
HETATM   26  N1  UNL     1      -1.824   2.135  11.279  1.00  0.00    -0.070 N 
ATOM     27  H13 UNL     1      -2.760   2.529  11.381  1.00  0.00     0.274 HD
ATOM     28  H12 UNL     1      -2.077   1.288  10.771  1.00  0.00     0.274 HD
ATOM     29  H11 UNL     1      -1.393   1.930  12.180  1.00  0.00     0.274 HD
ENDBRANCH   2  26
BRANCH   3  30
HETATM   30  O1  UNL     1       1.188   3.998  10.850  1.00  0.00    -0.392 OA
ATOM     31  H1  UNL     1       1.601   3.179  10.602  1.00  0.00     0.210 HD
ENDBRANCH   3  30
TORSDOF 5
ENDMDL
