MODEL 1
REMARK VINA RESULT: -7.344138388      0.000      0.000
REMARK  4 active torsions:
REMARK  status: ('A' for Active; 'I' for Inactive)
REMARK       I    between atoms: C1_4  and  N3_6 
REMARK       I    between atoms: N4_9  and  C4_10 
REMARK       I    between atoms: C4_10  and  N5_12 
REMARK    1  A    between atoms: N5_12  and  C5_14 
REMARK    2  A    between atoms: C7_16  and  C8_17 
REMARK    3  A    between atoms: C8_17  and  C9_18 
REMARK    4  A    between atoms: C9_18  and  N6_19 
ROOT
HETATM    1  C5  UNL     1      -4.234   3.889  14.214  1.00  0.00     0.035 C 
HETATM    2  C6  UNL     1      -4.153   3.150  15.503  1.00  0.00     0.036 C 
HETATM    3  C7  UNL     1      -5.292   3.598  16.393  1.00  0.00    -0.006 C 
HETATM    4  C10 UNL     1      -6.189   4.602  15.777  1.00  0.00    -0.002 C 
HETATM    5  C11 UNL     1      -5.481   5.773  15.146  1.00  0.00    -0.007 C 
HETATM    6  C12 UNL     1      -6.567   5.730  14.058  1.00  0.00     0.010 C 
HETATM    7  C13 UNL     1      -6.654   4.243  14.391  1.00  0.00    -0.007 C 
HETATM    8  C14 UNL     1      -5.602   3.538  13.613  1.00  0.00     0.036 C 
HETATM    9  C15 UNL     1      -4.198   5.384  14.462  1.00  0.00     0.036 C 
ENDROOT
BRANCH   1  10
HETATM   10  N5  UNL     1      -3.205   3.462  13.319  1.00  0.00    -0.334 N 
HETATM   11  C4  UNL     1      -3.252   3.692  11.940  1.00  0.00     0.319 C 
HETATM   12  N4  UNL     1      -2.246   3.282  11.056  1.00  0.00    -0.331 N 
HETATM   13  O1  UNL     1      -4.244   4.304  11.424  1.00  0.00    -0.247 OA
HETATM   14  C3  UNL     1      -1.077   2.575  11.480  1.00  0.00     0.147 C 
HETATM   15  C16 UNL     1      -2.350   3.579   9.638  1.00  0.00     0.147 C 
HETATM   16  C2  UNL     1       0.083   3.573  11.386  1.00  0.00     0.145 C 
HETATM   17  N3  UNL     1       0.022   4.141  10.045  1.00  0.00    -0.353 N 
HETATM   18  C1  UNL     1       1.038   5.071   9.719  1.00  0.00     0.184 C 
HETATM   19  C17 UNL     1      -0.970   3.827   9.061  1.00  0.00     0.145 C 
HETATM   20  N1  UNL     1       2.263   4.730   9.877  1.00  0.00    -0.374 N 
HETATM   21  N2  UNL     1       0.699   6.353   9.227  1.00  0.00    -0.064 NA
ATOM     22  H12 UNL     1       2.995   5.400   9.642  1.00  0.00     0.158 HD
ATOM     23  H11 UNL     1       2.508   3.806  10.232  1.00  0.00     0.158 HD
ATOM     24  H5  UNL     1      -2.400   2.967  13.703  1.00  0.00     0.165 HD
ENDBRANCH   1  10
BRANCH   3  25
HETATM   25  C8  UNL     1      -6.072   2.409  16.841  1.00  0.00     0.032 C 
BRANCH  25  26
HETATM   26  C9  UNL     1      -5.332   1.096  16.573  1.00  0.00     0.230 C 
BRANCH  26  27
HETATM   27  N6  UNL     1      -5.733   0.105  17.581  1.00  0.00    -0.079 N 
ATOM     28  H63 UNL     1      -6.655   0.300  17.971  1.00  0.00     0.274 HD
ATOM     29  H62 UNL     1      -5.941  -0.805  17.169  1.00  0.00     0.274 HD
ATOM     30  H61 UNL     1      -5.011   0.050  18.300  1.00  0.00     0.274 HD
ENDBRANCH  26  27
ENDBRANCH  25  26
ENDBRANCH   3  25
TORSDOF 4
ENDMDL
MODEL 2
REMARK VINA RESULT: -7.107761282      1.044      1.200
REMARK  4 active torsions:
REMARK  status: ('A' for Active; 'I' for Inactive)
REMARK       I    between atoms: C1_4  and  N3_6 
REMARK       I    between atoms: N4_9  and  C4_10 
REMARK       I    between atoms: C4_10  and  N5_12 
REMARK    1  A    between atoms: N5_12  and  C5_14 
REMARK    2  A    between atoms: C7_16  and  C8_17 
REMARK    3  A    between atoms: C8_17  and  C9_18 
REMARK    4  A    between atoms: C9_18  and  N6_19 
ROOT
HETATM    1  C5  UNL     1      -4.081   4.117  14.316  1.00  0.00     0.035 C 
HETATM    2  C6  UNL     1      -4.116   3.233  15.513  1.00  0.00     0.036 C 
HETATM    3  C7  UNL     1      -5.391   3.506  16.281  1.00  0.00    -0.006 C 
HETATM    4  C10 UNL     1      -6.271   4.524  15.663  1.00  0.00    -0.002 C 
HETATM    5  C11 UNL     1      -5.574   5.801  15.272  1.00  0.00    -0.007 C 
HETATM    6  C12 UNL     1      -6.501   5.829  14.046  1.00  0.00     0.010 C 
HETATM    7  C13 UNL     1      -6.523   4.309  14.194  1.00  0.00    -0.007 C 
HETATM    8  C14 UNL     1      -5.330   3.764  13.496  1.00  0.00     0.036 C 
HETATM    9  C15 UNL     1      -4.187   5.571  14.733  1.00  0.00     0.036 C 
ENDROOT
BRANCH   1  10
HETATM   10  N5  UNL     1      -2.916   3.861  13.530  1.00  0.00    -0.334 N 
HETATM   11  C4  UNL     1      -2.920   3.014  12.417  1.00  0.00     0.319 C 
HETATM   12  N4  UNL     1      -1.784   2.760  11.638  1.00  0.00    -0.331 N 
HETATM   13  O1  UNL     1      -3.993   2.424  12.061  1.00  0.00    -0.247 OA
HETATM   14  C3  UNL     1      -0.504   3.336  11.916  1.00  0.00     0.147 C 
HETATM   15  C16 UNL     1      -1.869   1.888  10.479  1.00  0.00     0.147 C 
HETATM   16  C2  UNL     1      -0.270   4.397  10.834  1.00  0.00     0.145 C 
HETATM   17  N3  UNL     1      -0.508   3.734   9.558  1.00  0.00    -0.353 N 
HETATM   18  C1  UNL     1      -0.307   4.525   8.401  1.00  0.00     0.184 C 
HETATM   19  C17 UNL     1      -0.919   2.371   9.400  1.00  0.00     0.145 C 
HETATM   20  N1  UNL     1       0.812   5.132   8.253  1.00  0.00    -0.374 N 
HETATM   21  N2  UNL     1      -1.328   4.639   7.429  1.00  0.00    -0.064 NA
ATOM     22  H12 UNL     1       0.957   5.702   7.420  1.00  0.00     0.158 HD
ATOM     23  H11 UNL     1       1.548   5.050   8.954  1.00  0.00     0.158 HD
ATOM     24  H5  UNL     1      -2.042   4.316  13.792  1.00  0.00     0.165 HD
ENDBRANCH   1  10
BRANCH   3  25
HETATM   25  C8  UNL     1      -6.135   2.228  16.480  1.00  0.00     0.032 C 
BRANCH  25  26
HETATM   26  C9  UNL     1      -5.199   1.022  16.580  1.00  0.00     0.230 C 
BRANCH  26  27
HETATM   27  N6  UNL     1      -5.715   0.096  17.597  1.00  0.00    -0.079 N 
ATOM     28  H63 UNL     1      -4.994  -0.201  18.253  1.00  0.00     0.274 HD
ATOM     29  H62 UNL     1      -6.334   0.558  18.264  1.00  0.00     0.274 HD
ATOM     30  H61 UNL     1      -6.166  -0.693  17.132  1.00  0.00     0.274 HD
ENDBRANCH  26  27
ENDBRANCH  25  26
ENDBRANCH   3  25
TORSDOF 4
ENDMDL
MODEL 3
REMARK VINA RESULT: -6.744501338      4.452      6.834
REMARK  4 active torsions:
REMARK  status: ('A' for Active; 'I' for Inactive)
REMARK       I    between atoms: C1_4  and  N3_6 
REMARK       I    between atoms: N4_9  and  C4_10 
REMARK       I    between atoms: C4_10  and  N5_12 
REMARK    1  A    between atoms: N5_12  and  C5_14 
REMARK    2  A    between atoms: C7_16  and  C8_17 
REMARK    3  A    between atoms: C8_17  and  C9_18 
REMARK    4  A    between atoms: C9_18  and  N6_19 
ROOT
HETATM    1  C5  UNL     1      -5.274   7.553  10.291  1.00  0.00     0.035 C 
HETATM    2  C6  UNL     1      -6.438   7.056   9.508  1.00  0.00     0.036 C 
HETATM    3  C7  UNL     1      -7.318   8.233   9.146  1.00  0.00    -0.006 C 
HETATM    4  C10 UNL     1      -6.811   9.542   9.617  1.00  0.00    -0.002 C 
HETATM    5  C11 UNL     1      -6.408   9.574  11.069  1.00  0.00    -0.007 C 
HETATM    6  C12 UNL     1      -5.265  10.508  10.641  1.00  0.00     0.010 C 
HETATM    7  C13 UNL     1      -5.361   9.792   9.296  1.00  0.00    -0.007 C 
HETATM    8  C14 UNL     1      -4.548   8.551   9.379  1.00  0.00     0.036 C 
HETATM    9  C15 UNL     1      -5.749   8.298  11.522  1.00  0.00     0.036 C 
ENDROOT
BRANCH   1  10
HETATM   10  N5  UNL     1      -4.386   6.481  10.615  1.00  0.00    -0.334 N 
HETATM   11  C4  UNL     1      -4.655   5.547  11.621  1.00  0.00     0.319 C 
HETATM   12  N4  UNL     1      -3.794   4.491  11.942  1.00  0.00    -0.331 N 
HETATM   13  O1  UNL     1      -5.730   5.628  12.302  1.00  0.00    -0.247 OA
HETATM   14  C3  UNL     1      -2.546   4.274  11.276  1.00  0.00     0.147 C 
HETATM   15  C16 UNL     1      -4.151   3.543  12.983  1.00  0.00     0.147 C 
HETATM   16  C2  UNL     1      -2.747   3.043  10.384  1.00  0.00     0.145 C 
HETATM   17  N3  UNL     1      -3.305   2.005  11.243  1.00  0.00    -0.353 N 
HETATM   18  C1  UNL     1      -3.536   0.751  10.629  1.00  0.00     0.184 C 
HETATM   19  C17 UNL     1      -3.622   2.166  12.630  1.00  0.00     0.145 C 
HETATM   20  N1  UNL     1      -2.574   0.180  10.006  1.00  0.00    -0.374 N 
HETATM   21  N2  UNL     1      -4.811   0.144  10.709  1.00  0.00    -0.064 NA
ATOM     22  H12 UNL     1      -2.740  -0.724   9.564  1.00  0.00     0.158 HD
ATOM     23  H11 UNL     1      -1.654   0.617   9.948  1.00  0.00     0.158 HD
ATOM     24  H5  UNL     1      -3.517   6.392  10.088  1.00  0.00     0.165 HD
ENDBRANCH   1  10
BRANCH   3  25
HETATM   25  C8  UNL     1      -7.532   8.259   7.670  1.00  0.00     0.032 C 
BRANCH  25  26
HETATM   26  C9  UNL     1      -6.872   7.071   6.968  1.00  0.00     0.230 C 
BRANCH  26  27
HETATM   27  N6  UNL     1      -6.218   7.542   5.739  1.00  0.00    -0.079 N 
ATOM     28  H63 UNL     1      -6.780   7.360   4.907  1.00  0.00     0.274 HD
ATOM     29  H62 UNL     1      -6.197   8.561   5.677  1.00  0.00     0.274 HD
ATOM     30  H61 UNL     1      -5.287   7.130   5.678  1.00  0.00     0.274 HD
ENDBRANCH  26  27
ENDBRANCH  25  26
ENDBRANCH   3  25
TORSDOF 4
ENDMDL
MODEL 4
REMARK VINA RESULT: -6.729426334      2.383      7.297
REMARK  4 active torsions:
REMARK  status: ('A' for Active; 'I' for Inactive)
REMARK       I    between atoms: C1_4  and  N3_6 
REMARK       I    between atoms: N4_9  and  C4_10 
REMARK       I    between atoms: C4_10  and  N5_12 
REMARK    1  A    between atoms: N5_12  and  C5_14 
REMARK    2  A    between atoms: C7_16  and  C8_17 
REMARK    3  A    between atoms: C8_17  and  C9_18 
REMARK    4  A    between atoms: C9_18  and  N6_19 
ROOT
HETATM    1  C5  UNL     1      -2.489   2.976  11.814  1.00  0.00     0.035 C 
HETATM    2  C6  UNL     1      -3.092   1.712  11.309  1.00  0.00     0.036 C 
HETATM    3  C7  UNL     1      -2.446   1.359   9.987  1.00  0.00    -0.006 C 
HETATM    4  C10 UNL     1      -1.394   2.306   9.550  1.00  0.00    -0.002 C 
HETATM    5  C11 UNL     1      -1.794   3.757   9.604  1.00  0.00    -0.007 C 
HETATM    6  C12 UNL     1      -0.350   4.048  10.044  1.00  0.00     0.010 C 
HETATM    7  C13 UNL     1      -0.379   2.631  10.613  1.00  0.00    -0.007 C 
HETATM    8  C14 UNL     1      -0.988   2.695  11.967  1.00  0.00     0.036 C 
HETATM    9  C15 UNL     1      -2.659   4.083  10.792  1.00  0.00     0.036 C 
ENDROOT
BRANCH   1  10
HETATM   10  N5  UNL     1      -3.034   3.324  13.088  1.00  0.00    -0.334 N 
HETATM   11  C4  UNL     1      -4.402   3.529  13.300  1.00  0.00     0.319 C 
HETATM   12  N4  UNL     1      -4.946   3.867  14.546  1.00  0.00    -0.331 N 
HETATM   13  O1  UNL     1      -5.226   3.412  12.335  1.00  0.00    -0.247 OA
HETATM   14  C3  UNL     1      -4.149   4.046  15.720  1.00  0.00     0.147 C 
HETATM   15  C16 UNL     1      -6.380   4.039  14.697  1.00  0.00     0.147 C 
HETATM   16  C2  UNL     1      -4.417   2.825  16.608  1.00  0.00     0.145 C 
HETATM   17  N3  UNL     1      -5.867   2.715  16.721  1.00  0.00    -0.353 N 
HETATM   18  C1  UNL     1      -6.348   1.666  17.540  1.00  0.00     0.184 C 
HETATM   19  C17 UNL     1      -6.811   3.578  16.076  1.00  0.00     0.145 C 
HETATM   20  N1  UNL     1      -5.916   1.572  18.742  1.00  0.00    -0.374 N 
HETATM   21  N2  UNL     1      -7.289   0.740  17.033  1.00  0.00    -0.064 NA
ATOM     22  H12 UNL     1      -6.263   0.817  19.333  1.00  0.00     0.158 HD
ATOM     23  H11 UNL     1      -5.237   2.239  19.109  1.00  0.00     0.158 HD
ATOM     24  H5  UNL     1      -2.398   3.428  13.878  1.00  0.00     0.165 HD
ENDBRANCH   1  10
BRANCH   3  25
HETATM   25  C8  UNL     1      -1.902  -0.028  10.052  1.00  0.00     0.032 C 
BRANCH  25  26
HETATM   26  C9  UNL     1      -2.849  -0.987  10.777  1.00  0.00     0.230 C 
BRANCH  26  27
HETATM   27  N6  UNL     1      -2.099  -2.183  11.188  1.00  0.00    -0.079 N 
ATOM     28  H63 UNL     1      -1.358  -2.420  10.529  1.00  0.00     0.274 HD
ATOM     29  H62 UNL     1      -1.515  -2.012  12.006  1.00  0.00     0.274 HD
ATOM     30  H61 UNL     1      -2.753  -2.953  11.331  1.00  0.00     0.274 HD
ENDBRANCH  26  27
ENDBRANCH  25  26
ENDBRANCH   3  25
TORSDOF 4
ENDMDL
MODEL 5
REMARK VINA RESULT: -6.609389325      4.847      7.200
REMARK  4 active torsions:
REMARK  status: ('A' for Active; 'I' for Inactive)
REMARK       I    between atoms: C1_4  and  N3_6 
REMARK       I    between atoms: N4_9  and  C4_10 
REMARK       I    between atoms: C4_10  and  N5_12 
REMARK    1  A    between atoms: N5_12  and  C5_14 
REMARK    2  A    between atoms: C7_16  and  C8_17 
REMARK    3  A    between atoms: C8_17  and  C9_18 
REMARK    4  A    between atoms: C9_18  and  N6_19 
ROOT
HETATM    1  C5  UNL     1      -5.848   7.398   9.923  1.00  0.00     0.035 C 
HETATM    2  C6  UNL     1      -7.127   7.177   9.194  1.00  0.00     0.036 C 
HETATM    3  C7  UNL     1      -7.885   8.486   9.134  1.00  0.00    -0.006 C 
HETATM    4  C10 UNL     1      -7.183   9.627   9.765  1.00  0.00    -0.002 C 
HETATM    5  C11 UNL     1      -6.657   9.352  11.150  1.00  0.00    -0.007 C 
HETATM    6  C12 UNL     1      -5.450  10.224  10.769  1.00  0.00     0.010 C 
HETATM    7  C13 UNL     1      -5.747   9.777   9.340  1.00  0.00    -0.007 C 
HETATM    8  C14 UNL     1      -5.087   8.464   9.123  1.00  0.00     0.036 C 
HETATM    9  C15 UNL     1      -6.122   7.953  11.307  1.00  0.00     0.036 C 
ENDROOT
BRANCH   1  10
HETATM   10  N5  UNL     1      -5.073   6.198   9.963  1.00  0.00    -0.334 N 
HETATM   11  C4  UNL     1      -4.190   5.898  11.005  1.00  0.00     0.319 C 
HETATM   12  N4  UNL     1      -3.429   4.723  11.055  1.00  0.00    -0.331 N 
HETATM   13  O1  UNL     1      -4.042   6.710  11.977  1.00  0.00    -0.247 OA
HETATM   14  C3  UNL     1      -3.477   3.721  10.035  1.00  0.00     0.147 C 
HETATM   15  C16 UNL     1      -2.551   4.465  12.183  1.00  0.00     0.147 C 
HETATM   16  C2  UNL     1      -4.242   2.536  10.636  1.00  0.00     0.145 C 
HETATM   17  N3  UNL     1      -3.603   2.245  11.914  1.00  0.00    -0.353 N 
HETATM   18  C1  UNL     1      -4.129   1.145  12.634  1.00  0.00     0.184 C 
HETATM   19  C17 UNL     1      -2.506   2.977  12.472  1.00  0.00     0.145 C 
HETATM   20  N1  UNL     1      -4.225   0.011  12.048  1.00  0.00    -0.374 N 
HETATM   21  N2  UNL     1      -4.539   1.305  13.978  1.00  0.00    -0.064 NA
ATOM     22  H12 UNL     1      -4.603  -0.781  12.566  1.00  0.00     0.158 HD
ATOM     23  H11 UNL     1      -3.929  -0.105  11.078  1.00  0.00     0.158 HD
ATOM     24  H5  UNL     1      -5.169   5.531   9.198  1.00  0.00     0.165 HD
ENDBRANCH   1  10
BRANCH   3  25
HETATM   25  C8  UNL     1      -8.220   8.802   7.716  1.00  0.00     0.032 C 
BRANCH  25  26
HETATM   26  C9  UNL     1      -9.152  10.010   7.596  1.00  0.00     0.230 C 
BRANCH  26  27
HETATM   27  N6  UNL     1     -10.532   9.581   7.860  1.00  0.00    -0.079 N 
ATOM     28  H63 UNL     1     -11.173   9.861   7.118  1.00  0.00     0.274 HD
ATOM     29  H62 UNL     1     -10.647   8.570   7.774  1.00  0.00     0.274 HD
ATOM     30  H61 UNL     1     -10.820   9.928   8.775  1.00  0.00     0.274 HD
ENDBRANCH  26  27
ENDBRANCH  25  26
ENDBRANCH   3  25
TORSDOF 4
ENDMDL
