MODEL 1
REMARK VINA RESULT: -7.565051522      0.000      0.000
REMARK  4 active torsions:
REMARK  status: ('A' for Active; 'I' for Inactive)
REMARK    1  A    between atoms: C2_2  and  C3_3 
REMARK    2  A    between atoms: C3_3  and  C4_4 
REMARK    3  A    between atoms: C6_6  and  N1_7 
REMARK    4  A    between atoms: C8_14  and  C9_15 
ROOT
HETATM    1  C4  UNL     1      42.432  -0.287  91.872  1.00  0.00    -0.042 A 
HETATM    2  C5  UNL     1      43.103  -0.836  90.800  1.00  0.00     0.056 A 
HETATM    3  C6  UNL     1      43.908  -0.124  89.939  1.00  0.00     0.100 A 
HETATM    4  N2  UNL     1      44.012   1.191  90.205  1.00  0.00    -0.336 N 
ATOM      5  H2  UNL     1      44.593   1.778  89.607  1.00  0.00     0.168 HD
HETATM    6  C7  UNL     1      43.359   1.752  91.256  1.00  0.00     0.086 A 
HETATM    7  S1  UNL     1      43.291   3.377  91.845  1.00  0.00    -0.076 SA
HETATM    8  C8  UNL     1      42.245   3.133  93.172  1.00  0.00    -0.015 A 
HETATM    9  C11 UNL     1      41.982   1.799  93.115  1.00  0.00     0.029 A 
HETATM   10  C12 UNL     1      42.558   1.093  92.127  1.00  0.00     0.005 A 
ENDROOT
BRANCH   1  11
HETATM   11  C3  UNL     1      41.611  -1.183  92.706  1.00  0.00     0.039 C 
BRANCH  11  12
HETATM   12  C2  UNL     1      40.592  -1.915  91.853  1.00  0.00     0.000 C 
HETATM   13  C1  UNL     1      39.221  -1.274  91.991  1.00  0.00     0.005 C 
ENDBRANCH  11  12
ENDBRANCH   1  11
BRANCH   3  14
HETATM   14  N1  UNL     1      44.521  -0.685  88.941  1.00  0.00    -0.385 N 
ATOM     15  H12 UNL     1      45.406  -1.181  89.050  1.00  0.00     0.157 HD
ATOM     16  H11 UNL     1      44.150  -0.660  87.991  1.00  0.00     0.157 HD
ENDBRANCH   3  14
BRANCH   8  17
HETATM   17  C9  UNL     1      41.761   4.157  94.135  1.00  0.00     0.042 C 
HETATM   18  C10 UNL     1      42.850   5.103  94.586  1.00  0.00     0.010 C 
ENDBRANCH   8  17
TORSDOF 4
ENDMDL
MODEL 2
REMARK VINA RESULT: -7.286611409      3.107      5.694
REMARK  4 active torsions:
REMARK  status: ('A' for Active; 'I' for Inactive)
REMARK    1  A    between atoms: C2_2  and  C3_3 
REMARK    2  A    between atoms: C3_3  and  C4_4 
REMARK    3  A    between atoms: C6_6  and  N1_7 
REMARK    4  A    between atoms: C8_14  and  C9_15 
ROOT
HETATM    1  C4  UNL     1      41.176   1.866  92.743  1.00  0.00    -0.042 A 
HETATM    2  C5  UNL     1      40.196   2.777  92.411  1.00  0.00     0.056 A 
HETATM    3  C6  UNL     1      38.974   2.441  91.871  1.00  0.00     0.100 A 
HETATM    4  N2  UNL     1      38.775   1.125  91.673  1.00  0.00    -0.336 N 
ATOM      5  H2  UNL     1      37.891   0.807  91.276  1.00  0.00     0.168 HD
HETATM    6  C7  UNL     1      39.729   0.212  91.993  1.00  0.00     0.086 A 
HETATM    7  S1  UNL     1      39.774  -1.512  91.859  1.00  0.00    -0.076 SA
HETATM    8  C8  UNL     1      41.337  -1.785  92.489  1.00  0.00    -0.015 A 
HETATM    9  C11 UNL     1      41.774  -0.529  92.782  1.00  0.00     0.029 A 
HETATM   10  C12 UNL     1      40.942   0.495  92.525  1.00  0.00     0.005 A 
ENDROOT
BRANCH   1  11
HETATM   11  C3  UNL     1      42.431   2.382  93.319  1.00  0.00     0.039 C 
BRANCH  11  12
HETATM   12  C2  UNL     1      42.664   3.817  92.883  1.00  0.00     0.000 C 
HETATM   13  C1  UNL     1      42.765   4.732  94.092  1.00  0.00     0.005 C 
ENDBRANCH  11  12
ENDBRANCH   1  11
BRANCH   3  14
HETATM   14  N1  UNL     1      38.080   3.335  91.574  1.00  0.00    -0.385 N 
ATOM     15  H12 UNL     1      37.437   3.719  92.267  1.00  0.00     0.157 HD
ATOM     16  H11 UNL     1      37.971   3.702  90.629  1.00  0.00     0.157 HD
ENDBRANCH   3  14
BRANCH   8  17
HETATM   17  C9  UNL     1      42.022  -3.093  92.659  1.00  0.00     0.042 C 
HETATM   18  C10 UNL     1      43.090  -3.339  91.617  1.00  0.00     0.010 C 
ENDBRANCH   8  17
TORSDOF 4
ENDMDL
MODEL 3
REMARK VINA RESULT: -7.254232579      1.846      2.311
REMARK  4 active torsions:
REMARK  status: ('A' for Active; 'I' for Inactive)
REMARK    1  A    between atoms: C2_2  and  C3_3 
REMARK    2  A    between atoms: C3_3  and  C4_4 
REMARK    3  A    between atoms: C6_6  and  N1_7 
REMARK    4  A    between atoms: C8_14  and  C9_15 
ROOT
HETATM    1  C4  UNL     1      41.076  -1.501  92.218  1.00  0.00    -0.042 A 
HETATM    2  C5  UNL     1      41.907  -2.508  91.774  1.00  0.00     0.056 A 
HETATM    3  C6  UNL     1      43.270  -2.380  91.623  1.00  0.00     0.100 A 
HETATM    4  N2  UNL     1      43.774  -1.174  91.942  1.00  0.00    -0.336 N 
ATOM      5  H2  UNL     1      44.777  -1.011  91.853  1.00  0.00     0.168 HD
HETATM    6  C7  UNL     1      42.972  -0.168  92.380  1.00  0.00     0.086 A 
HETATM    7  S1  UNL     1      43.310   1.460  92.856  1.00  0.00    -0.076 SA
HETATM    8  C8  UNL     1      41.723   1.957  93.241  1.00  0.00    -0.015 A 
HETATM    9  C11 UNL     1      40.982   0.844  92.987  1.00  0.00     0.029 A 
HETATM   10  C12 UNL     1      41.630  -0.247  92.544  1.00  0.00     0.005 A 
ENDROOT
BRANCH   1  11
HETATM   11  C3  UNL     1      39.636  -1.794  92.333  1.00  0.00     0.039 C 
BRANCH  11  12
HETATM   12  C2  UNL     1      38.826  -0.785  91.541  1.00  0.00     0.000 C 
HETATM   13  C1  UNL     1      39.302  -0.732  90.099  1.00  0.00     0.005 C 
ENDBRANCH  11  12
ENDBRANCH   1  11
BRANCH   3  14
HETATM   14  N1  UNL     1      44.014  -3.358  91.201  1.00  0.00    -0.385 N 
ATOM     15  H12 UNL     1      44.000  -4.283  91.631  1.00  0.00     0.157 HD
ATOM     16  H11 UNL     1      44.655  -3.253  90.415  1.00  0.00     0.157 HD
ENDBRANCH   3  14
BRANCH   8  17
HETATM   17  C9  UNL     1      41.293   3.293  93.731  1.00  0.00     0.042 C 
HETATM   18  C10 UNL     1      39.947   3.263  94.420  1.00  0.00     0.010 C 
ENDBRANCH   8  17
TORSDOF 4
ENDMDL
MODEL 4
REMARK VINA RESULT: -7.221712020      1.937      2.623
REMARK  4 active torsions:
REMARK  status: ('A' for Active; 'I' for Inactive)
REMARK    1  A    between atoms: C2_2  and  C3_3 
REMARK    2  A    between atoms: C3_3  and  C4_4 
REMARK    3  A    between atoms: C6_6  and  N1_7 
REMARK    4  A    between atoms: C8_14  and  C9_15 
ROOT
HETATM    1  C4  UNL     1      41.900  -1.201  92.049  1.00  0.00    -0.042 A 
HETATM    2  C5  UNL     1      42.174  -2.541  91.876  1.00  0.00     0.056 A 
HETATM    3  C6  UNL     1      43.355  -3.034  91.368  1.00  0.00     0.100 A 
HETATM    4  N2  UNL     1      44.269  -2.105  91.033  1.00  0.00    -0.336 N 
ATOM      5  H2  UNL     1      45.167  -2.401  90.650  1.00  0.00     0.168 HD
HETATM    6  C7  UNL     1      44.019  -0.779  91.195  1.00  0.00     0.086 A 
HETATM    7  S1  UNL     1      44.968   0.628  90.865  1.00  0.00    -0.076 SA
HETATM    8  C8  UNL     1      43.857   1.821  91.375  1.00  0.00    -0.015 A 
HETATM    9  C11 UNL     1      42.786   1.089  91.784  1.00  0.00     0.029 A 
HETATM   10  C12 UNL     1      42.874  -0.249  91.690  1.00  0.00     0.005 A 
ENDROOT
BRANCH   1  11
HETATM   11  C3  UNL     1      40.589  -0.831  92.612  1.00  0.00     0.039 C 
BRANCH  11  12
HETATM   12  C2  UNL     1      39.469  -1.452  91.798  1.00  0.00     0.000 C 
HETATM   13  C1  UNL     1      39.166  -0.604  90.574  1.00  0.00     0.005 C 
ENDBRANCH  11  12
ENDBRANCH   1  11
BRANCH   3  14
HETATM   14  N1  UNL     1      43.568  -4.307  91.222  1.00  0.00    -0.385 N 
ATOM     15  H12 UNL     1      43.560  -4.763  90.310  1.00  0.00     0.157 HD
ATOM     16  H11 UNL     1      43.755  -4.921  92.014  1.00  0.00     0.157 HD
ENDBRANCH   3  14
BRANCH   8  17
HETATM   17  C9  UNL     1      44.051   3.295  91.358  1.00  0.00     0.042 C 
HETATM   18  C10 UNL     1      43.297   4.000  92.463  1.00  0.00     0.010 C 
ENDBRANCH   8  17
TORSDOF 4
ENDMDL
MODEL 5
REMARK VINA RESULT: -7.172798270      1.850      2.438
REMARK  4 active torsions:
REMARK  status: ('A' for Active; 'I' for Inactive)
REMARK    1  A    between atoms: C2_2  and  C3_3 
REMARK    2  A    between atoms: C3_3  and  C4_4 
REMARK    3  A    between atoms: C6_6  and  N1_7 
REMARK    4  A    between atoms: C8_14  and  C9_15 
ROOT
HETATM    1  C4  UNL     1      41.317  -1.569  92.113  1.00  0.00    -0.042 A 
HETATM    2  C5  UNL     1      41.866  -2.789  91.777  1.00  0.00     0.056 A 
HETATM    3  C6  UNL     1      43.205  -2.996  91.528  1.00  0.00     0.100 A 
HETATM    4  N2  UNL     1      43.985  -1.904  91.634  1.00  0.00    -0.336 N 
ATOM      5  H2  UNL     1      44.987  -1.986  91.464  1.00  0.00     0.168 HD
HETATM    6  C7  UNL     1      43.463  -0.694  91.964  1.00  0.00     0.086 A 
HETATM    7  S1  UNL     1      44.187   0.863  92.172  1.00  0.00    -0.076 SA
HETATM    8  C8  UNL     1      42.786   1.755  92.570  1.00  0.00    -0.015 A 
HETATM    9  C11 UNL     1      41.802   0.816  92.529  1.00  0.00     0.029 A 
HETATM   10  C12 UNL     1      42.155  -0.443  92.216  1.00  0.00     0.005 A 
ENDROOT
BRANCH   1  11
HETATM   11  C3  UNL     1      39.864  -1.510  92.354  1.00  0.00     0.039 C 
BRANCH  11  12
HETATM   12  C2  UNL     1      39.140  -1.030  91.110  1.00  0.00     0.000 C 
HETATM   13  C1  UNL     1      38.547   0.351  91.337  1.00  0.00     0.005 C 
ENDBRANCH  11  12
ENDBRANCH   1  11
BRANCH   3  14
HETATM   14  N1  UNL     1      43.678  -4.164  91.214  1.00  0.00    -0.385 N 
ATOM     15  H12 UNL     1      43.110  -4.882  90.764  1.00  0.00     0.157 HD
ATOM     16  H11 UNL     1      44.645  -4.427  91.401  1.00  0.00     0.157 HD
ENDBRANCH   3  14
BRANCH   8  17
HETATM   17  C9  UNL     1      42.702   3.206  92.880  1.00  0.00     0.042 C 
HETATM   18  C10 UNL     1      41.438   3.578  93.621  1.00  0.00     0.010 C 
ENDBRANCH   8  17
TORSDOF 4
ENDMDL
