MODEL 1
REMARK VINA RESULT: -7.689622165      0.000      0.000
REMARK  4 active torsions:
REMARK  status: ('A' for Active; 'I' for Inactive)
REMARK    1  A    between atoms: C3_3  and  C4_4 
REMARK    2  A    between atoms: C4_4  and  C5_5 
REMARK    3  A    between atoms: C6_6  and  C7_7 
REMARK    4  A    between atoms: C10_10  and  O1_11 
ROOT
HETATM    1  C1  UNL     1      40.294   1.182  91.796  1.00  0.00     0.049 C 
HETATM    2  C2  UNL     1      41.350   0.195  92.025  1.00  0.00    -0.041 A 
HETATM    3  C3  UNL     1      42.688   0.565  92.070  1.00  0.00     0.010 A 
HETATM    4  C10 UNL     1      43.606  -0.462  92.295  1.00  0.00     0.192 A 
HETATM    5  O2  UNL     1      43.247  -1.711  92.456  1.00  0.00    -0.270 OA
HETATM    6  C11 UNL     1      41.978  -2.095  92.418  1.00  0.00     0.150 A 
HETATM    7  N1  UNL     1      41.699  -3.344  92.586  1.00  0.00    -0.379 N 
ATOM      8  H11 UNL     1      40.724  -3.640  92.557  1.00  0.00     0.158 HD
ATOM      9  H12 UNL     1      42.405  -4.063  92.748  1.00  0.00     0.158 HD
HETATM   10  C12 UNL     1      41.030  -1.130  92.201  1.00  0.00    -0.004 A 
HETATM   11  C13 UNL     1      39.612  -1.544  92.153  1.00  0.00     0.053 C 
ENDROOT
BRANCH   3  12
HETATM   12  C4  UNL     1      43.122   1.965  91.892  1.00  0.00     0.071 C 
BRANCH  12  13
HETATM   13  C5  UNL     1      42.630   2.844  92.995  1.00  0.00    -0.026 C 
HETATM   14  C6  UNL     1      42.359   4.122  92.790  1.00  0.00    -0.026 C 
BRANCH  14  15
HETATM   15  C7  UNL     1      41.877   4.985  93.874  1.00  0.00    -0.001 C 
HETATM   16  C8  UNL     1      40.715   4.350  94.563  1.00  0.00     0.013 C 
HETATM   17  C9  UNL     1      42.964   5.247  94.898  1.00  0.00     0.013 C 
ENDBRANCH  14  15
ENDBRANCH  12  13
ENDBRANCH   3  12
BRANCH   4  18
HETATM   18  O1  UNL     1      44.953  -0.097  92.342  1.00  0.00    -0.340 OA
ATOM     19  H1  UNL     1      45.551  -0.728  92.725  1.00  0.00     0.220 HD
ENDBRANCH   4  18
TORSDOF 4
ENDMDL
MODEL 2
REMARK VINA RESULT: -7.631042427      2.973      4.400
REMARK  4 active torsions:
REMARK  status: ('A' for Active; 'I' for Inactive)
REMARK    1  A    between atoms: C3_3  and  C4_4 
REMARK    2  A    between atoms: C4_4  and  C5_5 
REMARK    3  A    between atoms: C6_6  and  C7_7 
REMARK    4  A    between atoms: C10_10  and  O1_11 
ROOT
HETATM    1  C1  UNL     1      41.155  -1.509  92.405  1.00  0.00     0.049 C 
HETATM    2  C2  UNL     1      40.773  -0.097  92.423  1.00  0.00    -0.041 A 
HETATM    3  C3  UNL     1      41.623   0.876  92.933  1.00  0.00     0.010 A 
HETATM    4  C10 UNL     1      41.151   2.189  92.898  1.00  0.00     0.192 A 
HETATM    5  O2  UNL     1      39.975   2.507  92.416  1.00  0.00    -0.270 OA
HETATM    6  C11 UNL     1      39.141   1.601  91.923  1.00  0.00     0.150 A 
HETATM    7  N1  UNL     1      37.999   1.989  91.464  1.00  0.00    -0.379 N 
ATOM      8  H11 UNL     1      37.358   1.292  91.085  1.00  0.00     0.158 HD
ATOM      9  H12 UNL     1      37.695   2.962  91.459  1.00  0.00     0.158 HD
HETATM   10  C12 UNL     1      39.551   0.293  91.930  1.00  0.00    -0.004 A 
HETATM   11  C13 UNL     1      38.631  -0.728  91.386  1.00  0.00     0.053 C 
ENDROOT
BRANCH   3  12
HETATM   12  C4  UNL     1      42.953   0.547  93.482  1.00  0.00     0.071 C 
BRANCH  12  13
HETATM   13  C5  UNL     1      43.960   0.320  92.402  1.00  0.00    -0.026 C 
HETATM   14  C6  UNL     1      44.079   1.154  91.383  1.00  0.00    -0.026 C 
BRANCH  14  15
HETATM   15  C7  UNL     1      45.069   0.930  90.323  1.00  0.00    -0.001 C 
HETATM   16  C8  UNL     1      44.387   0.771  89.005  1.00  0.00     0.013 C 
HETATM   17  C9  UNL     1      46.048   2.083  90.227  1.00  0.00     0.013 C 
ENDBRANCH  14  15
ENDBRANCH  12  13
ENDBRANCH   3  12
BRANCH   4  18
HETATM   18  O1  UNL     1      42.000   3.173  93.409  1.00  0.00    -0.340 OA
ATOM     19  H1  UNL     1      41.620   4.032  93.549  1.00  0.00     0.220 HD
ENDBRANCH   4  18
TORSDOF 4
ENDMDL
MODEL 3
REMARK VINA RESULT: -7.527914385      1.523      2.319
REMARK  4 active torsions:
REMARK  status: ('A' for Active; 'I' for Inactive)
REMARK    1  A    between atoms: C3_3  and  C4_4 
REMARK    2  A    between atoms: C4_4  and  C5_5 
REMARK    3  A    between atoms: C6_6  and  C7_7 
REMARK    4  A    between atoms: C10_10  and  O1_11 
ROOT
HETATM    1  C1  UNL     1      39.896  -1.780  92.363  1.00  0.00     0.049 C 
HETATM    2  C2  UNL     1      41.213  -1.229  92.042  1.00  0.00    -0.041 A 
HETATM    3  C3  UNL     1      41.376   0.109  91.707  1.00  0.00     0.010 A 
HETATM    4  C10 UNL     1      42.679   0.520  91.420  1.00  0.00     0.192 A 
HETATM    5  O2  UNL     1      43.703  -0.294  91.458  1.00  0.00    -0.270 OA
HETATM    6  C11 UNL     1      43.580  -1.577  91.774  1.00  0.00     0.150 A 
HETATM    7  N1  UNL     1      44.636  -2.319  91.792  1.00  0.00    -0.379 N 
ATOM      8  H11 UNL     1      44.542  -3.305  92.035  1.00  0.00     0.158 HD
ATOM      9  H12 UNL     1      45.571  -1.975  91.574  1.00  0.00     0.158 HD
HETATM   10  C12 UNL     1      42.324  -2.039  92.066  1.00  0.00    -0.004 A 
HETATM   11  C13 UNL     1      42.171  -3.467  92.417  1.00  0.00     0.053 C 
ENDROOT
BRANCH   3  12
HETATM   12  C4  UNL     1      40.239   1.049  91.656  1.00  0.00     0.071 C 
BRANCH  12  13
HETATM   13  C5  UNL     1      40.172   1.907  92.877  1.00  0.00    -0.026 C 
HETATM   14  C6  UNL     1      40.229   3.225  92.798  1.00  0.00    -0.026 C 
BRANCH  14  15
HETATM   15  C7  UNL     1      40.163   4.067  93.998  1.00  0.00    -0.001 C 
HETATM   16  C8  UNL     1      39.691   3.267  95.166  1.00  0.00     0.013 C 
HETATM   17  C9  UNL     1      41.517   4.662  94.332  1.00  0.00     0.013 C 
ENDBRANCH  14  15
ENDBRANCH  12  13
ENDBRANCH   3  12
BRANCH   4  18
HETATM   18  O1  UNL     1      42.850   1.864  91.083  1.00  0.00    -0.340 OA
ATOM     19  H1  UNL     1      42.096   2.309  90.713  1.00  0.00     0.220 HD
ENDBRANCH   4  18
TORSDOF 4
ENDMDL
MODEL 4
REMARK VINA RESULT: -7.478429271      1.671      3.082
REMARK  4 active torsions:
REMARK  status: ('A' for Active; 'I' for Inactive)
REMARK    1  A    between atoms: C3_3  and  C4_4 
REMARK    2  A    between atoms: C4_4  and  C5_5 
REMARK    3  A    between atoms: C6_6  and  C7_7 
REMARK    4  A    between atoms: C10_10  and  O1_11 
ROOT
HETATM    1  C1  UNL     1      39.722   1.933  92.044  1.00  0.00     0.049 C 
HETATM    2  C2  UNL     1      40.676   0.897  92.443  1.00  0.00    -0.041 A 
HETATM    3  C3  UNL     1      41.917   1.223  92.976  1.00  0.00     0.010 A 
HETATM    4  C10 UNL     1      42.742   0.151  93.320  1.00  0.00     0.192 A 
HETATM    5  O2  UNL     1      42.386  -1.098  93.158  1.00  0.00    -0.270 OA
HETATM    6  C11 UNL     1      41.209  -1.441  92.652  1.00  0.00     0.150 A 
HETATM    7  N1  UNL     1      40.926  -2.694  92.523  1.00  0.00    -0.379 N 
ATOM      8  H11 UNL     1      40.021  -2.958  92.134  1.00  0.00     0.158 HD
ATOM      9  H12 UNL     1      41.562  -3.446  92.788  1.00  0.00     0.158 HD
HETATM   10  C12 UNL     1      40.354  -0.431  92.295  1.00  0.00    -0.004 A 
HETATM   11  C13 UNL     1      39.039  -0.798  91.728  1.00  0.00     0.053 C 
ENDROOT
BRANCH   3  12
HETATM   12  C4  UNL     1      42.344   2.622  93.170  1.00  0.00     0.071 C 
BRANCH  12  13
HETATM   13  C5  UNL     1      43.194   3.107  92.041  1.00  0.00    -0.026 C 
HETATM   14  C6  UNL     1      43.947   2.277  91.338  1.00  0.00    -0.026 C 
BRANCH  14  15
HETATM   15  C7  UNL     1      44.781   2.754  90.230  1.00  0.00    -0.001 C 
HETATM   16  C8  UNL     1      46.223   2.504  90.523  1.00  0.00     0.013 C 
HETATM   17  C9  UNL     1      44.423   2.063  88.929  1.00  0.00     0.013 C 
ENDBRANCH  14  15
ENDBRANCH  12  13
ENDBRANCH   3  12
BRANCH   4  18
HETATM   18  O1  UNL     1      43.992   0.472  93.856  1.00  0.00    -0.340 OA
ATOM     19  H1  UNL     1      44.529  -0.256  94.146  1.00  0.00     0.220 HD
ENDBRANCH   4  18
TORSDOF 4
ENDMDL
MODEL 5
REMARK VINA RESULT: -7.466689279      2.798      5.871
REMARK  4 active torsions:
REMARK  status: ('A' for Active; 'I' for Inactive)
REMARK    1  A    between atoms: C3_3  and  C4_4 
REMARK    2  A    between atoms: C4_4  and  C5_5 
REMARK    3  A    between atoms: C6_6  and  C7_7 
REMARK    4  A    between atoms: C10_10  and  O1_11 
ROOT
HETATM    1  C1  UNL     1      38.432  -0.379  91.260  1.00  0.00     0.049 C 
HETATM    2  C2  UNL     1      39.546   0.251  91.969  1.00  0.00    -0.041 A 
HETATM    3  C3  UNL     1      40.626  -0.492  92.427  1.00  0.00     0.010 A 
HETATM    4  C10 UNL     1      41.628   0.218  93.090  1.00  0.00     0.192 A 
HETATM    5  O2  UNL     1      41.573   1.512  93.280  1.00  0.00    -0.270 OA
HETATM    6  C11 UNL     1      40.555   2.249  92.856  1.00  0.00     0.150 A 
HETATM    7  N1  UNL     1      40.570   3.520  93.078  1.00  0.00    -0.379 N 
ATOM      8  H11 UNL     1      39.788   4.087  92.752  1.00  0.00     0.158 HD
ATOM      9  H12 UNL     1      41.326   3.998  93.569  1.00  0.00     0.158 HD
HETATM   10  C12 UNL     1      39.539   1.607  92.196  1.00  0.00    -0.004 A 
HETATM   11  C13 UNL     1      38.397   2.415  91.720  1.00  0.00     0.053 C 
ENDROOT
BRANCH   3  12
HETATM   12  C4  UNL     1      40.715  -1.952  92.227  1.00  0.00     0.071 C 
BRANCH  12  13
HETATM   13  C5  UNL     1      41.923  -2.332  91.436  1.00  0.00    -0.026 C 
HETATM   14  C6  UNL     1      42.666  -3.374  91.770  1.00  0.00    -0.026 C 
BRANCH  14  15
HETATM   15  C7  UNL     1      43.854  -3.747  90.993  1.00  0.00    -0.001 C 
HETATM   16  C8  UNL     1      45.089  -3.534  91.802  1.00  0.00     0.013 C 
HETATM   17  C9  UNL     1      43.800  -5.200  90.562  1.00  0.00     0.013 C 
ENDBRANCH  14  15
ENDBRANCH  12  13
ENDBRANCH   3  12
BRANCH   4  18
HETATM   18  O1  UNL     1      42.717  -0.524  93.553  1.00  0.00    -0.340 OA
ATOM     19  H1  UNL     1      43.233  -0.132  94.248  1.00  0.00     0.220 HD
ENDBRANCH   4  18
TORSDOF 4
ENDMDL
