MODEL 1
REMARK VINA RESULT: -8.444064654      0.000      0.000
REMARK  10 active torsions:
REMARK  status: ('A' for Active; 'I' for Inactive)
REMARK    1  A    between atoms: N1_1  and  C1_4 
REMARK    2  A    between atoms: C2_7  and  N3_8 
REMARK    3  A    between atoms: N3_8  and  C3_10 
REMARK    4  A    between atoms: C3_10  and  C4_11 
REMARK    5  A    between atoms: C4_11  and  O1_12 
REMARK    6  A    between atoms: O1_12  and  C5_13 
REMARK    7  A    between atoms: C5_13  and  C6_14 
REMARK    8  A    between atoms: C9_17  and  O2_18 
REMARK    9  A    between atoms: N6_26  and  N7_27 
REMARK   10  A    between atoms: C11_30  and  N8_31 
ROOT
HETATM    1  C1  UNL     1      12.934  -8.130 -14.424  1.00  0.00     0.705 C 
HETATM    2  N2  UNL     1      13.311  -8.324 -13.148  1.00  0.00    -0.021 N 
ATOM      3  H2  UNL     1      13.669  -9.259 -12.951  1.00  0.00     0.203 HD
HETATM    4  C2  UNL     1      13.297  -7.498 -12.090  1.00  0.00     0.709 C 
HETATM    5  N5  UNL     1      13.247  -6.157 -12.135  1.00  0.00    -0.096 N 
ATOM      6  H5  UNL     1      13.268  -5.689 -11.229  1.00  0.00     0.208 HD
HETATM    7  N6  UNL     1      13.172  -5.348 -13.193  1.00  0.00    -0.012 N 
HETATM    8  C11 UNL     1      12.690  -5.697 -14.400  1.00  0.00     0.727 C 
HETATM    9  N9  UNL     1      12.594  -6.940 -14.959  1.00  0.00    -0.019 N 
ATOM     10  H9  UNL     1      12.214  -6.971 -15.906  1.00  0.00     0.203 HD
ENDROOT
BRANCH   4  11
HETATM   11  N3  UNL     1      13.338  -8.082 -10.960  1.00  0.00    -0.222 N 
ATOM     12  H3  UNL     1      13.893  -7.693 -10.198  1.00  0.00     0.177 HD
BRANCH  11  13
HETATM   13  C3  UNL     1      12.576  -9.325 -10.766  1.00  0.00     0.164 C 
BRANCH  13  14
HETATM   14  C4  UNL     1      11.126  -8.956 -10.854  1.00  0.00     0.188 C 
BRANCH  14  15
HETATM   15  O1  UNL     1      10.522  -9.292 -12.040  1.00  0.00    -0.384 OA
BRANCH  15  16
HETATM   16  C5  UNL     1       9.158  -9.468 -11.919  1.00  0.00     0.224 C 
BRANCH  16  17
HETATM   17  C6  UNL     1       8.470  -8.154 -11.965  1.00  0.00     0.036 A 
HETATM   18  C7  UNL     1       8.749  -7.254 -12.973  1.00  0.00     0.030 A 
HETATM   19  C8  UNL     1       8.119  -6.028 -13.031  1.00  0.00     0.044 A 
HETATM   20  C9  UNL     1       7.198  -5.693 -12.073  1.00  0.00     0.134 A 
HETATM   21  C10 UNL     1       6.924  -6.596 -11.068  1.00  0.00     0.279 A 
HETATM   22  O3  UNL     1       6.072  -6.275 -10.188  1.00  0.00    -0.265 OA
HETATM   23  N4  UNL     1       7.560  -7.782 -11.047  1.00  0.00    -0.323 N 
ATOM     24  H4  UNL     1       7.339  -8.433 -10.295  1.00  0.00     0.169 HD
BRANCH  20  25
HETATM   25  O2  UNL     1       6.525  -4.459 -12.080  1.00  0.00    -0.356 OA
ATOM     26  H2  UNL     1       5.605  -4.386 -12.304  1.00  0.00     0.218 HD
ENDBRANCH  20  25
ENDBRANCH  16  17
ENDBRANCH  15  16
ENDBRANCH  14  15
ENDBRANCH  13  14
ENDBRANCH  11  13
ENDBRANCH   4  11
BRANCH   1  27
HETATM   27  N1  UNL     1      12.896  -9.164 -15.191  1.00  0.00    -0.234 N 
ATOM     28  H12 UNL     1      12.004  -9.649 -15.291  1.00  0.00     0.174 HD
ATOM     29  H11 UNL     1      13.765  -9.434 -15.652  1.00  0.00     0.174 HD
ENDBRANCH   1  27
BRANCH   7  30
HETATM   30  N7  UNL     1      13.627  -4.033 -13.048  1.00  0.00    -0.309 N 
ATOM     31  H72 UNL     1      14.193  -3.653 -13.806  1.00  0.00     0.179 HD
ATOM     32  H71 UNL     1      13.371  -3.529 -12.199  1.00  0.00     0.179 HD
ENDBRANCH   7  30
BRANCH   8  33
HETATM   33  N8  UNL     1      12.267  -4.708 -15.109  1.00  0.00    -0.231 N 
ATOM     34  H82 UNL     1      12.944  -3.977 -15.327  1.00  0.00     0.174 HD
ATOM     35  H81 UNL     1      11.285  -4.773 -15.375  1.00  0.00     0.174 HD
ENDBRANCH   8  33
TORSDOF 10
ENDMDL
MODEL 2
REMARK VINA RESULT: -8.428491780      3.236      5.690
REMARK  10 active torsions:
REMARK  status: ('A' for Active; 'I' for Inactive)
REMARK    1  A    between atoms: N1_1  and  C1_4 
REMARK    2  A    between atoms: C2_7  and  N3_8 
REMARK    3  A    between atoms: N3_8  and  C3_10 
REMARK    4  A    between atoms: C3_10  and  C4_11 
REMARK    5  A    between atoms: C4_11  and  O1_12 
REMARK    6  A    between atoms: O1_12  and  C5_13 
REMARK    7  A    between atoms: C5_13  and  C6_14 
REMARK    8  A    between atoms: C9_17  and  O2_18 
REMARK    9  A    between atoms: N6_26  and  N7_27 
REMARK   10  A    between atoms: C11_30  and  N8_31 
ROOT
HETATM    1  C1  UNL     1       7.907  -6.190 -13.028  1.00  0.00     0.705 C 
HETATM    2  N2  UNL     1       8.090  -7.445 -12.582  1.00  0.00    -0.021 N 
ATOM      3  H2  UNL     1       7.875  -7.579 -11.594  1.00  0.00     0.203 HD
HETATM    4  C2  UNL     1       8.508  -8.553 -13.216  1.00  0.00     0.709 C 
HETATM    5  N5  UNL     1       8.492  -8.758 -14.542  1.00  0.00    -0.096 N 
ATOM      6  H5  UNL     1       8.828  -9.672 -14.846  1.00  0.00     0.208 HD
HETATM    7  N6  UNL     1       8.101  -7.939 -15.520  1.00  0.00    -0.012 N 
HETATM    8  C11 UNL     1       8.059  -6.597 -15.434  1.00  0.00     0.727 C 
HETATM    9  N9  UNL     1       7.959  -5.812 -14.321  1.00  0.00    -0.019 N 
ATOM     10  H9  UNL     1       7.919  -4.806 -14.491  1.00  0.00     0.203 HD
ENDROOT
BRANCH   4  11
HETATM   11  N3  UNL     1       8.952  -9.467 -12.449  1.00  0.00    -0.222 N 
ATOM     12  H3  UNL     1       8.443 -10.345 -12.345  1.00  0.00     0.177 HD
BRANCH  11  13
HETATM   13  C3  UNL     1      10.207  -9.243 -11.715  1.00  0.00     0.164 C 
BRANCH  13  14
HETATM   14  C4  UNL     1      11.299  -9.852 -12.541  1.00  0.00     0.188 C 
BRANCH  14  15
HETATM   15  O1  UNL     1      12.396  -9.047 -12.722  1.00  0.00    -0.384 OA
BRANCH  15  16
HETATM   16  C5  UNL     1      12.179  -8.040 -13.641  1.00  0.00     0.224 C 
BRANCH  16  17
HETATM   17  C6  UNL     1      12.760  -6.767 -13.145  1.00  0.00     0.036 A 
HETATM   18  C7  UNL     1      12.421  -5.567 -13.736  1.00  0.00     0.030 A 
HETATM   19  C8  UNL     1      12.952  -4.374 -13.287  1.00  0.00     0.044 A 
HETATM   20  C9  UNL     1      13.832  -4.376 -12.236  1.00  0.00     0.134 A 
HETATM   21  C10 UNL     1      14.166  -5.579 -11.651  1.00  0.00     0.279 A 
HETATM   22  O3  UNL     1      14.980  -5.568 -10.680  1.00  0.00    -0.265 OA
HETATM   23  N4  UNL     1      13.627  -6.720 -12.117  1.00  0.00    -0.323 N 
ATOM     24  H4  UNL     1      13.888  -7.596 -11.666  1.00  0.00     0.169 HD
BRANCH  20  25
HETATM   25  O2  UNL     1      14.404  -3.194 -11.737  1.00  0.00    -0.356 OA
ATOM     26  H2  UNL     1      14.803  -2.546 -12.305  1.00  0.00     0.218 HD
ENDBRANCH  20  25
ENDBRANCH  16  17
ENDBRANCH  15  16
ENDBRANCH  14  15
ENDBRANCH  13  14
ENDBRANCH  11  13
ENDBRANCH   4  11
BRANCH   1  27
HETATM   27  N1  UNL     1       7.661  -5.282 -12.147  1.00  0.00    -0.234 N 
ATOM     28  H12 UNL     1       6.759  -4.809 -12.193  1.00  0.00     0.174 HD
ATOM     29  H11 UNL     1       8.387  -5.095 -11.456  1.00  0.00     0.174 HD
ENDBRANCH   1  27
BRANCH   7  30
HETATM   30  N7  UNL     1       7.702  -8.510 -16.734  1.00  0.00    -0.309 N 
ATOM     31  H72 UNL     1       8.105  -9.415 -16.974  1.00  0.00     0.179 HD
ATOM     32  H71 UNL     1       7.036  -7.994 -17.309  1.00  0.00     0.179 HD
ENDBRANCH   7  30
BRANCH   8  33
HETATM   33  N8  UNL     1       8.123  -5.990 -16.568  1.00  0.00    -0.231 N 
ATOM     34  H82 UNL     1       7.837  -6.522 -17.391  1.00  0.00     0.174 HD
ATOM     35  H81 UNL     1       8.458  -5.029 -16.511  1.00  0.00     0.174 HD
ENDBRANCH   8  33
TORSDOF 10
ENDMDL
MODEL 3
REMARK VINA RESULT: -8.379137251      1.264      1.778
REMARK  10 active torsions:
REMARK  status: ('A' for Active; 'I' for Inactive)
REMARK    1  A    between atoms: N1_1  and  C1_4 
REMARK    2  A    between atoms: C2_7  and  N3_8 
REMARK    3  A    between atoms: N3_8  and  C3_10 
REMARK    4  A    between atoms: C3_10  and  C4_11 
REMARK    5  A    between atoms: C4_11  and  O1_12 
REMARK    6  A    between atoms: O1_12  and  C5_13 
REMARK    7  A    between atoms: C5_13  and  C6_14 
REMARK    8  A    between atoms: C9_17  and  O2_18 
REMARK    9  A    between atoms: N6_26  and  N7_27 
REMARK   10  A    between atoms: C11_30  and  N8_31 
ROOT
HETATM    1  C1  UNL     1      12.955  -8.088 -14.396  1.00  0.00     0.705 C 
HETATM    2  N2  UNL     1      13.466  -8.239 -13.162  1.00  0.00    -0.021 N 
ATOM      3  H2  UNL     1      13.878  -9.155 -12.984  1.00  0.00     0.203 HD
HETATM    4  C2  UNL     1      13.526  -7.390 -12.124  1.00  0.00     0.709 C 
HETATM    5  N5  UNL     1      13.418  -6.054 -12.188  1.00  0.00    -0.096 N 
ATOM      6  H5  UNL     1      13.512  -5.564 -11.298  1.00  0.00     0.208 HD
HETATM    7  N6  UNL     1      13.205  -5.272 -13.249  1.00  0.00    -0.012 N 
HETATM    8  C11 UNL     1      12.618  -5.667 -14.394  1.00  0.00     0.727 C 
HETATM    9  N9  UNL     1      12.516  -6.924 -14.916  1.00  0.00    -0.019 N 
ATOM     10  H9  UNL     1      12.044  -6.992 -15.819  1.00  0.00     0.203 HD
ENDROOT
BRANCH   4  11
HETATM   11  N3  UNL     1      13.703  -7.947 -10.993  1.00  0.00    -0.222 N 
ATOM     12  H3  UNL     1      14.633  -7.986 -10.577  1.00  0.00     0.177 HD
BRANCH  11  13
HETATM   13  C3  UNL     1      12.550  -8.534 -10.292  1.00  0.00     0.164 C 
BRANCH  13  14
HETATM   14  C4  UNL     1      12.315  -9.879 -10.910  1.00  0.00     0.188 C 
BRANCH  14  15
HETATM   15  O1  UNL     1      11.268  -9.925 -11.796  1.00  0.00    -0.384 OA
BRANCH  15  16
HETATM   16  C5  UNL     1      10.045  -9.692 -11.198  1.00  0.00     0.224 C 
BRANCH  16  17
HETATM   17  C6  UNL     1       9.384  -8.524 -11.833  1.00  0.00     0.036 A 
HETATM   18  C7  UNL     1       8.384  -7.843 -11.171  1.00  0.00     0.030 A 
HETATM   19  C8  UNL     1       7.759  -6.755 -11.746  1.00  0.00     0.044 A 
HETATM   20  C9  UNL     1       8.136  -6.340 -12.998  1.00  0.00     0.134 A 
HETATM   21  C10 UNL     1       9.136  -7.026 -13.653  1.00  0.00     0.279 A 
HETATM   22  O3  UNL     1       9.474  -6.633 -14.808  1.00  0.00    -0.265 OA
HETATM   23  N4  UNL     1       9.720  -8.081 -13.058  1.00  0.00    -0.323 N 
ATOM     24  H4  UNL     1      10.458  -8.571 -13.562  1.00  0.00     0.169 HD
BRANCH  20  25
HETATM   25  O2  UNL     1       7.535  -5.240 -13.633  1.00  0.00    -0.356 OA
ATOM     26  H2  UNL     1       6.637  -5.262 -13.941  1.00  0.00     0.218 HD
ENDBRANCH  20  25
ENDBRANCH  16  17
ENDBRANCH  15  16
ENDBRANCH  14  15
ENDBRANCH  13  14
ENDBRANCH  11  13
ENDBRANCH   4  11
BRANCH   1  27
HETATM   27  N1  UNL     1      12.881  -9.141 -15.136  1.00  0.00    -0.234 N 
ATOM     28  H12 UNL     1      13.341  -9.114 -16.046  1.00  0.00     0.174 HD
ATOM     29  H11 UNL     1      12.367  -9.938 -14.763  1.00  0.00     0.174 HD
ENDBRANCH   1  27
BRANCH   7  30
HETATM   30  N7  UNL     1      13.620  -3.938 -13.175  1.00  0.00    -0.309 N 
ATOM     31  H72 UNL     1      13.702  -3.430 -14.056  1.00  0.00     0.179 HD
ATOM     32  H71 UNL     1      13.816  -3.548 -12.253  1.00  0.00     0.179 HD
ENDBRANCH   7  30
BRANCH   8  33
HETATM   33  N8  UNL     1      12.087  -4.711 -15.074  1.00  0.00    -0.231 N 
ATOM     34  H82 UNL     1      12.647  -4.321 -15.834  1.00  0.00     0.174 HD
ATOM     35  H81 UNL     1      11.150  -4.450 -14.770  1.00  0.00     0.174 HD
ENDBRANCH   8  33
TORSDOF 10
ENDMDL
MODEL 4
REMARK VINA RESULT: -8.367613659      2.610      3.131
REMARK  10 active torsions:
REMARK  status: ('A' for Active; 'I' for Inactive)
REMARK    1  A    between atoms: N1_1  and  C1_4 
REMARK    2  A    between atoms: C2_7  and  N3_8 
REMARK    3  A    between atoms: N3_8  and  C3_10 
REMARK    4  A    between atoms: C3_10  and  C4_11 
REMARK    5  A    between atoms: C4_11  and  O1_12 
REMARK    6  A    between atoms: O1_12  and  C5_13 
REMARK    7  A    between atoms: C5_13  and  C6_14 
REMARK    8  A    between atoms: C9_17  and  O2_18 
REMARK    9  A    between atoms: N6_26  and  N7_27 
REMARK   10  A    between atoms: C11_30  and  N8_31 
ROOT
HETATM    1  C1  UNL     1      12.785  -8.229 -14.425  1.00  0.00     0.705 C 
HETATM    2  N2  UNL     1      12.699  -8.533 -13.118  1.00  0.00    -0.021 N 
ATOM      3  H2  UNL     1      12.940  -9.499 -12.892  1.00  0.00     0.203 HD
HETATM    4  C2  UNL     1      12.351  -7.784 -12.060  1.00  0.00     0.709 C 
HETATM    5  N5  UNL     1      12.360  -6.442 -12.004  1.00  0.00    -0.096 N 
ATOM      6  H5  UNL     1      12.086  -6.041 -11.108  1.00  0.00     0.208 HD
HETATM    7  N6  UNL     1      12.675  -5.558 -12.953  1.00  0.00    -0.012 N 
HETATM    8  C11 UNL     1      12.623  -5.794 -14.277  1.00  0.00     0.727 C 
HETATM    9  N9  UNL     1      12.684  -6.987 -14.939  1.00  0.00    -0.019 N 
ATOM     10  H9  UNL     1      12.649  -6.930 -15.958  1.00  0.00     0.203 HD
ENDROOT
BRANCH   4  11
HETATM   11  N3  UNL     1      11.987  -8.447 -11.037  1.00  0.00    -0.222 N 
ATOM     12  H3  UNL     1      12.419  -8.274 -10.129  1.00  0.00     0.177 HD
BRANCH  11  13
HETATM   13  C3  UNL     1      10.935  -9.466 -11.178  1.00  0.00     0.164 C 
BRANCH  13  14
HETATM   14  C4  UNL     1       9.631  -8.729 -11.227  1.00  0.00     0.188 C 
BRANCH  14  15
HETATM   15  O1  UNL     1       9.011  -8.746 -12.452  1.00  0.00    -0.384 OA
BRANCH  15  16
HETATM   16  C5  UNL     1       8.658  -7.486 -12.894  1.00  0.00     0.224 C 
BRANCH  16  17
HETATM   17  C6  UNL     1       8.148  -7.562 -14.286  1.00  0.00     0.036 A 
HETATM   18  C7  UNL     1       7.712  -6.424 -14.933  1.00  0.00     0.030 A 
HETATM   19  C8  UNL     1       7.234  -6.477 -16.227  1.00  0.00     0.044 A 
HETATM   20  C9  UNL     1       7.191  -7.678 -16.886  1.00  0.00     0.134 A 
HETATM   21  C10 UNL     1       7.628  -8.811 -16.233  1.00  0.00     0.279 A 
HETATM   22  O3  UNL     1       7.583  -9.915 -16.852  1.00  0.00    -0.265 OA
HETATM   23  N4  UNL     1       8.087  -8.718 -14.972  1.00  0.00    -0.323 N 
ATOM     24  H4  UNL     1       8.406  -9.569 -14.511  1.00  0.00     0.169 HD
BRANCH  20  25
HETATM   25  O2  UNL     1       6.715  -7.793 -18.203  1.00  0.00    -0.356 OA
ATOM     26  H2  UNL     1       6.930  -7.157 -18.876  1.00  0.00     0.218 HD
ENDBRANCH  20  25
ENDBRANCH  16  17
ENDBRANCH  15  16
ENDBRANCH  14  15
ENDBRANCH  13  14
ENDBRANCH  11  13
ENDBRANCH   4  11
BRANCH   1  27
HETATM   27  N1  UNL     1      12.980  -9.204 -15.245  1.00  0.00    -0.234 N 
ATOM     28  H12 UNL     1      12.209  -9.470 -15.857  1.00  0.00     0.174 HD
ATOM     29  H11 UNL     1      13.897  -9.648 -15.231  1.00  0.00     0.174 HD
ENDBRANCH   1  27
BRANCH   7  30
HETATM   30  N7  UNL     1      13.093  -4.285 -12.552  1.00  0.00    -0.309 N 
ATOM     31  H72 UNL     1      14.007  -4.218 -12.103  1.00  0.00     0.179 HD
ATOM     32  H71 UNL     1      12.468  -3.499 -12.727  1.00  0.00     0.179 HD
ENDBRANCH   7  30
BRANCH   8  33
HETATM   33  N8  UNL     1      12.496  -4.735 -15.000  1.00  0.00    -0.231 N 
ATOM     34  H82 UNL     1      12.547  -4.861 -16.011  1.00  0.00     0.174 HD
ATOM     35  H81 UNL     1      12.357  -3.877 -14.466  1.00  0.00     0.174 HD
ENDBRANCH   8  33
TORSDOF 10
ENDMDL
MODEL 5
REMARK VINA RESULT: -8.358310136      2.723      3.463
REMARK  10 active torsions:
REMARK  status: ('A' for Active; 'I' for Inactive)
REMARK    1  A    between atoms: N1_1  and  C1_4 
REMARK    2  A    between atoms: C2_7  and  N3_8 
REMARK    3  A    between atoms: N3_8  and  C3_10 
REMARK    4  A    between atoms: C3_10  and  C4_11 
REMARK    5  A    between atoms: C4_11  and  O1_12 
REMARK    6  A    between atoms: O1_12  and  C5_13 
REMARK    7  A    between atoms: C5_13  and  C6_14 
REMARK    8  A    between atoms: C9_17  and  O2_18 
REMARK    9  A    between atoms: N6_26  and  N7_27 
REMARK   10  A    between atoms: C11_30  and  N8_31 
ROOT
HETATM    1  C1  UNL     1      11.859  -5.777 -14.306  1.00  0.00     0.705 C 
HETATM    2  N2  UNL     1      11.898  -6.981 -13.709  1.00  0.00    -0.021 N 
ATOM      3  H2  UNL     1      11.500  -7.740 -14.262  1.00  0.00     0.203 HD
HETATM    4  C2  UNL     1      12.371  -7.354 -12.509  1.00  0.00     0.709 C 
HETATM    5  N5  UNL     1      13.257  -6.677 -11.763  1.00  0.00    -0.096 N 
ATOM      6  H5  UNL     1      13.522  -7.124 -10.885  1.00  0.00     0.208 HD
HETATM    7  N6  UNL     1      13.843  -5.502 -12.003  1.00  0.00    -0.012 N 
HETATM    8  C11 UNL     1      13.350  -4.544 -12.810  1.00  0.00     0.727 C 
HETATM    9  N9  UNL     1      12.472  -4.666 -13.850  1.00  0.00    -0.019 N 
ATOM     10  H9  UNL     1      12.251  -3.802 -14.346  1.00  0.00     0.203 HD
ENDROOT
BRANCH   4  11
HETATM   11  N3  UNL     1      11.910  -8.460 -12.078  1.00  0.00    -0.222 N 
ATOM     12  H3  UNL     1      12.084  -9.325 -12.588  1.00  0.00     0.177 HD
BRANCH  11  13
HETATM   13  C3  UNL     1      11.122  -8.474 -10.835  1.00  0.00     0.164 C 
BRANCH  13  14
HETATM   14  C4  UNL     1       9.696  -8.701 -11.236  1.00  0.00     0.188 C 
BRANCH  14  15
HETATM   15  O1  UNL     1       9.436  -8.485 -12.567  1.00  0.00    -0.384 OA
BRANCH  15  16
HETATM   16  C5  UNL     1       8.425  -7.569 -12.777  1.00  0.00     0.224 C 
BRANCH  16  17
HETATM   17  C6  UNL     1       7.989  -7.610 -14.195  1.00  0.00     0.036 A 
HETATM   18  C7  UNL     1       7.613  -6.452 -14.844  1.00  0.00     0.030 A 
HETATM   19  C8  UNL     1       7.206  -6.472 -16.163  1.00  0.00     0.044 A 
HETATM   20  C9  UNL     1       7.172  -7.662 -16.844  1.00  0.00     0.134 A 
HETATM   21  C10 UNL     1       7.548  -8.815 -16.189  1.00  0.00     0.279 A 
HETATM   22  O3  UNL     1       7.512  -9.907 -16.829  1.00  0.00    -0.265 OA
HETATM   23  N4  UNL     1       7.940  -8.753 -14.903  1.00  0.00    -0.323 N 
ATOM     24  H4  UNL     1       8.215  -9.619 -14.441  1.00  0.00     0.169 HD
BRANCH  20  25
HETATM   25  O2  UNL     1       6.765  -7.744 -18.187  1.00  0.00    -0.356 OA
ATOM     26  H2  UNL     1       7.250  -7.326 -18.889  1.00  0.00     0.218 HD
ENDBRANCH  20  25
ENDBRANCH  16  17
ENDBRANCH  15  16
ENDBRANCH  14  15
ENDBRANCH  13  14
ENDBRANCH  11  13
ENDBRANCH   4  11
BRANCH   1  27
HETATM   27  N1  UNL     1      11.183  -5.683 -15.399  1.00  0.00    -0.234 N 
ATOM     28  H12 UNL     1      10.484  -6.401 -15.588  1.00  0.00     0.174 HD
ATOM     29  H11 UNL     1      11.390  -4.892 -16.008  1.00  0.00     0.174 HD
ENDBRANCH   1  27
BRANCH   7  30
HETATM   30  N7  UNL     1      15.062  -5.234 -11.372  1.00  0.00    -0.309 N 
ATOM     31  H72 UNL     1      15.911  -5.443 -11.898  1.00  0.00     0.179 HD
ATOM     32  H71 UNL     1      15.038  -4.848 -10.428  1.00  0.00     0.179 HD
ENDBRANCH   7  30
BRANCH   8  33
HETATM   33  N8  UNL     1      13.778  -3.358 -12.549  1.00  0.00    -0.231 N 
ATOM     34  H82 UNL     1      14.773  -3.186 -12.697  1.00  0.00     0.174 HD
ATOM     35  H81 UNL     1      13.059  -2.715 -12.218  1.00  0.00     0.174 HD
ENDBRANCH   8  33
TORSDOF 10
ENDMDL
