MODEL 1
REMARK VINA RESULT: -9.468294987      0.000      0.000
REMARK  8 active torsions:
REMARK  status: ('A' for Active; 'I' for Inactive)
REMARK    1  A    between atoms: N1_1  and  C1_4 
REMARK    2  A    between atoms: C3_11  and  N5_12 
REMARK    3  A    between atoms: N5_12  and  C4_14 
REMARK    4  A    between atoms: C4_14  and  C5_15 
REMARK    5  A    between atoms: C4_14  and  C9_25 
REMARK    6  A    between atoms: C5_15  and  C6_16 
REMARK    7  A    between atoms: C6_16  and  C7_17 
REMARK       I    between atoms: C9_25  and  N9_27 
REMARK    8  A    between atoms: N9_27  and  N10_29 
ROOT
HETATM    1  C4  UNL     1       9.534  -7.250 -14.049  1.00  0.00     0.177 C 
ENDROOT
BRANCH   1   2
HETATM    2  N5  UNL     1      10.700  -6.717 -14.617  1.00  0.00    -0.358 N 
ATOM      3  H5  UNL     1      10.650  -6.644 -15.633  1.00  0.00     0.162 HD
BRANCH   2   4
HETATM    4  C3  UNL     1      11.799  -6.309 -14.148  1.00  0.00     0.174 C 
HETATM    5  N4  UNL     1      12.376  -7.073 -13.152  1.00  0.00    -0.312 N 
HETATM    6  C2  UNL     1      13.119  -6.653 -12.096  1.00  0.00     0.208 C 
ATOM      7  H4  UNL     1      12.225  -8.080 -13.218  1.00  0.00     0.170 HD
HETATM    8  N2  UNL     1      13.728  -5.466 -12.002  1.00  0.00    -0.163 N 
HETATM    9  N3  UNL     1      13.264  -7.546 -10.998  1.00  0.00    -0.063 NA
HETATM   10  C1  UNL     1      13.600  -4.342 -12.737  1.00  0.00     0.681 C 
ATOM     11  H2  UNL     1      14.406  -5.399 -11.243  1.00  0.00     0.187 HD
HETATM   12  N11 UNL     1      12.983  -4.185 -13.943  1.00  0.00    -0.153 N 
HETATM   13  C10 UNL     1      12.337  -5.146 -14.662  1.00  0.00     0.303 C 
ATOM     14  H11 UNL     1      13.009  -3.250 -14.350  1.00  0.00     0.187 HD
HETATM   15  O2  UNL     1      12.221  -4.959 -15.893  1.00  0.00    -0.263 OA
BRANCH  10  16
HETATM   16  N1  UNL     1      14.107  -3.265 -12.276  1.00  0.00    -0.234 N 
ATOM     17  H12 UNL     1      14.481  -3.360 -11.331  1.00  0.00     0.174 HD
ATOM     18  H11 UNL     1      14.094  -2.438 -12.872  1.00  0.00     0.174 HD
ENDBRANCH  10  16
ENDBRANCH   2   4
ENDBRANCH   1   2
BRANCH   1  19
HETATM   19  C5  UNL     1       8.364  -7.277 -15.055  1.00  0.00     0.042 C 
BRANCH  19  20
HETATM   20  C6  UNL     1       7.818  -8.681 -15.204  1.00  0.00     0.080 C 
BRANCH  20  21
HETATM   21  C7  UNL     1       7.585  -8.906 -16.644  1.00  0.00     0.096 A 
HETATM   22  N6  UNL     1       6.942  -8.051 -17.451  1.00  0.00    -0.288 N 
HETATM   23  N7  UNL     1       6.882  -8.515 -18.690  1.00  0.00    -0.295 N 
ATOM     24  H6  UNL     1       6.549  -7.158 -17.150  1.00  0.00     0.188 HD
HETATM   25  C8  UNL     1       7.512  -9.702 -18.649  1.00  0.00     0.198 A 
ATOM     26  H7  UNL     1       6.451  -8.068 -19.499  1.00  0.00     0.187 HD
HETATM   27  N8  UNL     1       7.944  -9.944 -17.396  1.00  0.00    -0.340 N 
ATOM     28  H8  UNL     1       8.452 -10.771 -17.082  1.00  0.00     0.168 HD
ENDBRANCH  20  21
ENDBRANCH  19  20
ENDBRANCH   1  19
BRANCH   1  29
HETATM   29  C9  UNL     1       9.008  -6.476 -12.900  1.00  0.00     0.258 C 
HETATM   30  O1  UNL     1       9.551  -6.560 -11.781  1.00  0.00    -0.269 OA
HETATM   31  N9  UNL     1       7.891  -5.641 -13.075  1.00  0.00    -0.275 N 
ATOM     32  H9  UNL     1       7.442  -5.568 -13.989  1.00  0.00     0.189 HD
BRANCH  31  33
HETATM   33  N10 UNL     1       7.397  -4.911 -11.989  1.00  0.00    -0.343 N 
ATOM     34 2H10 UNL     1       7.964  -4.160 -11.595  1.00  0.00     0.176 HD
ATOM     35 1H10 UNL     1       6.479  -5.137 -11.606  1.00  0.00     0.176 HD
ENDBRANCH  31  33
ENDBRANCH   1  29
TORSDOF 8
ENDMDL
MODEL 2
REMARK VINA RESULT: -9.417290073      1.868      2.565
REMARK  8 active torsions:
REMARK  status: ('A' for Active; 'I' for Inactive)
REMARK    1  A    between atoms: N1_1  and  C1_4 
REMARK    2  A    between atoms: C3_11  and  N5_12 
REMARK    3  A    between atoms: N5_12  and  C4_14 
REMARK    4  A    between atoms: C4_14  and  C5_15 
REMARK    5  A    between atoms: C4_14  and  C9_25 
REMARK    6  A    between atoms: C5_15  and  C6_16 
REMARK    7  A    between atoms: C6_16  and  C7_17 
REMARK       I    between atoms: C9_25  and  N9_27 
REMARK    8  A    between atoms: N9_27  and  N10_29 
ROOT
HETATM    1  C4  UNL     1       8.695  -7.193 -14.160  1.00  0.00     0.177 C 
ENDROOT
BRANCH   1   2
HETATM    2  N5  UNL     1      10.037  -6.799 -14.243  1.00  0.00    -0.358 N 
ATOM      3  H5  UNL     1      10.172  -5.964 -14.813  1.00  0.00     0.162 HD
BRANCH   2   4
HETATM    4  C3  UNL     1      11.117  -7.248 -13.767  1.00  0.00     0.174 C 
HETATM    5  N4  UNL     1      11.579  -8.443 -14.287  1.00  0.00    -0.312 N 
HETATM    6  C2  UNL     1      12.261  -9.428 -13.648  1.00  0.00     0.208 C 
ATOM      7  H4  UNL     1      11.384  -8.605 -15.274  1.00  0.00     0.170 HD
HETATM    8  N2  UNL     1      12.920  -9.289 -12.492  1.00  0.00    -0.163 N 
HETATM    9  N3  UNL     1      12.279 -10.715 -14.255  1.00  0.00    -0.063 NA
HETATM   10  C1  UNL     1      12.903  -8.300 -11.574  1.00  0.00     0.681 C 
ATOM     11  H2  UNL     1      13.542 -10.065 -12.265  1.00  0.00     0.187 HD
HETATM   12  N11 UNL     1      12.387  -7.044 -11.693  1.00  0.00    -0.153 N 
HETATM   13  C10 UNL     1      11.749  -6.520 -12.779  1.00  0.00     0.303 C 
ATOM     14  H11 UNL     1      12.490  -6.430 -10.885  1.00  0.00     0.187 HD
HETATM   15  O2  UNL     1      11.735  -5.275 -12.890  1.00  0.00    -0.263 OA
BRANCH  10  16
HETATM   16  N1  UNL     1      13.428  -8.533 -10.435  1.00  0.00    -0.234 N 
ATOM     17  H12 UNL     1      13.139  -9.422 -10.024  1.00  0.00     0.174 HD
ATOM     18  H11 UNL     1      14.066  -7.837 -10.051  1.00  0.00     0.174 HD
ENDBRANCH  10  16
ENDBRANCH   2   4
ENDBRANCH   1   2
BRANCH   1  19
HETATM   19  C5  UNL     1       8.076  -7.429 -15.553  1.00  0.00     0.042 C 
BRANCH  19  20
HETATM   20  C6  UNL     1       7.674  -8.879 -15.722  1.00  0.00     0.080 C 
BRANCH  20  21
HETATM   21  C7  UNL     1       7.503  -9.117 -17.169  1.00  0.00     0.096 A 
HETATM   22  N6  UNL     1       6.894  -8.270 -18.010  1.00  0.00    -0.288 N 
HETATM   23  N7  UNL     1       6.887  -8.745 -19.246  1.00  0.00    -0.295 N 
ATOM     24  H6  UNL     1       6.488  -7.375 -17.734  1.00  0.00     0.188 HD
HETATM   25  C8  UNL     1       7.515  -9.931 -19.168  1.00  0.00     0.198 A 
ATOM     26  H7  UNL     1       6.490  -8.306 -20.077  1.00  0.00     0.187 HD
HETATM   27  N8  UNL     1       7.894 -10.161 -17.895  1.00  0.00    -0.340 N 
ATOM     28  H8  UNL     1       8.390 -10.984 -17.552  1.00  0.00     0.168 HD
ENDBRANCH  20  21
ENDBRANCH  19  20
ENDBRANCH   1  19
BRANCH   1  29
HETATM   29  C9  UNL     1       7.803  -6.189 -13.532  1.00  0.00     0.258 C 
HETATM   30  O1  UNL     1       6.793  -5.776 -14.137  1.00  0.00    -0.269 OA
HETATM   31  N9  UNL     1       8.098  -5.700 -12.248  1.00  0.00    -0.275 N 
ATOM     32  H9  UNL     1       8.923  -6.034 -11.748  1.00  0.00     0.189 HD
BRANCH  31  33
HETATM   33  N10 UNL     1       7.255  -4.753 -11.659  1.00  0.00    -0.343 N 
ATOM     34 2H10 UNL     1       6.311  -4.629 -12.027  1.00  0.00     0.176 HD
ATOM     35 1H10 UNL     1       7.592  -4.199 -10.871  1.00  0.00     0.176 HD
ENDBRANCH  31  33
ENDBRANCH   1  29
TORSDOF 8
ENDMDL
MODEL 3
REMARK VINA RESULT: -9.249317202      3.107      6.552
REMARK  8 active torsions:
REMARK  status: ('A' for Active; 'I' for Inactive)
REMARK    1  A    between atoms: N1_1  and  C1_4 
REMARK    2  A    between atoms: C3_11  and  N5_12 
REMARK    3  A    between atoms: N5_12  and  C4_14 
REMARK    4  A    between atoms: C4_14  and  C5_15 
REMARK    5  A    between atoms: C4_14  and  C9_25 
REMARK    6  A    between atoms: C5_15  and  C6_16 
REMARK    7  A    between atoms: C6_16  and  C7_17 
REMARK       I    between atoms: C9_25  and  N9_27 
REMARK    8  A    between atoms: N9_27  and  N10_29 
ROOT
HETATM    1  C4  UNL     1       9.359  -8.585 -13.472  1.00  0.00     0.177 C 
ENDROOT
BRANCH   1   2
HETATM    2  N5  UNL     1       8.986  -7.670 -14.467  1.00  0.00    -0.358 N 
ATOM      3  H5  UNL     1       9.515  -6.799 -14.424  1.00  0.00     0.162 HD
BRANCH   2   4
HETATM    4  C3  UNL     1       8.140  -7.686 -15.404  1.00  0.00     0.174 C 
HETATM    5  N4  UNL     1       7.806  -8.923 -15.923  1.00  0.00    -0.312 N 
HETATM    6  C2  UNL     1       7.476  -9.234 -17.202  1.00  0.00     0.208 C 
ATOM      7  H4  UNL     1       7.807  -9.699 -15.261  1.00  0.00     0.170 HD
HETATM    8  N2  UNL     1       7.073  -8.361 -18.132  1.00  0.00    -0.163 N 
HETATM    9  N3  UNL     1       7.565 -10.600 -17.590  1.00  0.00    -0.063 NA
HETATM   10  C1  UNL     1       7.106  -7.012 -18.157  1.00  0.00     0.681 C 
ATOM     11  H2  UNL     1       6.671  -8.789 -18.966  1.00  0.00     0.187 HD
HETATM   12  N11 UNL     1       7.340  -6.152 -17.125  1.00  0.00    -0.153 N 
HETATM   13  C10 UNL     1       7.616  -6.482 -15.831  1.00  0.00     0.303 C 
ATOM     14  H11 UNL     1       7.305  -5.157 -17.344  1.00  0.00     0.187 HD
HETATM   15  O2  UNL     1       7.374  -5.623 -14.957  1.00  0.00    -0.263 OA
BRANCH  10  16
HETATM   16  N1  UNL     1       6.896  -6.430 -19.273  1.00  0.00    -0.234 N 
ATOM     17  H12 UNL     1       7.052  -7.029 -20.084  1.00  0.00     0.174 HD
ATOM     18  H11 UNL     1       6.602  -5.454 -19.254  1.00  0.00     0.174 HD
ENDBRANCH  10  16
ENDBRANCH   2   4
ENDBRANCH   1   2
BRANCH   1  19
HETATM   19  C5  UNL     1       9.367  -7.942 -12.070  1.00  0.00     0.042 C 
BRANCH  19  20
HETATM   20  C6  UNL     1       8.021  -8.108 -11.398  1.00  0.00     0.080 C 
BRANCH  20  21
HETATM   21  C7  UNL     1       7.400  -6.770 -11.333  1.00  0.00     0.096 A 
HETATM   22  N6  UNL     1       7.802  -5.711 -12.048  1.00  0.00    -0.288 N 
HETATM   23  N7  UNL     1       7.061  -4.646 -11.785  1.00  0.00    -0.295 N 
ATOM     24  H6  UNL     1       8.579  -5.723 -12.710  1.00  0.00     0.188 HD
HETATM   25  C8  UNL     1       6.166  -5.060 -10.871  1.00  0.00     0.198 A 
ATOM     26  H7  UNL     1       7.151  -3.713 -12.187  1.00  0.00     0.187 HD
HETATM   27  N8  UNL     1       6.371  -6.362 -10.592  1.00  0.00    -0.340 N 
ATOM     28  H8  UNL     1       5.836  -6.930  -9.935  1.00  0.00     0.168 HD
ENDBRANCH  20  21
ENDBRANCH  19  20
ENDBRANCH   1  19
BRANCH   1  29
HETATM   29  C9  UNL     1      10.728  -9.130 -13.629  1.00  0.00     0.258 C 
HETATM   30  O1  UNL     1      11.022 -10.245 -13.154  1.00  0.00    -0.269 OA
HETATM   31  N9  UNL     1      11.700  -8.384 -14.319  1.00  0.00    -0.275 N 
ATOM     32  H9  UNL     1      11.466  -7.472 -14.710  1.00  0.00     0.189 HD
BRANCH  31  33
HETATM   33  N10 UNL     1      12.991  -8.902 -14.465  1.00  0.00    -0.343 N 
ATOM     34 2H10 UNL     1      13.110  -9.863 -14.785  1.00  0.00     0.176 HD
ATOM     35 1H10 UNL     1      13.797  -8.313 -14.252  1.00  0.00     0.176 HD
ENDBRANCH  31  33
ENDBRANCH   1  29
TORSDOF 8
ENDMDL
MODEL 4
REMARK VINA RESULT: -9.123679631      2.004      2.775
REMARK  8 active torsions:
REMARK  status: ('A' for Active; 'I' for Inactive)
REMARK    1  A    between atoms: N1_1  and  C1_4 
REMARK    2  A    between atoms: C3_11  and  N5_12 
REMARK    3  A    between atoms: N5_12  and  C4_14 
REMARK    4  A    between atoms: C4_14  and  C5_15 
REMARK    5  A    between atoms: C4_14  and  C9_25 
REMARK    6  A    between atoms: C5_15  and  C6_16 
REMARK    7  A    between atoms: C6_16  and  C7_17 
REMARK       I    between atoms: C9_25  and  N9_27 
REMARK    8  A    between atoms: N9_27  and  N10_29 
ROOT
HETATM    1  C4  UNL     1       8.913  -7.258 -14.321  1.00  0.00     0.177 C 
ENDROOT
BRANCH   1   2
HETATM    2  N5  UNL     1      10.259  -6.864 -14.352  1.00  0.00    -0.358 N 
ATOM      3  H5  UNL     1      10.421  -6.051 -14.944  1.00  0.00     0.162 HD
BRANCH   2   4
HETATM    4  C3  UNL     1      11.313  -7.294 -13.807  1.00  0.00     0.174 C 
HETATM    5  N4  UNL     1      11.847  -8.464 -14.315  1.00  0.00    -0.312 N 
HETATM    6  C2  UNL     1      12.509  -9.443 -13.648  1.00  0.00     0.208 C 
ATOM      7  H4  UNL     1      11.729  -8.609 -15.318  1.00  0.00     0.170 HD
HETATM    8  N2  UNL     1      13.076  -9.312 -12.444  1.00  0.00    -0.163 N 
HETATM    9  N3  UNL     1      12.608 -10.715 -14.278  1.00  0.00    -0.063 NA
HETATM   10  C1  UNL     1      12.964  -8.345 -11.510  1.00  0.00     0.681 C 
ATOM     11  H2  UNL     1      13.703 -10.076 -12.187  1.00  0.00     0.187 HD
HETATM   12  N11 UNL     1      12.422  -7.101 -11.641  1.00  0.00    -0.153 N 
HETATM   13  C10 UNL     1      11.850  -6.571 -12.760  1.00  0.00     0.303 C 
ATOM     14  H11 UNL     1      12.447  -6.503 -10.815  1.00  0.00     0.187 HD
HETATM   15  O2  UNL     1      11.807  -5.325 -12.847  1.00  0.00    -0.263 OA
BRANCH  10  16
HETATM   16  N1  UNL     1      13.410  -8.589 -10.340  1.00  0.00    -0.234 N 
ATOM     17  H12 UNL     1      14.058  -9.378 -10.304  1.00  0.00     0.174 HD
ATOM     18  H11 UNL     1      13.093  -7.996  -9.574  1.00  0.00     0.174 HD
ENDBRANCH  10  16
ENDBRANCH   2   4
ENDBRANCH   1   2
BRANCH   1  19
HETATM   19  C5  UNL     1       8.110  -6.655 -15.493  1.00  0.00     0.042 C 
BRANCH  19  20
HETATM   20  C6  UNL     1       7.249  -7.712 -16.150  1.00  0.00     0.080 C 
BRANCH  20  21
HETATM   21  C7  UNL     1       7.075  -7.315 -17.562  1.00  0.00     0.096 A 
HETATM   22  N6  UNL     1       6.769  -8.160 -18.556  1.00  0.00    -0.288 N 
HETATM   23  N7  UNL     1       6.678  -7.525 -19.713  1.00  0.00    -0.295 N 
ATOM     24  H6  UNL     1       6.625  -9.163 -18.436  1.00  0.00     0.188 HD
HETATM   25  C8  UNL     1       6.937  -6.237 -19.426  1.00  0.00     0.198 A 
ATOM     26  H7  UNL     1       6.459  -7.926 -20.625  1.00  0.00     0.187 HD
HETATM   27  N8  UNL     1       7.181  -6.105 -18.108  1.00  0.00    -0.340 N 
ATOM     28  H8  UNL     1       7.405  -5.239 -17.619  1.00  0.00     0.168 HD
ENDBRANCH  20  21
ENDBRANCH  19  20
ENDBRANCH   1  19
BRANCH   1  29
HETATM   29  C9  UNL     1       8.177  -6.817 -13.112  1.00  0.00     0.258 C 
HETATM   30  O1  UNL     1       7.776  -7.653 -12.278  1.00  0.00    -0.269 OA
HETATM   31  N9  UNL     1       7.932  -5.448 -12.906  1.00  0.00    -0.275 N 
ATOM     32  H9  UNL     1       8.258  -4.760 -13.585  1.00  0.00     0.189 HD
BRANCH  31  33
HETATM   33  N10 UNL     1       7.238  -5.036 -11.764  1.00  0.00    -0.343 N 
ATOM     34 2H10 UNL     1       6.780  -4.124 -11.762  1.00  0.00     0.176 HD
ATOM     35 1H10 UNL     1       7.198  -5.650 -10.950  1.00  0.00     0.176 HD
ENDBRANCH  31  33
ENDBRANCH   1  29
TORSDOF 8
ENDMDL
MODEL 5
REMARK VINA RESULT: -9.060647510      2.344      4.102
REMARK  8 active torsions:
REMARK  status: ('A' for Active; 'I' for Inactive)
REMARK    1  A    between atoms: N1_1  and  C1_4 
REMARK    2  A    between atoms: C3_11  and  N5_12 
REMARK    3  A    between atoms: N5_12  and  C4_14 
REMARK    4  A    between atoms: C4_14  and  C5_15 
REMARK    5  A    between atoms: C4_14  and  C9_25 
REMARK    6  A    between atoms: C5_15  and  C6_16 
REMARK    7  A    between atoms: C6_16  and  C7_17 
REMARK       I    between atoms: C9_25  and  N9_27 
REMARK    8  A    between atoms: N9_27  and  N10_29 
ROOT
HETATM    1  C4  UNL     1       9.864  -7.121 -13.836  1.00  0.00     0.177 C 
ENDROOT
BRANCH   1   2
HETATM    2  N5  UNL     1      11.183  -7.016 -14.298  1.00  0.00    -0.358 N 
ATOM      3  H5  UNL     1      11.351  -7.557 -15.146  1.00  0.00     0.162 HD
BRANCH   2   4
HETATM    4  C3  UNL     1      12.209  -6.398 -13.897  1.00  0.00     0.174 C 
HETATM    5  N4  UNL     1      12.953  -7.003 -12.902  1.00  0.00    -0.312 N 
HETATM    6  C2  UNL     1      13.651  -6.412 -11.899  1.00  0.00     0.208 C 
ATOM      7  H4  UNL     1      12.981  -8.023 -12.923  1.00  0.00     0.170 HD
HETATM    8  N2  UNL     1      14.041  -5.133 -11.877  1.00  0.00    -0.163 N 
HETATM    9  N3  UNL     1      13.997  -7.215 -10.776  1.00  0.00    -0.063 NA
HETATM   10  C1  UNL     1      13.685  -4.083 -12.647  1.00  0.00     0.681 C 
ATOM     11  H2  UNL     1      14.726  -4.912 -11.154  1.00  0.00     0.187 HD
HETATM   12  N11 UNL     1      13.002  -4.092 -13.827  1.00  0.00    -0.153 N 
HETATM   13  C10 UNL     1      12.509  -5.183 -14.479  1.00  0.00     0.303 C 
ATOM     14  H11 UNL     1      12.844  -3.186 -14.270  1.00  0.00     0.187 HD
HETATM   15  O2  UNL     1      12.313  -5.075 -15.709  1.00  0.00    -0.263 OA
BRANCH  10  16
HETATM   16  N1  UNL     1      14.010  -2.914 -12.251  1.00  0.00    -0.234 N 
ATOM     17  H12 UNL     1      14.078  -2.829 -11.236  1.00  0.00     0.174 HD
ATOM     18  H11 UNL     1      14.167  -2.197 -12.958  1.00  0.00     0.174 HD
ENDBRANCH  10  16
ENDBRANCH   2   4
ENDBRANCH   1   2
BRANCH   1  19
HETATM   19  C5  UNL     1       9.499  -8.571 -13.459  1.00  0.00     0.042 C 
BRANCH  19  20
HETATM   20  C6  UNL     1       9.714  -8.810 -11.980  1.00  0.00     0.080 C 
BRANCH  20  21
HETATM   21  C7  UNL     1      11.005  -9.511 -11.836  1.00  0.00     0.096 A 
HETATM   22  N6  UNL     1      11.793  -9.436 -10.754  1.00  0.00    -0.288 N 
HETATM   23  N7  UNL     1      12.886 -10.168 -10.906  1.00  0.00    -0.295 N 
ATOM     24  H6  UNL     1      11.578  -8.887  -9.921  1.00  0.00     0.188 HD
HETATM   25  C8  UNL     1      12.772 -10.716 -12.128  1.00  0.00     0.198 A 
ATOM     26  H7  UNL     1      13.649 -10.288 -10.240  1.00  0.00     0.187 HD
HETATM   27  N8  UNL     1      11.620 -10.316 -12.701  1.00  0.00    -0.340 N 
ATOM     28  H8  UNL     1      11.281 -10.580 -13.626  1.00  0.00     0.168 HD
ENDBRANCH  20  21
ENDBRANCH  19  20
ENDBRANCH   1  19
BRANCH   1  29
HETATM   29  C9  UNL     1       8.837  -6.736 -14.833  1.00  0.00     0.258 C 
HETATM   30  O1  UNL     1       7.629  -6.951 -14.610  1.00  0.00    -0.269 OA
HETATM   31  N9  UNL     1       9.229  -6.124 -16.037  1.00  0.00    -0.275 N 
ATOM     32  H9  UNL     1      10.216  -5.945 -16.224  1.00  0.00     0.189 HD
BRANCH  31  33
HETATM   33  N10 UNL     1       8.257  -5.762 -16.975  1.00  0.00    -0.343 N 
ATOM     34 2H10 UNL     1       7.271  -5.820 -16.719  1.00  0.00     0.176 HD
ATOM     35 1H10 UNL     1       8.545  -5.445 -17.901  1.00  0.00     0.176 HD
ENDBRANCH  31  33
ENDBRANCH   1  29
TORSDOF 8
ENDMDL
