MODEL 1
REMARK VINA RESULT: -8.405795750      0.000      0.000
REMARK  10 active torsions:
REMARK  status: ('A' for Active; 'I' for Inactive)
REMARK    1  A    between atoms: C2_2  and  N1_3 
REMARK    2  A    between atoms: N1_3  and  C3_5 
REMARK    3  A    between atoms: C4_8  and  N3_9 
REMARK    4  A    between atoms: N3_9  and  C5_11 
REMARK    5  A    between atoms: C7_18  and  N8_19 
REMARK    6  A    between atoms: N8_19  and  C8_21 
REMARK    7  A    between atoms: C8_21  and  C10_23 
REMARK    8  A    between atoms: C8_21  and  C11_26 
REMARK    9  A    between atoms: C10_23  and  O1_24 
REMARK   10  A    between atoms: C11_26  and  O2_27 
ROOT
HETATM    1  C3  UNL     1       8.846  -6.342 -14.919  1.00  0.00     0.707 A 
HETATM    2  N2  UNL     1       8.072  -5.655 -14.089  1.00  0.00    -0.021 N 
ATOM      3  H2  UNL     1       7.447  -4.947 -14.477  1.00  0.00     0.203 HD
HETATM    4  C4  UNL     1       8.075  -5.849 -12.775  1.00  0.00     0.708 A 
HETATM    5  N7  UNL     1       8.898  -6.778 -12.282  1.00  0.00    -0.021 N 
ATOM      6  H7  UNL     1       8.904  -6.931 -11.273  1.00  0.00     0.203 HD
HETATM    7  C7  UNL     1       9.736  -7.538 -13.062  1.00  0.00     0.708 A 
HETATM    8  N9  UNL     1       9.671  -7.282 -14.372  1.00  0.00    -0.021 N 
ATOM      9  H9  UNL     1      10.272  -7.819 -14.998  1.00  0.00     0.203 HD
ENDROOT
BRANCH   7  10
HETATM   10  N8  UNL     1      10.474  -8.382 -12.556  1.00  0.00    -0.212 N 
ATOM     11  H8  UNL     1       9.915  -8.909 -11.886  1.00  0.00     0.178 HD
BRANCH  10  12
HETATM   12  C8  UNL     1      11.742  -8.902 -12.525  1.00  0.00     0.086 C 
HETATM   13  C9  UNL     1      11.994  -9.422 -11.083  1.00  0.00     0.043 C 
BRANCH  12  14
HETATM   14  C10 UNL     1      12.917  -8.022 -12.819  1.00  0.00     0.197 C 
BRANCH  14  15
HETATM   15  O1  UNL     1      13.662  -8.646 -13.850  1.00  0.00    -0.398 OA
ATOM     16  H1  UNL     1      14.201  -9.315 -13.443  1.00  0.00     0.209 HD
ENDBRANCH  14  15
ENDBRANCH  12  14
BRANCH  12  17
HETATM   17  C11 UNL     1      11.936 -10.135 -13.422  1.00  0.00     0.197 C 
BRANCH  17  18
HETATM   18  O2  UNL     1      11.296 -10.003 -14.625  1.00  0.00    -0.398 OA
ATOM     19  H2  UNL     1      11.574  -9.226 -15.095  1.00  0.00     0.209 HD
ENDBRANCH  17  18
ENDBRANCH  12  17
ENDBRANCH  10  12
ENDBRANCH   7  10
BRANCH   4  20
HETATM   20  N3  UNL     1       7.344  -5.207 -11.935  1.00  0.00    -0.204 N 
ATOM     21  H3  UNL     1       6.884  -4.362 -12.273  1.00  0.00     0.179 HD
BRANCH  20  22
HETATM   22  C5  UNL     1       7.120  -5.564 -10.580  1.00  0.00     0.227 C 
HETATM   23  C6  UNL     1       6.649  -4.308  -9.838  1.00  0.00     0.176 C 
HETATM   24  N4  UNL     1       5.301  -4.195 -10.324  1.00  0.00    -0.127 NA
HETATM   25  N5  UNL     1       4.936  -5.406 -10.866  1.00  0.00    -0.038 NA
HETATM   26  N6  UNL     1       5.883  -6.356 -10.501  1.00  0.00    -0.103 NA
ENDBRANCH  20  22
ENDBRANCH   4  20
BRANCH   1  27
HETATM   27  N1  UNL     1       8.793  -6.105 -16.178  1.00  0.00    -0.225 N 
ATOM     28  H1  UNL     1       9.648  -5.826 -16.659  1.00  0.00     0.177 HD
BRANCH  27  29
HETATM   29  C2  UNL     1       7.565  -6.215 -16.949  1.00  0.00     0.133 C 
HETATM   30  C1  UNL     1       7.032  -7.622 -16.953  1.00  0.00     0.027 C 
ENDBRANCH  27  29
ENDBRANCH   1  27
TORSDOF 10
ENDMDL
MODEL 2
REMARK VINA RESULT: -8.212980086      1.351      1.613
REMARK  10 active torsions:
REMARK  status: ('A' for Active; 'I' for Inactive)
REMARK    1  A    between atoms: C2_2  and  N1_3 
REMARK    2  A    between atoms: N1_3  and  C3_5 
REMARK    3  A    between atoms: C4_8  and  N3_9 
REMARK    4  A    between atoms: N3_9  and  C5_11 
REMARK    5  A    between atoms: C7_18  and  N8_19 
REMARK    6  A    between atoms: N8_19  and  C8_21 
REMARK    7  A    between atoms: C8_21  and  C10_23 
REMARK    8  A    between atoms: C8_21  and  C11_26 
REMARK    9  A    between atoms: C10_23  and  O1_24 
REMARK   10  A    between atoms: C11_26  and  O2_27 
ROOT
HETATM    1  C3  UNL     1       8.359  -6.627 -15.139  1.00  0.00     0.707 A 
HETATM    2  N2  UNL     1       7.431  -6.117 -14.339  1.00  0.00    -0.021 N 
ATOM      3  H2  UNL     1       6.506  -5.923 -14.724  1.00  0.00     0.203 HD
HETATM    4  C4  UNL     1       7.656  -5.847 -13.058  1.00  0.00     0.708 A 
HETATM    5  N7  UNL     1       8.871  -6.105 -12.568  1.00  0.00    -0.021 N 
ATOM      6  H7  UNL     1       9.049  -5.899 -11.585  1.00  0.00     0.203 HD
HETATM    7  C7  UNL     1       9.895  -6.632 -13.319  1.00  0.00     0.708 A 
HETATM    8  N9  UNL     1       9.587  -6.875 -14.597  1.00  0.00    -0.021 N 
ATOM      9  H9  UNL     1      10.309  -7.269 -15.201  1.00  0.00     0.203 HD
ENDROOT
BRANCH   7  10
HETATM   10  N8  UNL     1      10.996  -6.851 -12.818  1.00  0.00    -0.212 N 
ATOM     11  H8  UNL     1      10.836  -7.144 -11.854  1.00  0.00     0.178 HD
BRANCH  10  12
HETATM   12  C8  UNL     1      12.351  -6.861 -13.025  1.00  0.00     0.086 C 
HETATM   13  C9  UNL     1      13.032  -6.934 -11.632  1.00  0.00     0.043 C 
BRANCH  12  14
HETATM   14  C10 UNL     1      13.010  -5.702 -13.708  1.00  0.00     0.197 C 
BRANCH  14  15
HETATM   15  O1  UNL     1      13.269  -6.094 -15.045  1.00  0.00    -0.398 OA
ATOM     16  H1  UNL     1      12.564  -6.674 -15.310  1.00  0.00     0.209 HD
ENDBRANCH  14  15
ENDBRANCH  12  14
BRANCH  12  17
HETATM   17  C11 UNL     1      12.861  -8.104 -13.772  1.00  0.00     0.197 C 
BRANCH  17  18
HETATM   18  O2  UNL     1      14.090  -8.507 -13.323  1.00  0.00    -0.398 OA
ATOM     19  H2  UNL     1      14.160  -9.454 -13.273  1.00  0.00     0.209 HD
ENDBRANCH  17  18
ENDBRANCH  12  17
ENDBRANCH  10  12
ENDBRANCH   7  10
BRANCH   4  20
HETATM   20  N3  UNL     1       6.790  -5.352 -12.247  1.00  0.00    -0.204 N 
ATOM     21  H3  UNL     1       6.059  -4.768 -12.651  1.00  0.00     0.179 HD
BRANCH  20  22
HETATM   22  C5  UNL     1       6.758  -5.543 -10.841  1.00  0.00     0.227 C 
HETATM   23  C6  UNL     1       6.457  -4.187 -10.193  1.00  0.00     0.176 C 
HETATM   24  N4  UNL     1       5.056  -4.050 -10.488  1.00  0.00    -0.127 NA
HETATM   25  N5  UNL     1       4.565  -5.291 -10.824  1.00  0.00    -0.038 NA
HETATM   26  N6  UNL     1       5.515  -6.248 -10.490  1.00  0.00    -0.103 NA
ENDBRANCH  20  22
ENDBRANCH   4  20
BRANCH   1  27
HETATM   27  N1  UNL     1       8.074  -6.864 -16.367  1.00  0.00    -0.225 N 
ATOM     28  H1  UNL     1       8.594  -6.370 -17.092  1.00  0.00     0.177 HD
BRANCH  27  29
HETATM   29  C2  UNL     1       7.043  -7.805 -16.769  1.00  0.00     0.133 C 
HETATM   30  C1  UNL     1       7.478  -9.232 -16.567  1.00  0.00     0.027 C 
ENDBRANCH  27  29
ENDBRANCH   1  27
TORSDOF 10
ENDMDL
MODEL 3
REMARK VINA RESULT: -8.169372531      1.095      1.197
REMARK  10 active torsions:
REMARK  status: ('A' for Active; 'I' for Inactive)
REMARK    1  A    between atoms: C2_2  and  N1_3 
REMARK    2  A    between atoms: N1_3  and  C3_5 
REMARK    3  A    between atoms: C4_8  and  N3_9 
REMARK    4  A    between atoms: N3_9  and  C5_11 
REMARK    5  A    between atoms: C7_18  and  N8_19 
REMARK    6  A    between atoms: N8_19  and  C8_21 
REMARK    7  A    between atoms: C8_21  and  C10_23 
REMARK    8  A    between atoms: C8_21  and  C11_26 
REMARK    9  A    between atoms: C10_23  and  O1_24 
REMARK   10  A    between atoms: C11_26  and  O2_27 
ROOT
HETATM    1  C3  UNL     1       8.465  -6.587 -15.149  1.00  0.00     0.707 A 
HETATM    2  N2  UNL     1       7.523  -6.132 -14.332  1.00  0.00    -0.021 N 
ATOM      3  H2  UNL     1       6.583  -5.990 -14.701  1.00  0.00     0.203 HD
HETATM    4  C4  UNL     1       7.754  -5.853 -13.054  1.00  0.00     0.708 A 
HETATM    5  N7  UNL     1       8.990  -6.043 -12.585  1.00  0.00    -0.021 N 
ATOM      6  H7  UNL     1       9.172  -5.830 -11.604  1.00  0.00     0.203 HD
HETATM    7  C7  UNL     1      10.028  -6.510 -13.355  1.00  0.00     0.708 A 
HETATM    8  N9  UNL     1       9.714  -6.768 -14.628  1.00  0.00    -0.021 N 
ATOM      9  H9  UNL     1      10.447  -7.118 -15.244  1.00  0.00     0.203 HD
ENDROOT
BRANCH   7  10
HETATM   10  N8  UNL     1      11.149  -6.668 -12.872  1.00  0.00    -0.212 N 
ATOM     11  H8  UNL     1      11.542  -5.740 -12.713  1.00  0.00     0.178 HD
BRANCH  10  12
HETATM   12  C8  UNL     1      12.084  -7.581 -12.461  1.00  0.00     0.086 C 
HETATM   13  C9  UNL     1      11.426  -8.455 -11.359  1.00  0.00     0.043 C 
BRANCH  12  14
HETATM   14  C10 UNL     1      13.369  -7.110 -11.851  1.00  0.00     0.197 C 
BRANCH  14  15
HETATM   15  O1  UNL     1      14.399  -7.951 -12.339  1.00  0.00    -0.398 OA
ATOM     16  H1  UNL     1      15.202  -7.442 -12.341  1.00  0.00     0.209 HD
ENDBRANCH  14  15
ENDBRANCH  12  14
BRANCH  12  17
HETATM   17  C11 UNL     1      12.505  -8.580 -13.549  1.00  0.00     0.197 C 
BRANCH  17  18
HETATM   18  O2  UNL     1      12.776  -7.962 -14.741  1.00  0.00    -0.398 OA
ATOM     19  H2  UNL     1      13.590  -8.265 -15.125  1.00  0.00     0.209 HD
ENDBRANCH  17  18
ENDBRANCH  12  17
ENDBRANCH  10  12
ENDBRANCH   7  10
BRANCH   4  20
HETATM   20  N3  UNL     1       6.875  -5.409 -12.227  1.00  0.00    -0.204 N 
ATOM     21  H3  UNL     1       6.149  -4.801 -12.606  1.00  0.00     0.179 HD
BRANCH  20  22
HETATM   22  C5  UNL     1       6.821  -5.687 -10.837  1.00  0.00     0.227 C 
HETATM   23  C6  UNL     1       6.697  -4.349 -10.099  1.00  0.00     0.176 C 
HETATM   24  N4  UNL     1       5.325  -4.016 -10.369  1.00  0.00    -0.127 NA
HETATM   25  N5  UNL     1       4.678  -5.159 -10.781  1.00  0.00    -0.038 NA
HETATM   26  N6  UNL     1       5.499  -6.249 -10.520  1.00  0.00    -0.103 NA
ENDBRANCH  20  22
ENDBRANCH   4  20
BRANCH   1  27
HETATM   27  N1  UNL     1       8.174  -6.837 -16.373  1.00  0.00    -0.225 N 
ATOM     28  H1  UNL     1       8.725  -6.392 -17.106  1.00  0.00     0.177 HD
BRANCH  27  29
HETATM   29  C2  UNL     1       7.092  -7.727 -16.760  1.00  0.00     0.133 C 
HETATM   30  C1  UNL     1       7.429  -9.168 -16.487  1.00  0.00     0.027 C 
ENDBRANCH  27  29
ENDBRANCH   1  27
TORSDOF 10
ENDMDL
MODEL 4
REMARK VINA RESULT: -8.024783302      1.401      2.053
REMARK  10 active torsions:
REMARK  status: ('A' for Active; 'I' for Inactive)
REMARK    1  A    between atoms: C2_2  and  N1_3 
REMARK    2  A    between atoms: N1_3  and  C3_5 
REMARK    3  A    between atoms: C4_8  and  N3_9 
REMARK    4  A    between atoms: N3_9  and  C5_11 
REMARK    5  A    between atoms: C7_18  and  N8_19 
REMARK    6  A    between atoms: N8_19  and  C8_21 
REMARK    7  A    between atoms: C8_21  and  C10_23 
REMARK    8  A    between atoms: C8_21  and  C11_26 
REMARK    9  A    between atoms: C10_23  and  O1_24 
REMARK   10  A    between atoms: C11_26  and  O2_27 
ROOT
HETATM    1  C3  UNL     1       8.432  -6.566 -15.166  1.00  0.00     0.707 A 
HETATM    2  N2  UNL     1       7.480  -6.129 -14.351  1.00  0.00    -0.021 N 
ATOM      3  H2  UNL     1       6.539  -6.000 -14.724  1.00  0.00     0.203 HD
HETATM    4  C4  UNL     1       7.700  -5.853 -13.071  1.00  0.00     0.708 A 
HETATM    5  N7  UNL     1       8.937  -6.027 -12.597  1.00  0.00    -0.021 N 
ATOM      6  H7  UNL     1       9.111  -5.817 -11.614  1.00  0.00     0.203 HD
HETATM    7  C7  UNL     1       9.986  -6.474 -13.364  1.00  0.00     0.708 A 
HETATM    8  N9  UNL     1       9.681  -6.729 -14.640  1.00  0.00    -0.021 N 
ATOM      9  H9  UNL     1      10.422  -7.065 -15.255  1.00  0.00     0.203 HD
ENDROOT
BRANCH   7  10
HETATM   10  N8  UNL     1      11.107  -6.617 -12.877  1.00  0.00    -0.212 N 
ATOM     11  H8  UNL     1      11.011  -6.521 -11.867  1.00  0.00     0.178 HD
BRANCH  10  12
HETATM   12  C8  UNL     1      12.431  -6.852 -13.138  1.00  0.00     0.086 C 
HETATM   13  C9  UNL     1      12.942  -5.687 -14.030  1.00  0.00     0.043 C 
BRANCH  12  14
HETATM   14  C10 UNL     1      12.838  -8.094 -13.870  1.00  0.00     0.197 C 
BRANCH  14  15
HETATM   15  O1  UNL     1      14.086  -8.505 -13.340  1.00  0.00    -0.398 OA
ATOM     16  H1  UNL     1      14.752  -8.281 -13.980  1.00  0.00     0.209 HD
ENDBRANCH  14  15
ENDBRANCH  12  14
BRANCH  12  17
HETATM   17  C11 UNL     1      13.332  -6.812 -11.894  1.00  0.00     0.197 C 
BRANCH  17  18
HETATM   18  O2  UNL     1      14.371  -5.932 -12.037  1.00  0.00    -0.398 OA
ATOM     19  H2  UNL     1      15.208  -6.329 -11.825  1.00  0.00     0.209 HD
ENDBRANCH  17  18
ENDBRANCH  12  17
ENDBRANCH  10  12
ENDBRANCH   7  10
BRANCH   4  20
HETATM   20  N3  UNL     1       6.811  -5.428 -12.245  1.00  0.00    -0.204 N 
ATOM     21  H3  UNL     1       6.059  -4.857 -12.630  1.00  0.00     0.179 HD
BRANCH  20  22
HETATM   22  C5  UNL     1       6.779  -5.680 -10.850  1.00  0.00     0.227 C 
HETATM   23  C6  UNL     1       6.667  -4.328 -10.135  1.00  0.00     0.176 C 
HETATM   24  N4  UNL     1       5.291  -3.999 -10.390  1.00  0.00    -0.127 NA
HETATM   25  N5  UNL     1       4.637  -5.149 -10.770  1.00  0.00    -0.038 NA
HETATM   26  N6  UNL     1       5.462  -6.235 -10.501  1.00  0.00    -0.103 NA
ENDBRANCH  20  22
ENDBRANCH   4  20
BRANCH   1  27
HETATM   27  N1  UNL     1       8.150  -6.813 -16.392  1.00  0.00    -0.225 N 
ATOM     28  H1  UNL     1       8.687  -6.342 -17.121  1.00  0.00     0.177 HD
BRANCH  27  29
HETATM   29  C2  UNL     1       7.100  -7.736 -16.789  1.00  0.00     0.133 C 
HETATM   30  C1  UNL     1       7.446  -9.159 -16.443  1.00  0.00     0.027 C 
ENDBRANCH  27  29
ENDBRANCH   1  27
TORSDOF 10
ENDMDL
MODEL 5
REMARK VINA RESULT: -7.993054026      3.337      6.308
REMARK  10 active torsions:
REMARK  status: ('A' for Active; 'I' for Inactive)
REMARK    1  A    between atoms: C2_2  and  N1_3 
REMARK    2  A    between atoms: N1_3  and  C3_5 
REMARK    3  A    between atoms: C4_8  and  N3_9 
REMARK    4  A    between atoms: N3_9  and  C5_11 
REMARK    5  A    between atoms: C7_18  and  N8_19 
REMARK    6  A    between atoms: N8_19  and  C8_21 
REMARK    7  A    between atoms: C8_21  and  C10_23 
REMARK    8  A    between atoms: C8_21  and  C11_26 
REMARK    9  A    between atoms: C10_23  and  O1_24 
REMARK   10  A    between atoms: C11_26  and  O2_27 
ROOT
HETATM    1  C3  UNL     1      12.589  -5.473 -13.605  1.00  0.00     0.707 A 
HETATM    2  N2  UNL     1      13.006  -6.653 -13.165  1.00  0.00    -0.021 N 
ATOM      3  H2  UNL     1      13.898  -6.704 -12.672  1.00  0.00     0.203 HD
HETATM    4  C4  UNL     1      12.312  -7.772 -13.339  1.00  0.00     0.708 A 
HETATM    5  N7  UNL     1      11.147  -7.691 -13.986  1.00  0.00    -0.021 N 
ATOM      6  H7  UNL     1      10.609  -8.548 -14.122  1.00  0.00     0.203 HD
HETATM    7  C7  UNL     1      10.633  -6.515 -14.478  1.00  0.00     0.708 A 
HETATM    8  N9  UNL     1      11.392  -5.436 -14.260  1.00  0.00    -0.021 N 
ATOM      9  H9  UNL     1      11.058  -4.535 -14.603  1.00  0.00     0.203 HD
ENDROOT
BRANCH   7  10
HETATM   10  N8  UNL     1       9.554  -6.496 -15.066  1.00  0.00    -0.212 N 
ATOM     11  H8  UNL     1       9.691  -5.974 -15.932  1.00  0.00     0.178 HD
BRANCH  10  12
HETATM   12  C8  UNL     1       8.241  -6.890 -15.034  1.00  0.00     0.086 C 
HETATM   13  C9  UNL     1       7.521  -6.198 -16.223  1.00  0.00     0.043 C 
BRANCH  12  14
HETATM   14  C10 UNL     1       7.395  -6.568 -13.841  1.00  0.00     0.197 C 
BRANCH  14  15
HETATM   15  O1  UNL     1       7.586  -5.194 -13.549  1.00  0.00    -0.398 OA
ATOM     16  H1  UNL     1       6.726  -4.789 -13.526  1.00  0.00     0.209 HD
ENDBRANCH  14  15
ENDBRANCH  12  14
BRANCH  12  17
HETATM   17  C11 UNL     1       8.031  -8.393 -15.275  1.00  0.00     0.197 C 
BRANCH  17  18
HETATM   18  O2  UNL     1       8.340  -9.140 -14.170  1.00  0.00    -0.398 OA
ATOM     19  H2  UNL     1       9.155  -8.863 -13.767  1.00  0.00     0.209 HD
ENDBRANCH  17  18
ENDBRANCH  12  17
ENDBRANCH  10  12
ENDBRANCH   7  10
BRANCH   4  20
HETATM   20  N3  UNL     1      12.677  -8.936 -12.932  1.00  0.00    -0.204 N 
ATOM     21  H3  UNL     1      13.473  -8.975 -12.296  1.00  0.00     0.179 HD
BRANCH  20  22
HETATM   22  C5  UNL     1      12.075 -10.171 -13.286  1.00  0.00     0.227 C 
HETATM   23  C6  UNL     1      12.771 -11.276 -12.482  1.00  0.00     0.176 C 
HETATM   24  N4  UNL     1      12.210 -11.057 -11.177  1.00  0.00    -0.127 NA
HETATM   25  N5  UNL     1      11.078 -10.286 -11.320  1.00  0.00    -0.038 NA
HETATM   26  N6  UNL     1      10.742 -10.240 -12.667  1.00  0.00    -0.103 NA
ENDBRANCH  20  22
ENDBRANCH   4  20
BRANCH   1  27
HETATM   27  N1  UNL     1      13.309  -4.432 -13.402  1.00  0.00    -0.225 N 
ATOM     28  H1  UNL     1      13.527  -3.828 -14.194  1.00  0.00     0.177 HD
BRANCH  27  29
HETATM   29  C2  UNL     1      13.828  -4.075 -12.092  1.00  0.00     0.133 C 
HETATM   30  C1  UNL     1      14.029  -2.589 -11.957  1.00  0.00     0.027 C 
ENDBRANCH  27  29
ENDBRANCH   1  27
TORSDOF 10
ENDMDL
