MODEL 1
REMARK VINA RESULT: -8.294868253      0.000      0.000
REMARK  9 active torsions:
REMARK  status: ('A' for Active; 'I' for Inactive)
REMARK    1  A    between atoms: C4_10  and  N3_11 
REMARK    2  A    between atoms: N3_11  and  O3_13 
REMARK    3  A    between atoms: O3_13  and  C5_14 
REMARK    4  A    between atoms: C5_14  and  C6_15 
REMARK    5  A    between atoms: C6_15  and  O4_16 
REMARK    6  A    between atoms: C6_15  and  C7_18 
REMARK    7  A    between atoms: C6_15  and  C8_21 
REMARK    8  A    between atoms: C7_18  and  O5_19 
REMARK    9  A    between atoms: C8_21  and  O6_22 
ROOT
HETATM    1  O1  UNL     1       6.759  -8.204 -20.147  1.00  0.00    -0.262 OA
HETATM    2  C1  UNL     1       6.876  -7.832 -18.950  1.00  0.00     0.316 C 
HETATM    3  N1  UNL     1       6.934  -8.834 -18.053  1.00  0.00    -0.284 N 
ATOM      4  H1  UNL     1       6.607  -9.745 -18.372  1.00  0.00     0.172 HD
HETATM    5  C2  UNL     1       7.371  -8.771 -16.795  1.00  0.00     0.279 C 
HETATM    6  O2  UNL     1       7.397  -9.860 -16.181  1.00  0.00    -0.265 OA
HETATM    7  C3  UNL     1       7.800  -7.661 -16.081  1.00  0.00     0.161 A 
HETATM    8  N2  UNL     1       8.416  -7.692 -14.886  1.00  0.00    -0.181 N 
ATOM      9  H2  UNL     1       8.649  -8.527 -14.349  1.00  0.00     0.184 HD
HETATM   10  C4  UNL     1       8.669  -6.422 -14.529  1.00  0.00     0.704 A 
HETATM   11  N4  UNL     1       8.218  -5.606 -15.488  1.00  0.00    -0.172 N 
ATOM     12  H4  UNL     1       8.276  -4.588 -15.482  1.00  0.00     0.186 HD
HETATM   13  C9  UNL     1       7.680  -6.352 -16.452  1.00  0.00     0.157 A 
HETATM   14  N5  UNL     1       7.139  -5.827 -17.554  1.00  0.00    -0.302 N 
ATOM     15  H5  UNL     1       6.862  -4.846 -17.513  1.00  0.00     0.171 HD
HETATM   16  C10 UNL     1       6.927  -6.478 -18.715  1.00  0.00     0.315 C 
HETATM   17  O7  UNL     1       6.748  -5.773 -19.745  1.00  0.00    -0.262 OA
ENDROOT
BRANCH  10  18
HETATM   18  N3  UNL     1       9.258  -6.118 -13.421  1.00  0.00    -0.096 N 
ATOM     19  H3  UNL     1       9.382  -5.141 -13.157  1.00  0.00     0.213 HD
BRANCH  18  20
HETATM   20  O3  UNL     1       9.713  -7.112 -12.603  1.00  0.00    -0.263 OA
BRANCH  20  21
HETATM   21  C5  UNL     1      11.027  -7.151 -12.140  1.00  0.00     0.244 C 
BRANCH  21  22
HETATM   22  C6  UNL     1      11.789  -8.145 -13.023  1.00  0.00     0.123 C 
BRANCH  22  23
HETATM   23  O4  UNL     1      11.762  -7.649 -14.307  1.00  0.00    -0.383 OA
ATOM     24  H4  UNL     1      12.522  -7.090 -14.406  1.00  0.00     0.210 HD
ENDBRANCH  22  23
BRANCH  22  25
HETATM   25  C7  UNL     1      13.189  -8.230 -12.460  1.00  0.00     0.206 C 
BRANCH  25  26
HETATM   26  O5  UNL     1      14.137  -8.576 -13.391  1.00  0.00    -0.398 OA
ATOM     27  H5  UNL     1      14.160  -9.506 -13.584  1.00  0.00     0.209 HD
ENDBRANCH  25  26
ENDBRANCH  22  25
BRANCH  22  28
HETATM   28  C8  UNL     1      11.077  -9.472 -13.009  1.00  0.00     0.206 C 
BRANCH  28  29
HETATM   29  O6  UNL     1      10.397  -9.585 -14.224  1.00  0.00    -0.398 OA
ATOM     30  H6  UNL     1      10.160 -10.499 -14.327  1.00  0.00     0.209 HD
ENDBRANCH  28  29
ENDBRANCH  22  28
ENDBRANCH  21  22
ENDBRANCH  20  21
ENDBRANCH  18  20
ENDBRANCH  10  18
TORSDOF 9
ENDMDL
MODEL 2
REMARK VINA RESULT: -8.230288028      1.080      1.776
REMARK  9 active torsions:
REMARK  status: ('A' for Active; 'I' for Inactive)
REMARK    1  A    between atoms: C4_10  and  N3_11 
REMARK    2  A    between atoms: N3_11  and  O3_13 
REMARK    3  A    between atoms: O3_13  and  C5_14 
REMARK    4  A    between atoms: C5_14  and  C6_15 
REMARK    5  A    between atoms: C6_15  and  O4_16 
REMARK    6  A    between atoms: C6_15  and  C7_18 
REMARK    7  A    between atoms: C6_15  and  C8_21 
REMARK    8  A    between atoms: C7_18  and  O5_19 
REMARK    9  A    between atoms: C8_21  and  O6_22 
ROOT
HETATM    1  O1  UNL     1       6.617  -8.103 -20.110  1.00  0.00    -0.262 OA
HETATM    2  C1  UNL     1       6.796  -7.771 -18.910  1.00  0.00     0.316 C 
HETATM    3  N1  UNL     1       6.893  -8.802 -18.049  1.00  0.00    -0.284 N 
ATOM      4  H1  UNL     1       6.544  -9.701 -18.381  1.00  0.00     0.172 HD
HETATM    5  C2  UNL     1       7.393  -8.783 -16.814  1.00  0.00     0.279 C 
HETATM    6  O2  UNL     1       7.442  -9.891 -16.238  1.00  0.00    -0.265 OA
HETATM    7  C3  UNL     1       7.864  -7.699 -16.086  1.00  0.00     0.161 A 
HETATM    8  N2  UNL     1       8.539  -7.772 -14.926  1.00  0.00    -0.181 N 
ATOM      9  H2  UNL     1       8.793  -8.626 -14.429  1.00  0.00     0.184 HD
HETATM   10  C4  UNL     1       8.818  -6.516 -14.540  1.00  0.00     0.704 A 
HETATM   11  N4  UNL     1       8.325  -5.667 -15.448  1.00  0.00    -0.172 N 
ATOM     12  H4  UNL     1       8.390  -4.649 -15.412  1.00  0.00     0.186 HD
HETATM   13  C9  UNL     1       7.734  -6.378 -16.408  1.00  0.00     0.157 A 
HETATM   14  N5  UNL     1       7.142  -5.814 -17.463  1.00  0.00    -0.302 N 
ATOM     15  H5  UNL     1       6.874  -4.834 -17.377  1.00  0.00     0.171 HD
HETATM   16  C10 UNL     1       6.868  -6.426 -18.634  1.00  0.00     0.315 C 
HETATM   17  O7  UNL     1       6.642  -5.686 -19.629  1.00  0.00    -0.262 OA
ENDROOT
BRANCH  10  18
HETATM   18  N3  UNL     1       9.464  -6.252 -13.454  1.00  0.00    -0.096 N 
ATOM     19  H3  UNL     1       9.836  -5.316 -13.293  1.00  0.00     0.213 HD
BRANCH  18  20
HETATM   20  O3  UNL     1       9.646  -7.232 -12.521  1.00  0.00    -0.263 OA
BRANCH  20  21
HETATM   21  C5  UNL     1      10.913  -7.666 -12.136  1.00  0.00     0.244 C 
BRANCH  21  22
HETATM   22  C6  UNL     1      10.812  -9.171 -11.864  1.00  0.00     0.123 C 
BRANCH  22  23
HETATM   23  O4  UNL     1      11.637  -9.446 -10.796  1.00  0.00    -0.383 OA
ATOM     24  H4  UNL     1      11.087  -9.780 -10.098  1.00  0.00     0.210 HD
ENDBRANCH  22  23
BRANCH  22  25
HETATM   25  C7  UNL     1       9.358  -9.453 -11.566  1.00  0.00     0.206 C 
BRANCH  25  26
HETATM   26  O5  UNL     1       8.669  -9.978 -12.631  1.00  0.00    -0.398 OA
ATOM     27  H5  UNL     1       8.700  -9.434 -13.410  1.00  0.00     0.209 HD
ENDBRANCH  25  26
ENDBRANCH  22  25
BRANCH  22  28
HETATM   28  C8  UNL     1      11.316  -9.930 -13.063  1.00  0.00     0.206 C 
BRANCH  28  29
HETATM   29  O6  UNL     1      10.807  -9.290 -14.196  1.00  0.00    -0.398 OA
ATOM     30  H6  UNL     1       9.867  -9.428 -14.195  1.00  0.00     0.209 HD
ENDBRANCH  28  29
ENDBRANCH  22  28
ENDBRANCH  21  22
ENDBRANCH  20  21
ENDBRANCH  18  20
ENDBRANCH  10  18
TORSDOF 9
ENDMDL
MODEL 3
REMARK VINA RESULT: -8.216190205      0.805      1.330
REMARK  9 active torsions:
REMARK  status: ('A' for Active; 'I' for Inactive)
REMARK    1  A    between atoms: C4_10  and  N3_11 
REMARK    2  A    between atoms: N3_11  and  O3_13 
REMARK    3  A    between atoms: O3_13  and  C5_14 
REMARK    4  A    between atoms: C5_14  and  C6_15 
REMARK    5  A    between atoms: C6_15  and  O4_16 
REMARK    6  A    between atoms: C6_15  and  C7_18 
REMARK    7  A    between atoms: C6_15  and  C8_21 
REMARK    8  A    between atoms: C7_18  and  O5_19 
REMARK    9  A    between atoms: C8_21  and  O6_22 
ROOT
HETATM    1  O1  UNL     1       6.860  -8.131 -20.127  1.00  0.00    -0.262 OA
HETATM    2  C1  UNL     1       6.933  -7.780 -18.921  1.00  0.00     0.316 C 
HETATM    3  N1  UNL     1       6.953  -8.796 -18.039  1.00  0.00    -0.284 N 
ATOM      4  H1  UNL     1       6.634  -9.700 -18.385  1.00  0.00     0.172 HD
HETATM    5  C2  UNL     1       7.343  -8.756 -16.765  1.00  0.00     0.279 C 
HETATM    6  O2  UNL     1       7.340  -9.855 -16.169  1.00  0.00    -0.265 OA
HETATM    7  C3  UNL     1       7.749  -7.660 -16.017  1.00  0.00     0.161 A 
HETATM    8  N2  UNL     1       8.319  -7.714 -14.800  1.00  0.00    -0.181 N 
ATOM      9  H2  UNL     1       8.527  -8.559 -14.269  1.00  0.00     0.184 HD
HETATM   10  C4  UNL     1       8.565  -6.452 -14.413  1.00  0.00     0.704 A 
HETATM   11  N4  UNL     1       8.154  -5.617 -15.374  1.00  0.00    -0.172 N 
ATOM     12  H4  UNL     1       8.216  -4.600 -15.349  1.00  0.00     0.186 HD
HETATM   13  C9  UNL     1       7.649  -6.345 -16.371  1.00  0.00     0.157 A 
HETATM   14  N5  UNL     1       7.153  -5.799 -17.483  1.00  0.00    -0.302 N 
ATOM     15  H5  UNL     1       6.879  -4.818 -17.436  1.00  0.00     0.171 HD
HETATM   16  C10 UNL     1       6.982  -6.430 -18.662  1.00  0.00     0.315 C 
HETATM   17  O7  UNL     1       6.846  -5.707 -19.686  1.00  0.00    -0.262 OA
ENDROOT
BRANCH  10  18
HETATM   18  N3  UNL     1       9.112  -6.169 -13.278  1.00  0.00    -0.096 N 
ATOM     19  H3  UNL     1       8.536  -6.051 -12.445  1.00  0.00     0.213 HD
BRANCH  18  20
HETATM   20  O3  UNL     1      10.468  -6.030 -13.199  1.00  0.00    -0.263 OA
BRANCH  20  21
HETATM   21  C5  UNL     1      11.264  -6.904 -12.461  1.00  0.00     0.244 C 
BRANCH  21  22
HETATM   22  C6  UNL     1      11.952  -7.842 -13.460  1.00  0.00     0.123 C 
BRANCH  22  23
HETATM   23  O4  UNL     1      10.977  -8.657 -13.987  1.00  0.00    -0.383 OA
ATOM     24  H4  UNL     1      11.391  -9.192 -14.654  1.00  0.00     0.210 HD
ENDBRANCH  22  23
BRANCH  22  25
HETATM   25  C7  UNL     1      12.598  -6.955 -14.500  1.00  0.00     0.206 C 
BRANCH  25  26
HETATM   26  O5  UNL     1      13.374  -5.956 -13.967  1.00  0.00    -0.398 OA
ATOM     27  H5  UNL     1      13.858  -5.462 -14.618  1.00  0.00     0.209 HD
ENDBRANCH  25  26
ENDBRANCH  22  25
BRANCH  22  28
HETATM   28  C8  UNL     1      12.950  -8.702 -12.731  1.00  0.00     0.206 C 
BRANCH  28  29
HETATM   29  O6  UNL     1      14.188  -8.507 -13.349  1.00  0.00    -0.398 OA
ATOM     30  H6  UNL     1      14.030  -7.997 -14.135  1.00  0.00     0.209 HD
ENDBRANCH  28  29
ENDBRANCH  22  28
ENDBRANCH  21  22
ENDBRANCH  20  21
ENDBRANCH  18  20
ENDBRANCH  10  18
TORSDOF 9
ENDMDL
MODEL 4
REMARK VINA RESULT: -8.082865630      3.516      6.799
REMARK  9 active torsions:
REMARK  status: ('A' for Active; 'I' for Inactive)
REMARK    1  A    between atoms: C4_10  and  N3_11 
REMARK    2  A    between atoms: N3_11  and  O3_13 
REMARK    3  A    between atoms: O3_13  and  C5_14 
REMARK    4  A    between atoms: C5_14  and  C6_15 
REMARK    5  A    between atoms: C6_15  and  O4_16 
REMARK    6  A    between atoms: C6_15  and  C7_18 
REMARK    7  A    between atoms: C6_15  and  C8_21 
REMARK    8  A    between atoms: C7_18  and  O5_19 
REMARK    9  A    between atoms: C8_21  and  O6_22 
ROOT
HETATM    1  O1  UNL     1      15.401  -5.431 -10.527  1.00  0.00    -0.262 OA
HETATM    2  C1  UNL     1      14.589  -5.711 -11.446  1.00  0.00     0.316 C 
HETATM    3  N1  UNL     1      14.517  -7.019 -11.755  1.00  0.00    -0.284 N 
ATOM      4  H1  UNL     1      15.292  -7.601 -11.437  1.00  0.00     0.172 HD
HETATM    5  C2  UNL     1      13.550  -7.641 -12.428  1.00  0.00     0.279 C 
HETATM    6  O2  UNL     1      13.675  -8.882 -12.522  1.00  0.00    -0.265 OA
HETATM    7  C3  UNL     1      12.427  -7.096 -13.035  1.00  0.00     0.161 A 
HETATM    8  N2  UNL     1      11.388  -7.795 -13.524  1.00  0.00    -0.181 N 
ATOM      9  H2  UNL     1      11.286  -8.810 -13.516  1.00  0.00     0.184 HD
HETATM   10  C4  UNL     1      10.508  -6.913 -14.027  1.00  0.00     0.704 A 
HETATM   11  N4  UNL     1      10.990  -5.677 -13.854  1.00  0.00    -0.172 N 
ATOM     12  H4  UNL     1      10.533  -4.811 -14.140  1.00  0.00     0.186 HD
HETATM   13  C9  UNL     1      12.172  -5.771 -13.244  1.00  0.00     0.157 A 
HETATM   14  N5  UNL     1      12.909  -4.703 -12.931  1.00  0.00    -0.302 N 
ATOM     15  H5  UNL     1      12.711  -3.839 -13.434  1.00  0.00     0.171 HD
HETATM   16  C10 UNL     1      13.891  -4.667 -12.008  1.00  0.00     0.315 C 
HETATM   17  O7  UNL     1      14.239  -3.532 -11.583  1.00  0.00    -0.262 OA
ENDROOT
BRANCH  10  18
HETATM   18  N3  UNL     1       9.397  -7.277 -14.573  1.00  0.00    -0.096 N 
ATOM     19  H3  UNL     1       9.340  -7.407 -15.583  1.00  0.00     0.213 HD
BRANCH  18  20
HETATM   20  O3  UNL     1       8.297  -7.487 -13.793  1.00  0.00    -0.263 OA
BRANCH  20  21
HETATM   21  C5  UNL     1       7.911  -8.761 -13.377  1.00  0.00     0.244 C 
BRANCH  21  22
HETATM   22  C6  UNL     1       8.057  -8.802 -11.852  1.00  0.00     0.123 C 
BRANCH  22  23
HETATM   23  O4  UNL     1       7.000  -9.537 -11.364  1.00  0.00    -0.383 OA
ATOM     24  H4  UNL     1       6.883  -9.288 -10.456  1.00  0.00     0.210 HD
ENDBRANCH  22  23
BRANCH  22  25
HETATM   25  C7  UNL     1       9.395  -9.445 -11.569  1.00  0.00     0.206 C 
BRANCH  25  26
HETATM   26  O5  UNL     1       9.954 -10.057 -12.664  1.00  0.00    -0.398 OA
ATOM     27  H5  UNL     1       9.316 -10.352 -13.303  1.00  0.00     0.209 HD
ENDBRANCH  25  26
ENDBRANCH  22  25
BRANCH  22  28
HETATM   28  C8  UNL     1       7.958  -7.403 -11.304  1.00  0.00     0.206 C 
BRANCH  28  29
HETATM   29  O6  UNL     1       9.255  -6.882 -11.274  1.00  0.00    -0.398 OA
ATOM     30  H6  UNL     1       9.244  -6.079 -11.780  1.00  0.00     0.209 HD
ENDBRANCH  28  29
ENDBRANCH  22  28
ENDBRANCH  21  22
ENDBRANCH  20  21
ENDBRANCH  18  20
ENDBRANCH  10  18
TORSDOF 9
ENDMDL
MODEL 5
REMARK VINA RESULT: -8.002622398      1.230      1.738
REMARK  9 active torsions:
REMARK  status: ('A' for Active; 'I' for Inactive)
REMARK    1  A    between atoms: C4_10  and  N3_11 
REMARK    2  A    between atoms: N3_11  and  O3_13 
REMARK    3  A    between atoms: O3_13  and  C5_14 
REMARK    4  A    between atoms: C5_14  and  C6_15 
REMARK    5  A    between atoms: C6_15  and  O4_16 
REMARK    6  A    between atoms: C6_15  and  C7_18 
REMARK    7  A    between atoms: C6_15  and  C8_21 
REMARK    8  A    between atoms: C7_18  and  O5_19 
REMARK    9  A    between atoms: C8_21  and  O6_22 
ROOT
HETATM    1  O1  UNL     1       6.826  -7.940 -19.932  1.00  0.00    -0.262 OA
HETATM    2  C1  UNL     1       6.918  -7.683 -18.704  1.00  0.00     0.316 C 
HETATM    3  N1  UNL     1       6.967  -8.765 -17.904  1.00  0.00    -0.284 N 
ATOM      4  H1  UNL     1       6.652  -9.644 -18.315  1.00  0.00     0.172 HD
HETATM    5  C2  UNL     1       7.380  -8.820 -16.639  1.00  0.00     0.279 C 
HETATM    6  O2  UNL     1       7.402  -9.962 -16.130  1.00  0.00    -0.265 OA
HETATM    7  C3  UNL     1       7.787  -7.780 -15.814  1.00  0.00     0.161 A 
HETATM    8  N2  UNL     1       8.380  -7.921 -14.616  1.00  0.00    -0.181 N 
ATOM      9  H2  UNL     1       8.609  -8.802 -14.156  1.00  0.00     0.184 HD
HETATM   10  C4  UNL     1       8.617  -6.690 -14.135  1.00  0.00     0.704 A 
HETATM   11  N4  UNL     1       8.178  -5.788 -15.020  1.00  0.00    -0.172 N 
ATOM     12  H4  UNL     1       8.228  -4.775 -14.917  1.00  0.00     0.186 HD
HETATM   13  C9  UNL     1       7.664  -6.443 -16.061  1.00  0.00     0.157 A 
HETATM   14  N5  UNL     1       7.140  -5.818 -17.118  1.00  0.00    -0.302 N 
ATOM     15  H5  UNL     1       6.855  -4.848 -16.990  1.00  0.00     0.171 HD
HETATM   16  C10 UNL     1       6.955  -6.357 -18.340  1.00  0.00     0.315 C 
HETATM   17  O7  UNL     1       6.790  -5.558 -19.302  1.00  0.00    -0.262 OA
ENDROOT
BRANCH  10  18
HETATM   18  N3  UNL     1       9.183  -6.489 -12.991  1.00  0.00    -0.096 N 
ATOM     19  H3  UNL     1       8.721  -6.783 -12.132  1.00  0.00     0.213 HD
BRANCH  18  20
HETATM   20  O3  UNL     1      10.404  -5.881 -12.939  1.00  0.00    -0.263 OA
BRANCH  20  21
HETATM   21  C5  UNL     1      11.542  -6.535 -12.468  1.00  0.00     0.244 C 
BRANCH  21  22
HETATM   22  C6  UNL     1      12.603  -6.446 -13.570  1.00  0.00     0.123 C 
BRANCH  22  23
HETATM   23  O4  UNL     1      13.801  -6.161 -12.956  1.00  0.00    -0.383 OA
ATOM     24  H4  UNL     1      14.303  -6.967 -12.935  1.00  0.00     0.210 HD
ENDBRANCH  22  23
BRANCH  22  25
HETATM   25  C7  UNL     1      12.609  -7.788 -14.266  1.00  0.00     0.206 C 
BRANCH  25  26
HETATM   26  O5  UNL     1      11.409  -8.451 -14.191  1.00  0.00    -0.398 OA
ATOM     27  H5  UNL     1      11.418  -9.189 -13.593  1.00  0.00     0.209 HD
ENDBRANCH  25  26
ENDBRANCH  22  25
BRANCH  22  28
HETATM   28  C8  UNL     1      12.262  -5.312 -14.500  1.00  0.00     0.206 C 
BRANCH  28  29
HETATM   29  O6  UNL     1      11.371  -5.816 -15.451  1.00  0.00    -0.398 OA
ATOM     30  H6  UNL     1      11.655  -6.697 -15.660  1.00  0.00     0.209 HD
ENDBRANCH  28  29
ENDBRANCH  22  28
ENDBRANCH  21  22
ENDBRANCH  20  21
ENDBRANCH  18  20
ENDBRANCH  10  18
TORSDOF 9
ENDMDL
