MODEL 1
REMARK VINA RESULT: -7.430005851      0.000      0.000
REMARK  11 active torsions:
REMARK  status: ('A' for Active; 'I' for Inactive)
REMARK    1  A    between atoms: N1_1  and  C1_4 
REMARK    2  A    between atoms: C2_7  and  N3_8 
REMARK    3  A    between atoms: N3_8  and  C3_10 
REMARK    4  A    between atoms: C3_10  and  C4_11 
REMARK    5  A    between atoms: C6_16  and  N5_17 
REMARK    6  A    between atoms: N5_17  and  O2_19 
REMARK    7  A    between atoms: O2_19  and  N6_20 
REMARK    8  A    between atoms: C7_25  and  N8_26 
REMARK    9  A    between atoms: N8_26  and  C8_28 
REMARK   10  A    between atoms: C8_28  and  C9_29 
REMARK   11  A    between atoms: C9_29  and  O3_30 
ROOT
HETATM    1  C1  UNL     1       8.236  -8.383 -12.161  1.00  0.00     0.144 A 
HETATM    2  N2  UNL     1       7.523  -7.252 -11.886  1.00  0.00    -0.175 N 
ATOM      3  H2  UNL     1       6.620  -7.356 -11.424  1.00  0.00     0.186 HD
HETATM    4  C2  UNL     1       7.931  -6.032 -12.183  1.00  0.00     0.680 A 
HETATM    5  N4  UNL     1       9.113  -5.854 -12.792  1.00  0.00    -0.186 N 
ATOM      6  H4  UNL     1       9.439  -4.916 -13.026  1.00  0.00     0.184 HD
HETATM    7  C5  UNL     1       9.875  -6.947 -13.093  1.00  0.00     0.126 A 
HETATM    8  C6  UNL     1      11.098  -6.732 -13.725  1.00  0.00     0.172 A 
HETATM    9  N7  UNL     1      11.861  -7.793 -14.030  1.00  0.00    -0.173 N 
ATOM     10  H7  UNL     1      12.760  -7.664 -14.493  1.00  0.00     0.186 HD
HETATM   11  C7  UNL     1      11.434  -9.017 -13.722  1.00  0.00     0.680 A 
HETATM   12  N9  UNL     1      10.249  -9.257 -13.108  1.00  0.00    -0.186 N 
ATOM     13  H9  UNL     1       9.965 -10.213 -12.892  1.00  0.00     0.184 HD
HETATM   14  C10 UNL     1       9.454  -8.222 -12.786  1.00  0.00     0.124 A 
ENDROOT
BRANCH   8  15
HETATM   15  N5  UNL     1      11.441  -5.536 -13.987  1.00  0.00    -0.223 N 
ATOM     16  H5  UNL     1      11.154  -5.160 -14.891  1.00  0.00     0.198 HD
BRANCH  15  17
HETATM   17  O2  UNL     1      12.152  -4.716 -13.180  1.00  0.00    -0.162 OA
BRANCH  17  18
HETATM   18  N6  UNL     1      13.311  -4.080 -13.525  1.00  0.00    -0.286 N 
ATOM     19  H62 UNL     1      13.525  -4.040 -14.522  1.00  0.00     0.186 HD
ATOM     20  H61 UNL     1      13.966  -3.652 -12.870  1.00  0.00     0.186 HD
ENDBRANCH  17  18
ENDBRANCH  15  17
ENDBRANCH   8  15
BRANCH  11  21
HETATM   21  N8  UNL     1      12.149 -10.037 -14.007  1.00  0.00    -0.224 N 
ATOM     22  H8  UNL     1      12.777  -9.953 -14.806  1.00  0.00     0.177 HD
BRANCH  21  23
HETATM   23  C8  UNL     1      12.151 -11.282 -13.311  1.00  0.00     0.164 C 
BRANCH  23  24
HETATM   24  C9  UNL     1      12.868 -11.060 -11.976  1.00  0.00     0.184 C 
BRANCH  24  25
HETATM   25  O3  UNL     1      11.867 -11.031 -10.996  1.00  0.00    -0.399 OA
ATOM     26  H3  UNL     1      11.303 -10.298 -11.217  1.00  0.00     0.209 HD
ENDBRANCH  24  25
ENDBRANCH  23  24
ENDBRANCH  21  23
ENDBRANCH  11  21
BRANCH   4  27
HETATM   27  N3  UNL     1       7.236  -4.996 -11.910  1.00  0.00    -0.220 N 
ATOM     28  H3  UNL     1       7.097  -4.293 -12.636  1.00  0.00     0.178 HD
BRANCH  27  29
HETATM   29  C3  UNL     1       6.636  -4.782 -10.608  1.00  0.00     0.207 C 
BRANCH  29  30
HETATM   30  C4  UNL     1       5.235  -4.283 -10.743  1.00  0.00     0.251 C 
HETATM   31  O1  UNL     1       4.327  -5.044 -10.928  1.00  0.00    -0.305 OA
ENDBRANCH  29  30
ENDBRANCH  27  29
ENDBRANCH   4  27
BRANCH   1  32
HETATM   32  N1  UNL     1       7.777  -9.537 -11.842  1.00  0.00    -0.383 N 
ATOM     33  H12 UNL     1       7.421 -10.192 -12.538  1.00  0.00     0.157 HD
ATOM     34  H11 UNL     1       7.756  -9.836 -10.867  1.00  0.00     0.157 HD
ENDBRANCH   1  32
TORSDOF 11
ENDMDL
MODEL 2
REMARK VINA RESULT: -7.209425156      2.901      5.782
REMARK  11 active torsions:
REMARK  status: ('A' for Active; 'I' for Inactive)
REMARK    1  A    between atoms: N1_1  and  C1_4 
REMARK    2  A    between atoms: C2_7  and  N3_8 
REMARK    3  A    between atoms: N3_8  and  C3_10 
REMARK    4  A    between atoms: C3_10  and  C4_11 
REMARK    5  A    between atoms: C6_16  and  N5_17 
REMARK    6  A    between atoms: N5_17  and  O2_19 
REMARK    7  A    between atoms: O2_19  and  N6_20 
REMARK    8  A    between atoms: C7_25  and  N8_26 
REMARK    9  A    between atoms: N8_26  and  C8_28 
REMARK   10  A    between atoms: C8_28  and  C9_29 
REMARK   11  A    between atoms: C9_29  and  O3_30 
ROOT
HETATM    1  C1  UNL     1       9.579  -8.837 -11.811  1.00  0.00     0.144 A 
HETATM    2  N2  UNL     1      10.665  -9.399 -11.203  1.00  0.00    -0.175 N 
ATOM      3  H2  UNL     1      10.500 -10.041 -10.428  1.00  0.00     0.186 HD
HETATM    4  C2  UNL     1      11.914  -9.160 -11.556  1.00  0.00     0.680 A 
HETATM    5  N4  UNL     1      12.171  -8.321 -12.571  1.00  0.00    -0.186 N 
ATOM      6  H4  UNL     1      13.133  -8.129 -12.853  1.00  0.00     0.184 HD
HETATM    7  C5  UNL     1      11.127  -7.727 -13.221  1.00  0.00     0.126 A 
HETATM    8  C6  UNL     1      11.424  -6.860 -14.271  1.00  0.00     0.172 A 
HETATM    9  N7  UNL     1      10.412  -6.267 -14.922  1.00  0.00    -0.173 N 
ATOM     10  H7  UNL     1      10.601  -5.627 -15.694  1.00  0.00     0.186 HD
HETATM   11  C7  UNL     1       9.158  -6.519 -14.552  1.00  0.00     0.680 A 
HETATM   12  N9  UNL     1       8.838  -7.358 -13.535  1.00  0.00    -0.186 N 
ATOM     13  H9  UNL     1       7.861  -7.520 -13.289  1.00  0.00     0.184 HD
HETATM   14  C10 UNL     1       9.821  -7.972 -12.856  1.00  0.00     0.124 A 
ENDROOT
BRANCH   8  15
HETATM   15  N5  UNL     1      12.645  -6.667 -14.569  1.00  0.00    -0.223 N 
ATOM     16  H5  UNL     1      13.011  -7.176 -15.373  1.00  0.00     0.198 HD
BRANCH  15  17
HETATM   17  O2  UNL     1      13.504  -5.850 -13.918  1.00  0.00    -0.162 OA
BRANCH  17  18
HETATM   18  N6  UNL     1      13.502  -4.485 -13.990  1.00  0.00    -0.286 N 
ATOM     19  H62 UNL     1      13.756  -4.080 -14.892  1.00  0.00     0.186 HD
ATOM     20  H61 UNL     1      13.269  -3.855 -13.222  1.00  0.00     0.186 HD
ENDBRANCH  17  18
ENDBRANCH  15  17
ENDBRANCH   8  15
BRANCH  11  21
HETATM   21  N8  UNL     1       8.183  -5.961 -15.162  1.00  0.00    -0.224 N 
ATOM     22  H8  UNL     1       7.665  -5.247 -14.650  1.00  0.00     0.177 HD
BRANCH  21  23
HETATM   23  C8  UNL     1       7.753  -6.243 -16.493  1.00  0.00     0.164 C 
BRANCH  23  24
HETATM   24  C9  UNL     1       7.053  -7.605 -16.470  1.00  0.00     0.184 C 
BRANCH  24  25
HETATM   25  O3  UNL     1       7.014  -8.045 -17.800  1.00  0.00    -0.399 OA
ATOM     26  H3  UNL     1       7.395  -8.915 -17.801  1.00  0.00     0.209 HD
ENDBRANCH  24  25
ENDBRANCH  23  24
ENDBRANCH  21  23
ENDBRANCH  11  21
BRANCH   4  27
HETATM   27  N3  UNL     1      12.905  -9.705 -10.963  1.00  0.00    -0.220 N 
ATOM     28  H3  UNL     1      13.641  -9.107 -10.588  1.00  0.00     0.178 HD
BRANCH  27  29
HETATM   29  C3  UNL     1      13.024 -11.140 -10.801  1.00  0.00     0.207 C 
BRANCH  29  30
HETATM   30  C4  UNL     1      13.115 -11.819 -12.128  1.00  0.00     0.251 C 
HETATM   31  O1  UNL     1      14.054 -12.513 -12.399  1.00  0.00    -0.305 OA
ENDBRANCH  29  30
ENDBRANCH  27  29
ENDBRANCH   4  27
BRANCH   1  32
HETATM   32  N1  UNL     1       8.392  -9.116 -11.414  1.00  0.00    -0.383 N 
ATOM     33  H12 UNL     1       7.738  -8.397 -11.105  1.00  0.00     0.157 HD
ATOM     34  H11 UNL     1       8.064 -10.082 -11.397  1.00  0.00     0.157 HD
ENDBRANCH   1  32
TORSDOF 11
ENDMDL
MODEL 3
REMARK VINA RESULT: -7.206023966      2.616      6.217
REMARK  11 active torsions:
REMARK  status: ('A' for Active; 'I' for Inactive)
REMARK    1  A    between atoms: N1_1  and  C1_4 
REMARK    2  A    between atoms: C2_7  and  N3_8 
REMARK    3  A    between atoms: N3_8  and  C3_10 
REMARK    4  A    between atoms: C3_10  and  C4_11 
REMARK    5  A    between atoms: C6_16  and  N5_17 
REMARK    6  A    between atoms: N5_17  and  O2_19 
REMARK    7  A    between atoms: O2_19  and  N6_20 
REMARK    8  A    between atoms: C7_25  and  N8_26 
REMARK    9  A    between atoms: N8_26  and  C8_28 
REMARK   10  A    between atoms: C8_28  and  C9_29 
REMARK   11  A    between atoms: C9_29  and  O3_30 
ROOT
HETATM    1  C1  UNL     1      10.905  -7.414 -11.782  1.00  0.00     0.144 A 
HETATM    2  N2  UNL     1      11.867  -7.388 -12.750  1.00  0.00    -0.175 N 
ATOM      3  H2  UNL     1      12.802  -7.714 -12.505  1.00  0.00     0.186 HD
HETATM    4  C2  UNL     1      11.661  -6.965 -13.984  1.00  0.00     0.680 A 
HETATM    5  N4  UNL     1      10.445  -6.529 -14.345  1.00  0.00    -0.186 N 
ATOM      6  H4  UNL     1      10.274  -6.200 -15.295  1.00  0.00     0.184 HD
HETATM    7  C5  UNL     1       9.440  -6.530 -13.421  1.00  0.00     0.126 A 
HETATM    8  C6  UNL     1       8.187  -6.072 -13.825  1.00  0.00     0.172 A 
HETATM    9  N7  UNL     1       7.185  -6.065 -12.931  1.00  0.00    -0.173 N 
ATOM     10  H7  UNL     1       6.259  -5.734 -13.200  1.00  0.00     0.186 HD
HETATM   11  C7  UNL     1       7.411  -6.495 -11.691  1.00  0.00     0.680 A 
HETATM   12  N9  UNL     1       8.618  -6.948 -11.270  1.00  0.00    -0.186 N 
ATOM     13  H9  UNL     1       8.742  -7.268 -10.309  1.00  0.00     0.184 HD
HETATM   14  C10 UNL     1       9.649  -6.970 -12.132  1.00  0.00     0.124 A 
ENDROOT
BRANCH   8  15
HETATM   15  N5  UNL     1       8.045  -5.677 -15.025  1.00  0.00    -0.223 N 
ATOM     16  H5  UNL     1       7.817  -4.692 -15.163  1.00  0.00     0.198 HD
BRANCH  15  17
HETATM   17  O2  UNL     1       8.167  -6.440 -16.134  1.00  0.00    -0.162 OA
BRANCH  17  18
HETATM   18  N6  UNL     1       7.815  -7.757 -16.228  1.00  0.00    -0.286 N 
ATOM     19  H62 UNL     1       6.929  -8.020 -15.794  1.00  0.00     0.186 HD
ATOM     20  H61 UNL     1       8.363  -8.482 -16.691  1.00  0.00     0.186 HD
ENDBRANCH  17  18
ENDBRANCH  15  17
ENDBRANCH   8  15
BRANCH  11  21
HETATM   21  N8  UNL     1       6.467  -6.495 -10.829  1.00  0.00    -0.224 N 
ATOM     22  H8  UNL     1       6.494  -7.221 -10.113  1.00  0.00     0.177 HD
BRANCH  21  23
HETATM   23  C8  UNL     1       5.379  -5.574 -10.775  1.00  0.00     0.164 C 
BRANCH  23  24
HETATM   24  C9  UNL     1       5.950  -4.214 -10.363  1.00  0.00     0.184 C 
BRANCH  24  25
HETATM   25  O3  UNL     1       5.977  -3.435 -11.528  1.00  0.00    -0.399 OA
ATOM     26  H3  UNL     1       5.912  -2.531 -11.242  1.00  0.00     0.209 HD
ENDBRANCH  24  25
ENDBRANCH  23  24
ENDBRANCH  21  23
ENDBRANCH  11  21
BRANCH   4  27
HETATM   27  N3  UNL     1      12.587  -6.956 -14.863  1.00  0.00    -0.220 N 
ATOM     28  H3  UNL     1      12.972  -7.845 -15.179  1.00  0.00     0.178 HD
BRANCH  27  29
HETATM   29  C3  UNL     1      13.111  -5.729 -15.430  1.00  0.00     0.207 C 
BRANCH  29  30
HETATM   30  C4  UNL     1      13.374  -4.719 -14.361  1.00  0.00     0.251 C 
HETATM   31  O1  UNL     1      14.040  -4.998 -13.404  1.00  0.00    -0.305 OA
ENDBRANCH  29  30
ENDBRANCH  27  29
ENDBRANCH   4  27
BRANCH   1  32
HETATM   32  N1  UNL     1      11.177  -7.839 -10.603  1.00  0.00    -0.383 N 
ATOM     33  H12 UNL     1      11.545  -8.775 -10.432  1.00  0.00     0.157 HD
ATOM     34  H11 UNL     1      11.031  -7.241  -9.790  1.00  0.00     0.157 HD
ENDBRANCH   1  32
TORSDOF 11
ENDMDL
MODEL 4
REMARK VINA RESULT: -7.169663090      3.438      3.944
REMARK  11 active torsions:
REMARK  status: ('A' for Active; 'I' for Inactive)
REMARK    1  A    between atoms: N1_1  and  C1_4 
REMARK    2  A    between atoms: C2_7  and  N3_8 
REMARK    3  A    between atoms: N3_8  and  C3_10 
REMARK    4  A    between atoms: C3_10  and  C4_11 
REMARK    5  A    between atoms: C6_16  and  N5_17 
REMARK    6  A    between atoms: N5_17  and  O2_19 
REMARK    7  A    between atoms: O2_19  and  N6_20 
REMARK    8  A    between atoms: C7_25  and  N8_26 
REMARK    9  A    between atoms: N8_26  and  C8_28 
REMARK   10  A    between atoms: C8_28  and  C9_29 
REMARK   11  A    between atoms: C9_29  and  O3_30 
ROOT
HETATM    1  C1  UNL     1       9.146  -9.286 -12.219  1.00  0.00     0.144 A 
HETATM    2  N2  UNL     1       8.494  -8.797 -13.314  1.00  0.00    -0.175 N 
ATOM      3  H2  UNL     1       7.482  -8.915 -13.360  1.00  0.00     0.186 HD
HETATM    4  C2  UNL     1       9.093  -8.182 -14.317  1.00  0.00     0.680 A 
HETATM    5  N4  UNL     1      10.424  -8.008 -14.292  1.00  0.00    -0.186 N 
ATOM      6  H4  UNL     1      10.898  -7.534 -15.061  1.00  0.00     0.184 HD
HETATM    7  C5  UNL     1      11.134  -8.475 -13.223  1.00  0.00     0.126 A 
HETATM    8  C6  UNL     1      12.514  -8.280 -13.225  1.00  0.00     0.172 A 
HETATM    9  N7  UNL     1      13.229  -8.732 -12.183  1.00  0.00    -0.173 N 
ATOM     10  H7  UNL     1      14.241  -8.604 -12.160  1.00  0.00     0.186 HD
HETATM   11  C7  UNL     1      12.607  -9.351 -11.181  1.00  0.00     0.680 A 
HETATM   12  N9  UNL     1      11.267  -9.555 -11.151  1.00  0.00    -0.186 N 
ATOM     13  H9  UNL     1      10.836 -10.033 -10.360  1.00  0.00     0.184 HD
HETATM   14  C10 UNL     1      10.513  -9.118 -12.175  1.00  0.00     0.124 A 
ENDROOT
BRANCH   8  15
HETATM   15  N5  UNL     1      13.038  -7.681 -14.216  1.00  0.00    -0.223 N 
ATOM     16  H5  UNL     1      13.315  -8.258 -15.011  1.00  0.00     0.198 HD
BRANCH  15  17
HETATM   17  O2  UNL     1      13.264  -6.352 -14.314  1.00  0.00    -0.162 OA
BRANCH  17  18
HETATM   18  N6  UNL     1      13.118  -5.609 -15.451  1.00  0.00    -0.286 N 
ATOM     19  H62 UNL     1      13.934  -5.074 -15.750  1.00  0.00     0.186 HD
ATOM     20  H61 UNL     1      12.267  -5.551 -16.012  1.00  0.00     0.186 HD
ENDBRANCH  17  18
ENDBRANCH  15  17
ENDBRANCH   8  15
BRANCH  11  21
HETATM   21  N8  UNL     1      13.276  -9.787 -10.182  1.00  0.00    -0.224 N 
ATOM     22  H8  UNL     1      13.657  -9.091  -9.541  1.00  0.00     0.177 HD
BRANCH  21  23
HETATM   23  C8  UNL     1      13.539 -11.156  -9.881  1.00  0.00     0.164 C 
BRANCH  23  24
HETATM   24  C9  UNL     1      14.490 -11.187  -8.681  1.00  0.00     0.184 C 
BRANCH  24  25
HETATM   25  O3  UNL     1      15.533 -12.055  -9.034  1.00  0.00    -0.399 OA
ATOM     26  H3  UNL     1      16.300 -11.750  -8.564  1.00  0.00     0.209 HD
ENDBRANCH  24  25
ENDBRANCH  23  24
ENDBRANCH  21  23
ENDBRANCH  11  21
BRANCH   4  27
HETATM   27  N3  UNL     1       8.449  -7.737 -15.325  1.00  0.00    -0.220 N 
ATOM     28  H3  UNL     1       8.813  -6.922 -15.819  1.00  0.00     0.178 HD
BRANCH  27  29
HETATM   29  C3  UNL     1       7.221  -8.346 -15.796  1.00  0.00     0.207 C 
BRANCH  29  30
HETATM   30  C4  UNL     1       7.434  -9.032 -17.105  1.00  0.00     0.251 C 
HETATM   31  O1  UNL     1       7.733 -10.192 -17.148  1.00  0.00    -0.305 OA
ENDBRANCH  29  30
ENDBRANCH  27  29
ENDBRANCH   4  27
BRANCH   1  32
HETATM   32  N1  UNL     1       8.497  -9.874 -11.282  1.00  0.00    -0.383 N 
ATOM     33  H12 UNL     1       8.127  -9.369 -10.477  1.00  0.00     0.157 HD
ATOM     34  H11 UNL     1       8.332 -10.880 -11.317  1.00  0.00     0.157 HD
ENDBRANCH   1  32
TORSDOF 11
ENDMDL
MODEL 5
REMARK VINA RESULT: -7.145184467      2.672      3.140
REMARK  11 active torsions:
REMARK  status: ('A' for Active; 'I' for Inactive)
REMARK    1  A    between atoms: N1_1  and  C1_4 
REMARK    2  A    between atoms: C2_7  and  N3_8 
REMARK    3  A    between atoms: N3_8  and  C3_10 
REMARK    4  A    between atoms: C3_10  and  C4_11 
REMARK    5  A    between atoms: C6_16  and  N5_17 
REMARK    6  A    between atoms: N5_17  and  O2_19 
REMARK    7  A    between atoms: O2_19  and  N6_20 
REMARK    8  A    between atoms: C7_25  and  N8_26 
REMARK    9  A    between atoms: N8_26  and  C8_28 
REMARK   10  A    between atoms: C8_28  and  C9_29 
REMARK   11  A    between atoms: C9_29  and  O3_30 
ROOT
HETATM    1  C1  UNL     1       9.011  -7.728 -12.343  1.00  0.00     0.144 A 
HETATM    2  N2  UNL     1       8.306  -6.998 -13.255  1.00  0.00    -0.175 N 
ATOM      3  H2  UNL     1       7.306  -6.869 -13.096  1.00  0.00     0.186 HD
HETATM    4  C2  UNL     1       8.838  -6.448 -14.332  1.00  0.00     0.680 A 
HETATM    5  N4  UNL     1      10.149  -6.595 -14.576  1.00  0.00    -0.186 N 
ATOM      6  H4  UNL     1      10.571  -6.175 -15.404  1.00  0.00     0.184 HD
HETATM    7  C5  UNL     1      10.909  -7.315 -13.701  1.00  0.00     0.126 A 
HETATM    8  C6  UNL     1      12.268  -7.451 -13.980  1.00  0.00     0.172 A 
HETATM    9  N7  UNL     1      13.033  -8.155 -13.131  1.00  0.00    -0.173 N 
ATOM     10  H7  UNL     1      14.030  -8.271 -13.312  1.00  0.00     0.186 HD
HETATM   11  C7  UNL     1      12.479  -8.703 -12.051  1.00  0.00     0.680 A 
HETATM   12  N9  UNL     1      11.161  -8.587 -11.752  1.00  0.00    -0.186 N 
ATOM     13  H9  UNL     1      10.783  -9.024 -10.911  1.00  0.00     0.184 HD
HETATM   14  C10 UNL     1      10.359  -7.891 -12.576  1.00  0.00     0.124 A 
ENDROOT
BRANCH   8  15
HETATM   15  N5  UNL     1      12.728  -6.901 -15.030  1.00  0.00    -0.223 N 
ATOM     16  H5  UNL     1      12.983  -7.518 -15.801  1.00  0.00     0.198 HD
BRANCH  15  17
HETATM   17  O2  UNL     1      12.910  -5.574 -15.219  1.00  0.00    -0.162 OA
BRANCH  17  18
HETATM   18  N6  UNL     1      13.452  -4.714 -14.306  1.00  0.00    -0.286 N 
ATOM     19  H62 UNL     1      14.180  -5.097 -13.702  1.00  0.00     0.186 HD
ATOM     20  H61 UNL     1      13.185  -3.736 -14.187  1.00  0.00     0.186 HD
ENDBRANCH  17  18
ENDBRANCH  15  17
ENDBRANCH   8  15
BRANCH  11  21
HETATM   21  N8  UNL     1      13.195  -9.377 -11.233  1.00  0.00    -0.224 N 
ATOM     22  H8  UNL     1      14.023  -8.916 -10.856  1.00  0.00     0.177 HD
BRANCH  21  23
HETATM   23  C8  UNL     1      12.944 -10.712 -10.800  1.00  0.00     0.164 C 
BRANCH  23  24
HETATM   24  C9  UNL     1      13.032 -11.618 -12.032  1.00  0.00     0.184 C 
BRANCH  24  25
HETATM   25  O3  UNL     1      14.310 -12.194 -12.001  1.00  0.00    -0.399 OA
ATOM     26  H3  UNL     1      14.329 -12.751 -11.232  1.00  0.00     0.209 HD
ENDBRANCH  24  25
ENDBRANCH  23  24
ENDBRANCH  21  23
ENDBRANCH  11  21
BRANCH   4  27
HETATM   27  N3  UNL     1       8.145  -5.770 -15.163  1.00  0.00    -0.220 N 
ATOM     28  H3  UNL     1       7.825  -4.841 -14.892  1.00  0.00     0.178 HD
BRANCH  27  29
HETATM   29  C3  UNL     1       7.796  -6.272 -16.478  1.00  0.00     0.207 C 
BRANCH  29  30
HETATM   30  C4  UNL     1       6.944  -7.493 -16.372  1.00  0.00     0.251 C 
HETATM   31  O1  UNL     1       7.348  -8.557 -16.749  1.00  0.00    -0.305 OA
ENDBRANCH  29  30
ENDBRANCH  27  29
ENDBRANCH   4  27
BRANCH   1  32
HETATM   32  N1  UNL     1       8.427  -8.233 -11.319  1.00  0.00    -0.383 N 
ATOM     33  H12 UNL     1       8.275  -9.236 -11.218  1.00  0.00     0.157 HD
ATOM     34  H11 UNL     1       8.094  -7.633 -10.564  1.00  0.00     0.157 HD
ENDBRANCH   1  32
TORSDOF 11
ENDMDL
