MODEL 1
REMARK VINA RESULT: -5.752310401      0.000      0.000
REMARK  17 active torsions:
REMARK  status: ('A' for Active; 'I' for Inactive)
REMARK    1  A    between atoms: O1_2  and  C2_3 
REMARK    2  A    between atoms: C2_3  and  O2_4 
REMARK    3  A    between atoms: O2_4  and  C3_5 
REMARK    4  A    between atoms: C5_8  and  O4_9 
REMARK    5  A    between atoms: O4_9  and  C6_10 
REMARK    6  A    between atoms: C11_17  and  O7_18 
REMARK    7  A    between atoms: C12_20  and  O8_21 
REMARK    8  A    between atoms: O8_21  and  C13_22 
REMARK    9  A    between atoms: C16_26  and  O10_27 
REMARK   10  A    between atoms: O10_27  and  C17_28 
REMARK   11  A    between atoms: C17_28  and  C18_30 
REMARK   12  A    between atoms: C22_34  and  O12_35 
REMARK   13  A    between atoms: O12_35  and  C23_36 
REMARK   14  A    between atoms: C23_36  and  O14_38 
REMARK   15  A    between atoms: O14_38  and  N1_39 
REMARK   16  A    between atoms: N1_39  and  C24_41 
REMARK   17  A    between atoms: C27_48  and  O16_49 
ROOT
HETATM    1  C2  UNL     1      19.457   4.303  27.517  1.00  0.00     0.232 C 
HETATM    2  C5  UNL     1      18.830   5.650  27.801  1.00  0.00     0.204 C 
HETATM    3  C8  UNL     1      18.693   6.507  26.553  1.00  0.00     0.051 C 
HETATM    4  C9  UNL     1      17.708   7.609  26.866  1.00  0.00     0.015 C 
HETATM    5  C10 UNL     1      19.934   7.019  25.985  1.00  0.00     0.196 A 
HETATM    6  O6  UNL     1      20.256   8.376  25.840  1.00  0.00    -0.339 OA
HETATM    7  C11 UNL     1      20.940   7.644  26.813  1.00  0.00     0.217 A 
HETATM    8  C12 UNL     1      22.279   7.038  26.474  1.00  0.00     0.199 C 
HETATM    9  C15 UNL     1      23.064   6.535  27.594  1.00  0.00     0.071 C 
HETATM   10  C16 UNL     1      22.409   5.705  28.659  1.00  0.00     0.144 C 
HETATM   11  C21 UNL     1      21.951   4.340  28.237  1.00  0.00     0.093 C 
HETATM   12  C22 UNL     1      22.604   3.383  29.272  1.00  0.00     0.213 C 
HETATM   13  C25 UNL     1      21.630   3.533  30.372  1.00  0.00     0.160 C 
HETATM   14  O15 UNL     1      21.766   3.151  31.506  1.00  0.00    -0.295 OA
HETATM   15  C26 UNL     1      20.380   4.249  29.906  1.00  0.00     0.125 C 
HETATM   16  C27 UNL     1      20.553   3.949  28.459  1.00  0.00     0.132 C 
ENDROOT
BRANCH  12  17
HETATM   17  O12 UNL     1      22.774   2.106  28.779  1.00  0.00    -0.283 OA
BRANCH  17  18
HETATM   18  C23 UNL     1      23.949   1.435  28.864  1.00  0.00     0.429 C 
HETATM   19  O13 UNL     1      23.985   0.375  29.549  1.00  0.00    -0.227 OA
BRANCH  18  20
HETATM   20  O14 UNL     1      25.142   1.818  28.255  1.00  0.00    -0.174 OA
BRANCH  20  21
HETATM   21  N1  UNL     1      25.768   2.996  28.640  1.00  0.00    -0.252 N 
ATOM     22  H1  UNL     1      25.800   3.772  27.979  1.00  0.00     0.195 HD
BRANCH  21  23
HETATM   23  C24 UNL     1      26.365   3.162  29.915  1.00  0.00     0.198 C 
HETATM   24  N2  UNL     1      25.892   3.946  30.830  1.00  0.00    -0.394 N 
ATOM     25  H22 UNL     1      25.042   4.464  30.605  1.00  0.00     0.156 HD
ATOM     26  H21 UNL     1      26.321   4.066  31.747  1.00  0.00     0.156 HD
ENDBRANCH  21  23
ENDBRANCH  20  21
ENDBRANCH  18  20
ENDBRANCH  17  18
ENDBRANCH  12  17
BRANCH  10  27
HETATM   27  O10 UNL     1      23.471   5.658  29.642  1.00  0.00    -0.315 OA
BRANCH  27  28
HETATM   28  C17 UNL     1      23.633   6.572  30.619  1.00  0.00     0.262 C 
HETATM   29  O11 UNL     1      24.788   6.821  31.044  1.00  0.00    -0.265 OA
BRANCH  28  30
HETATM   30  C18 UNL     1      22.411   7.259  31.161  1.00  0.00     0.077 C 
HETATM   31  C19 UNL     1      21.991   6.664  32.478  1.00  0.00     0.020 C 
HETATM   32  C20 UNL     1      22.732   8.728  31.267  1.00  0.00     0.020 C 
ENDBRANCH  28  30
ENDBRANCH  27  28
ENDBRANCH  10  27
BRANCH  16  33
HETATM   33  O16 UNL     1      20.515   2.524  28.589  1.00  0.00    -0.383 OA
ATOM     34  H16 UNL     1      19.993   2.345  29.363  1.00  0.00     0.210 HD
ENDBRANCH  16  33
BRANCH   1  35
HETATM   35  O1  UNL     1      18.518   3.318  27.633  1.00  0.00    -0.355 OA
HETATM   36  C1  UNL     1      17.312   3.307  27.143  1.00  0.00     0.205 C 
ENDBRANCH   1  35
BRANCH   1  37
HETATM   37  O2  UNL     1      19.879   4.366  26.182  1.00  0.00    -0.277 OA
BRANCH  37  38
HETATM   38  C3  UNL     1      19.944   3.422  25.225  1.00  0.00     0.257 C 
HETATM   39  C4  UNL     1      20.845   2.233  25.250  1.00  0.00     0.126 C 
HETATM   40  O3  UNL     1      19.205   3.545  24.254  1.00  0.00    -0.266 OA
ENDBRANCH  37  38
ENDBRANCH   1  37
BRANCH   8  41
HETATM   41  O8  UNL     1      23.096   7.946  25.740  1.00  0.00    -0.311 OA
BRANCH  41  42
HETATM   42  C13 UNL     1      23.029   8.113  24.375  1.00  0.00     0.255 C 
HETATM   43  C14 UNL     1      23.298   9.441  23.773  1.00  0.00     0.126 C 
HETATM   44  O9  UNL     1      22.735   7.094  23.706  1.00  0.00    -0.266 OA
ENDBRANCH  41  42
ENDBRANCH   8  41
BRANCH   2  45
HETATM   45  O4  UNL     1      17.564   5.633  28.390  1.00  0.00    -0.310 OA
BRANCH  45  46
HETATM   46  C6  UNL     1      17.233   5.802  29.703  1.00  0.00     0.255 C 
HETATM   47  C7  UNL     1      17.761   6.909  30.552  1.00  0.00     0.126 C 
HETATM   48  O5  UNL     1      16.443   4.984  30.227  1.00  0.00    -0.266 OA
ENDBRANCH  45  46
ENDBRANCH   2  45
BRANCH   7  49
HETATM   49  O7  UNL     1      20.727   8.250  28.022  1.00  0.00    -0.361 OA
ATOM     50  H7  UNL     1      19.885   8.508  28.378  1.00  0.00     0.213 HD
ENDBRANCH   7  49
TORSDOF 17
ENDMDL
MODEL 2
REMARK VINA RESULT: -5.676916934      2.329      3.707
REMARK  17 active torsions:
REMARK  status: ('A' for Active; 'I' for Inactive)
REMARK    1  A    between atoms: O1_2  and  C2_3 
REMARK    2  A    between atoms: C2_3  and  O2_4 
REMARK    3  A    between atoms: O2_4  and  C3_5 
REMARK    4  A    between atoms: C5_8  and  O4_9 
REMARK    5  A    between atoms: O4_9  and  C6_10 
REMARK    6  A    between atoms: C11_17  and  O7_18 
REMARK    7  A    between atoms: C12_20  and  O8_21 
REMARK    8  A    between atoms: O8_21  and  C13_22 
REMARK    9  A    between atoms: C16_26  and  O10_27 
REMARK   10  A    between atoms: O10_27  and  C17_28 
REMARK   11  A    between atoms: C17_28  and  C18_30 
REMARK   12  A    between atoms: C22_34  and  O12_35 
REMARK   13  A    between atoms: O12_35  and  C23_36 
REMARK   14  A    between atoms: C23_36  and  O14_38 
REMARK   15  A    between atoms: O14_38  and  N1_39 
REMARK   16  A    between atoms: N1_39  and  C24_41 
REMARK   17  A    between atoms: C27_48  and  O16_49 
ROOT
HETATM    1  C2  UNL     1      20.208   4.895  30.935  1.00  0.00     0.232 C 
HETATM    2  C5  UNL     1      20.067   6.400  30.950  1.00  0.00     0.204 C 
HETATM    3  C8  UNL     1      18.953   6.894  30.040  1.00  0.00     0.051 C 
HETATM    4  C9  UNL     1      18.634   8.315  30.443  1.00  0.00     0.015 C 
HETATM    5  C10 UNL     1      19.191   6.765  28.608  1.00  0.00     0.196 A 
HETATM    6  O6  UNL     1      19.240   7.831  27.698  1.00  0.00    -0.339 OA
HETATM    7  C11 UNL     1      20.437   7.186  28.009  1.00  0.00     0.217 A 
HETATM    8  C12 UNL     1      20.933   6.078  27.112  1.00  0.00     0.199 C 
HETATM    9  C15 UNL     1      22.306   5.639  27.323  1.00  0.00     0.071 C 
HETATM   10  C16 UNL     1      22.815   5.404  28.715  1.00  0.00     0.144 C 
HETATM   11  C21 UNL     1      22.224   4.230  29.440  1.00  0.00     0.093 C 
HETATM   12  C22 UNL     1      23.457   3.409  29.905  1.00  0.00     0.213 C 
HETATM   13  C25 UNL     1      23.801   4.175  31.119  1.00  0.00     0.160 C 
HETATM   14  O15 UNL     1      24.814   4.080  31.764  1.00  0.00    -0.295 OA
HETATM   15  C26 UNL     1      22.697   5.140  31.492  1.00  0.00     0.125 C 
HETATM   16  C27 UNL     1      21.611   4.434  30.759  1.00  0.00     0.132 C 
ENDROOT
BRANCH  12  17
HETATM   17  O12 UNL     1      23.166   2.073  30.089  1.00  0.00    -0.283 OA
BRANCH  17  18
HETATM   18  C23 UNL     1      23.476   1.119  29.177  1.00  0.00     0.429 C 
HETATM   19  O13 UNL     1      24.131   0.112  29.563  1.00  0.00    -0.227 OA
BRANCH  18  20
HETATM   20  O14 UNL     1      23.132   1.153  27.827  1.00  0.00    -0.174 OA
BRANCH  20  21
HETATM   21  N1  UNL     1      21.794   1.175  27.456  1.00  0.00    -0.252 N 
ATOM     22  H1  UNL     1      21.155   0.507  27.887  1.00  0.00     0.195 HD
BRANCH  21  23
HETATM   23  C24 UNL     1      21.282   2.088  26.500  1.00  0.00     0.198 C 
HETATM   24  N2  UNL     1      20.134   2.676  26.616  1.00  0.00    -0.394 N 
ATOM     25  H22 UNL     1      19.581   2.459  27.446  1.00  0.00     0.156 HD
ATOM     26  H21 UNL     1      19.765   3.333  25.929  1.00  0.00     0.156 HD
ENDBRANCH  21  23
ENDBRANCH  20  21
ENDBRANCH  18  20
ENDBRANCH  17  18
ENDBRANCH  12  17
BRANCH  10  27
HETATM   27  O10 UNL     1      24.230   5.240  28.451  1.00  0.00    -0.315 OA
BRANCH  27  28
HETATM   28  C17 UNL     1      25.152   6.197  28.676  1.00  0.00     0.262 C 
HETATM   29  O11 UNL     1      26.286   6.094  28.148  1.00  0.00    -0.265 OA
BRANCH  28  30
HETATM   30  C18 UNL     1      24.777   7.354  29.558  1.00  0.00     0.077 C 
HETATM   31  C19 UNL     1      25.696   7.454  30.746  1.00  0.00     0.020 C 
HETATM   32  C20 UNL     1      24.802   8.595  28.703  1.00  0.00     0.020 C 
ENDBRANCH  28  30
ENDBRANCH  27  28
ENDBRANCH  10  27
BRANCH  16  33
HETATM   33  O16 UNL     1      21.714   3.201  31.480  1.00  0.00    -0.383 OA
ATOM     34  H16 UNL     1      21.116   2.597  31.055  1.00  0.00     0.210 HD
ENDBRANCH  16  33
BRANCH   1  35
HETATM   35  O1  UNL     1      19.778   4.373  32.122  1.00  0.00    -0.355 OA
HETATM   36  C1  UNL     1      18.565   4.365  32.595  1.00  0.00     0.205 C 
ENDBRANCH   1  35
BRANCH   1  37
HETATM   37  O2  UNL     1      19.354   4.454  29.915  1.00  0.00    -0.277 OA
BRANCH  37  38
HETATM   38  C3  UNL     1      18.790   3.253  29.684  1.00  0.00     0.257 C 
HETATM   39  C4  UNL     1      17.331   3.013  29.487  1.00  0.00     0.126 C 
HETATM   40  O3  UNL     1      19.531   2.278  29.632  1.00  0.00    -0.266 OA
ENDBRANCH  37  38
ENDBRANCH   1  37
BRANCH   8  41
HETATM   41  O8  UNL     1      20.786   6.413  25.735  1.00  0.00    -0.311 OA
BRANCH  41  42
HETATM   42  C13 UNL     1      20.174   5.602  24.806  1.00  0.00     0.255 C 
HETATM   43  C14 UNL     1      18.718   5.726  24.553  1.00  0.00     0.126 C 
HETATM   44  O9  UNL     1      20.915   4.783  24.211  1.00  0.00    -0.266 OA
ENDBRANCH  41  42
ENDBRANCH   8  41
BRANCH   2  45
HETATM   45  O4  UNL     1      19.827   6.988  32.195  1.00  0.00    -0.310 OA
BRANCH  45  46
HETATM   46  C6  UNL     1      20.718   7.570  33.048  1.00  0.00     0.255 C 
HETATM   47  C7  UNL     1      21.732   8.577  32.621  1.00  0.00     0.126 C 
HETATM   48  O5  UNL     1      20.684   7.245  34.256  1.00  0.00    -0.266 OA
ENDBRANCH  45  46
ENDBRANCH   2  45
BRANCH   7  49
HETATM   49  O7  UNL     1      21.301   8.119  28.516  1.00  0.00    -0.361 OA
ATOM     50  H7  UNL     1      22.228   7.993  28.680  1.00  0.00     0.213 HD
ENDBRANCH   7  49
TORSDOF 17
ENDMDL
MODEL 3
REMARK VINA RESULT: -5.642631190      1.190      1.413
REMARK  17 active torsions:
REMARK  status: ('A' for Active; 'I' for Inactive)
REMARK    1  A    between atoms: O1_2  and  C2_3 
REMARK    2  A    between atoms: C2_3  and  O2_4 
REMARK    3  A    between atoms: O2_4  and  C3_5 
REMARK    4  A    between atoms: C5_8  and  O4_9 
REMARK    5  A    between atoms: O4_9  and  C6_10 
REMARK    6  A    between atoms: C11_17  and  O7_18 
REMARK    7  A    between atoms: C12_20  and  O8_21 
REMARK    8  A    between atoms: O8_21  and  C13_22 
REMARK    9  A    between atoms: C16_26  and  O10_27 
REMARK   10  A    between atoms: O10_27  and  C17_28 
REMARK   11  A    between atoms: C17_28  and  C18_30 
REMARK   12  A    between atoms: C22_34  and  O12_35 
REMARK   13  A    between atoms: O12_35  and  C23_36 
REMARK   14  A    between atoms: C23_36  and  O14_38 
REMARK   15  A    between atoms: O14_38  and  N1_39 
REMARK   16  A    between atoms: N1_39  and  C24_41 
REMARK   17  A    between atoms: C27_48  and  O16_49 
ROOT
HETATM    1  C2  UNL     1      19.671   4.574  27.800  1.00  0.00     0.232 C 
HETATM    2  C5  UNL     1      19.097   5.948  28.058  1.00  0.00     0.204 C 
HETATM    3  C8  UNL     1      18.795   6.708  26.776  1.00  0.00     0.051 C 
HETATM    4  C9  UNL     1      17.869   7.847  27.132  1.00  0.00     0.015 C 
HETATM    5  C10 UNL     1      19.949   7.153  26.006  1.00  0.00     0.196 A 
HETATM    6  O6  UNL     1      20.257   8.490  25.712  1.00  0.00    -0.339 OA
HETATM    7  C11 UNL     1      21.063   7.825  26.637  1.00  0.00     0.217 A 
HETATM    8  C12 UNL     1      22.340   7.173  26.169  1.00  0.00     0.199 C 
HETATM    9  C15 UNL     1      23.268   6.745  27.208  1.00  0.00     0.071 C 
HETATM   10  C16 UNL     1      22.759   6.011  28.415  1.00  0.00     0.144 C 
HETATM   11  C21 UNL     1      22.241   4.625  28.169  1.00  0.00     0.093 C 
HETATM   12  C22 UNL     1      23.023   3.742  29.178  1.00  0.00     0.213 C 
HETATM   13  C25 UNL     1      22.210   3.992  30.384  1.00  0.00     0.160 C 
HETATM   14  O15 UNL     1      22.497   3.697  31.517  1.00  0.00    -0.295 OA
HETATM   15  C26 UNL     1      20.913   4.690  30.038  1.00  0.00     0.125 C 
HETATM   16  C27 UNL     1      20.884   4.276  28.609  1.00  0.00     0.132 C 
ENDROOT
BRANCH  12  17
HETATM   17  O12 UNL     1      23.118   2.427  28.769  1.00  0.00    -0.283 OA
BRANCH  17  18
HETATM   18  C23 UNL     1      24.270   1.716  28.837  1.00  0.00     0.429 C 
HETATM   19  O13 UNL     1      24.274   0.643  29.504  1.00  0.00    -0.227 OA
BRANCH  18  20
HETATM   20  O14 UNL     1      25.473   2.069  28.228  1.00  0.00    -0.174 OA
BRANCH  20  21
HETATM   21  N1  UNL     1      26.249   3.085  28.770  1.00  0.00    -0.252 N 
ATOM     22  H1  UNL     1      26.645   3.786  28.143  1.00  0.00     0.195 HD
BRANCH  21  23
HETATM   23  C24 UNL     1      26.514   3.186  30.159  1.00  0.00     0.198 C 
HETATM   24  N2  UNL     1      26.101   4.167  30.896  1.00  0.00    -0.394 N 
ATOM     25  H22 UNL     1      25.557   4.898  30.438  1.00  0.00     0.156 HD
ATOM     26  H21 UNL     1      26.292   4.239  31.896  1.00  0.00     0.156 HD
ENDBRANCH  21  23
ENDBRANCH  20  21
ENDBRANCH  18  20
ENDBRANCH  17  18
ENDBRANCH  12  17
BRANCH  10  27
HETATM   27  O10 UNL     1      23.946   6.023  29.246  1.00  0.00    -0.315 OA
BRANCH  27  28
HETATM   28  C17 UNL     1      25.074   6.693  28.935  1.00  0.00     0.262 C 
HETATM   29  O11 UNL     1      25.997   6.094  28.330  1.00  0.00    -0.265 OA
BRANCH  28  30
HETATM   30  C18 UNL     1      25.177   8.138  29.333  1.00  0.00     0.077 C 
HETATM   31  C19 UNL     1      24.550   8.379  30.680  1.00  0.00     0.020 C 
HETATM   32  C20 UNL     1      26.638   8.508  29.301  1.00  0.00     0.020 C 
ENDBRANCH  28  30
ENDBRANCH  27  28
ENDBRANCH  10  27
BRANCH  16  33
HETATM   33  O16 UNL     1      20.857   2.866  28.856  1.00  0.00    -0.383 OA
ATOM     34  H16 UNL     1      20.939   2.763  29.797  1.00  0.00     0.210 HD
ENDBRANCH  16  33
BRANCH   1  35
HETATM   35  O1  UNL     1      18.751   3.616  28.120  1.00  0.00    -0.355 OA
HETATM   36  C1  UNL     1      17.580   3.426  27.583  1.00  0.00     0.205 C 
ENDBRANCH   1  35
BRANCH   1  37
HETATM   37  O2  UNL     1      19.908   4.526  26.419  1.00  0.00    -0.277 OA
BRANCH  37  38
HETATM   38  C3  UNL     1      20.267   3.509  25.614  1.00  0.00     0.257 C 
HETATM   39  C4  UNL     1      20.237   3.543  24.122  1.00  0.00     0.126 C 
HETATM   40  O3  UNL     1      20.648   2.471  26.143  1.00  0.00    -0.266 OA
ENDBRANCH  37  38
ENDBRANCH   1  37
BRANCH   8  41
HETATM   41  O8  UNL     1      23.053   8.007  25.261  1.00  0.00    -0.311 OA
BRANCH  41  42
HETATM   42  C13 UNL     1      22.949   7.922  23.891  1.00  0.00     0.255 C 
HETATM   43  C14 UNL     1      23.405   9.048  23.039  1.00  0.00     0.126 C 
HETATM   44  O9  UNL     1      22.458   6.862  23.437  1.00  0.00    -0.266 OA
ENDBRANCH  41  42
ENDBRANCH   8  41
BRANCH   2  45
HETATM   45  O4  UNL     1      17.923   5.998  28.814  1.00  0.00    -0.310 OA
BRANCH  45  46
HETATM   46  C6  UNL     1      17.783   6.163  30.161  1.00  0.00     0.255 C 
HETATM   47  C7  UNL     1      17.243   5.111  31.070  1.00  0.00     0.126 C 
HETATM   48  O5  UNL     1      18.127   7.256  30.665  1.00  0.00    -0.266 OA
ENDBRANCH  45  46
ENDBRANCH   2  45
BRANCH   7  49
HETATM   49  O7  UNL     1      21.021   8.526  27.813  1.00  0.00    -0.361 OA
ATOM     50  H7  UNL     1      20.249   8.683  28.344  1.00  0.00     0.213 HD
ENDBRANCH   7  49
TORSDOF 17
ENDMDL
MODEL 4
REMARK VINA RESULT: -5.404212941      1.928      2.935
REMARK  17 active torsions:
REMARK  status: ('A' for Active; 'I' for Inactive)
REMARK    1  A    between atoms: O1_2  and  C2_3 
REMARK    2  A    between atoms: C2_3  and  O2_4 
REMARK    3  A    between atoms: O2_4  and  C3_5 
REMARK    4  A    between atoms: C5_8  and  O4_9 
REMARK    5  A    between atoms: O4_9  and  C6_10 
REMARK    6  A    between atoms: C11_17  and  O7_18 
REMARK    7  A    between atoms: C12_20  and  O8_21 
REMARK    8  A    between atoms: O8_21  and  C13_22 
REMARK    9  A    between atoms: C16_26  and  O10_27 
REMARK   10  A    between atoms: O10_27  and  C17_28 
REMARK   11  A    between atoms: C17_28  and  C18_30 
REMARK   12  A    between atoms: C22_34  and  O12_35 
REMARK   13  A    between atoms: O12_35  and  C23_36 
REMARK   14  A    between atoms: C23_36  and  O14_38 
REMARK   15  A    between atoms: O14_38  and  N1_39 
REMARK   16  A    between atoms: N1_39  and  C24_41 
REMARK   17  A    between atoms: C27_48  and  O16_49 
ROOT
HETATM    1  C2  UNL     1      20.533   3.373  29.609  1.00  0.00     0.232 C 
HETATM    2  C5  UNL     1      19.421   4.397  29.602  1.00  0.00     0.204 C 
HETATM    3  C8  UNL     1      18.495   4.248  28.405  1.00  0.00     0.051 C 
HETATM    4  C9  UNL     1      17.230   5.014  28.714  1.00  0.00     0.015 C 
HETATM    5  C10 UNL     1      19.057   4.607  27.110  1.00  0.00     0.196 A 
HETATM    6  O6  UNL     1      18.572   5.623  26.272  1.00  0.00    -0.339 OA
HETATM    7  C11 UNL     1      19.789   5.839  26.921  1.00  0.00     0.217 A 
HETATM    8  C12 UNL     1      21.076   5.522  26.199  1.00  0.00     0.199 C 
HETATM    9  C15 UNL     1      22.301   6.025  26.808  1.00  0.00     0.071 C 
HETATM   10  C16 UNL     1      22.521   5.878  28.286  1.00  0.00     0.144 C 
HETATM   11  C21 UNL     1      22.733   4.478  28.781  1.00  0.00     0.093 C 
HETATM   12  C22 UNL     1      24.059   4.555  29.585  1.00  0.00     0.213 C 
HETATM   13  C25 UNL     1      23.530   5.084  30.857  1.00  0.00     0.160 C 
HETATM   14  O15 UNL     1      24.175   5.521  31.776  1.00  0.00    -0.295 OA
HETATM   15  C26 UNL     1      22.018   5.019  30.893  1.00  0.00     0.125 C 
HETATM   16  C27 UNL     1      21.878   3.960  29.857  1.00  0.00     0.132 C 
ENDROOT
BRANCH  12  17
HETATM   17  O12 UNL     1      24.707   3.339  29.654  1.00  0.00    -0.283 OA
BRANCH  17  18
HETATM   18  C23 UNL     1      25.921   3.119  29.090  1.00  0.00     0.429 C 
HETATM   19  O13 UNL     1      25.962   2.598  27.941  1.00  0.00    -0.227 OA
BRANCH  18  20
HETATM   20  O14 UNL     1      27.148   3.420  29.677  1.00  0.00    -0.174 OA
BRANCH  20  21
HETATM   21  N1  UNL     1      27.426   2.979  30.964  1.00  0.00    -0.252 N 
ATOM     22  H1  UNL     1      27.530   1.977  31.125  1.00  0.00     0.195 HD
BRANCH  21  23
HETATM   23  C24 UNL     1      27.571   3.865  32.061  1.00  0.00     0.198 C 
HETATM   24  N2  UNL     1      26.632   4.098  32.920  1.00  0.00    -0.394 N 
ATOM     25  H22 UNL     1      25.746   3.610  32.787  1.00  0.00     0.156 HD
ATOM     26  H21 UNL     1      26.737   4.736  33.710  1.00  0.00     0.156 HD
ENDBRANCH  21  23
ENDBRANCH  20  21
ENDBRANCH  18  20
ENDBRANCH  17  18
ENDBRANCH  12  17
BRANCH  10  27
HETATM   27  O10 UNL     1      23.693   6.713  28.458  1.00  0.00    -0.315 OA
BRANCH  27  28
HETATM   28  C17 UNL     1      23.654   8.059  28.527  1.00  0.00     0.262 C 
HETATM   29  O11 UNL     1      24.449   8.734  27.829  1.00  0.00    -0.265 OA
BRANCH  28  30
HETATM   30  C18 UNL     1      22.651   8.695  29.447  1.00  0.00     0.077 C 
HETATM   31  C19 UNL     1      23.208   8.852  30.836  1.00  0.00     0.020 C 
HETATM   32  C20 UNL     1      22.252  10.013  28.833  1.00  0.00     0.020 C 
ENDBRANCH  28  30
ENDBRANCH  27  28
ENDBRANCH  10  27
BRANCH  16  33
HETATM   33  O16 UNL     1      22.622   2.957  30.558  1.00  0.00    -0.383 OA
ATOM     34  H16 UNL     1      23.521   3.042  30.261  1.00  0.00     0.210 HD
ENDBRANCH  16  33
BRANCH   1  35
HETATM   35  O1  UNL     1      20.323   2.460  30.604  1.00  0.00    -0.355 OA
HETATM   36  C1  UNL     1      19.417   1.526  30.647  1.00  0.00     0.205 C 
ENDBRANCH   1  35
BRANCH   1  37
HETATM   37  O2  UNL     1      20.441   2.719  28.372  1.00  0.00    -0.277 OA
BRANCH  37  38
HETATM   38  C3  UNL     1      21.274   1.858  27.757  1.00  0.00     0.257 C 
HETATM   39  C4  UNL     1      21.464   1.753  26.281  1.00  0.00     0.126 C 
HETATM   40  O3  UNL     1      21.930   1.099  28.462  1.00  0.00    -0.266 OA
ENDBRANCH  37  38
ENDBRANCH   1  37
BRANCH   8  41
HETATM   41  O8  UNL     1      21.043   5.969  24.847  1.00  0.00    -0.311 OA
BRANCH  41  42
HETATM   42  C13 UNL     1      21.021   5.129  23.757  1.00  0.00     0.255 C 
HETATM   43  C14 UNL     1      20.167   3.916  23.770  1.00  0.00     0.126 C 
HETATM   44  O9  UNL     1      21.750   5.454  22.791  1.00  0.00    -0.266 OA
ENDBRANCH  41  42
ENDBRANCH   8  41
BRANCH   2  45
HETATM   45  O4  UNL     1      18.590   4.416  30.725  1.00  0.00    -0.310 OA
BRANCH  45  46
HETATM   46  C6  UNL     1      18.715   5.153  31.865  1.00  0.00     0.255 C 
HETATM   47  C7  UNL     1      19.018   4.562  33.201  1.00  0.00     0.126 C 
HETATM   48  O5  UNL     1      18.571   6.394  31.790  1.00  0.00    -0.266 OA
ENDBRANCH  45  46
ENDBRANCH   2  45
BRANCH   7  49
HETATM   49  O7  UNL     1      19.669   6.973  27.677  1.00  0.00    -0.361 OA
ATOM     50  H7  UNL     1      19.255   7.785  27.407  1.00  0.00     0.213 HD
ENDBRANCH   7  49
TORSDOF 17
ENDMDL
MODEL 5
REMARK VINA RESULT: -5.376822656      1.456      1.645
REMARK  17 active torsions:
REMARK  status: ('A' for Active; 'I' for Inactive)
REMARK    1  A    between atoms: O1_2  and  C2_3 
REMARK    2  A    between atoms: C2_3  and  O2_4 
REMARK    3  A    between atoms: O2_4  and  C3_5 
REMARK    4  A    between atoms: C5_8  and  O4_9 
REMARK    5  A    between atoms: O4_9  and  C6_10 
REMARK    6  A    between atoms: C11_17  and  O7_18 
REMARK    7  A    between atoms: C12_20  and  O8_21 
REMARK    8  A    between atoms: O8_21  and  C13_22 
REMARK    9  A    between atoms: C16_26  and  O10_27 
REMARK   10  A    between atoms: O10_27  and  C17_28 
REMARK   11  A    between atoms: C17_28  and  C18_30 
REMARK   12  A    between atoms: C22_34  and  O12_35 
REMARK   13  A    between atoms: O12_35  and  C23_36 
REMARK   14  A    between atoms: C23_36  and  O14_38 
REMARK   15  A    between atoms: O14_38  and  N1_39 
REMARK   16  A    between atoms: N1_39  and  C24_41 
REMARK   17  A    between atoms: C27_48  and  O16_49 
ROOT
HETATM    1  C2  UNL     1      19.370   4.802  27.189  1.00  0.00     0.232 C 
HETATM    2  C5  UNL     1      18.698   6.156  27.165  1.00  0.00     0.204 C 
HETATM    3  C8  UNL     1      18.346   6.612  25.757  1.00  0.00     0.051 C 
HETATM    4  C9  UNL     1      17.339   7.731  25.881  1.00  0.00     0.015 C 
HETATM    5  C10 UNL     1      19.469   6.970  24.899  1.00  0.00     0.196 A 
HETATM    6  O6  UNL     1      19.680   8.235  24.332  1.00  0.00    -0.339 OA
HETATM    7  C11 UNL     1      20.528   7.835  25.366  1.00  0.00     0.217 A 
HETATM    8  C12 UNL     1      21.851   7.193  25.028  1.00  0.00     0.199 C 
HETATM    9  C15 UNL     1      22.803   7.056  26.123  1.00  0.00     0.071 C 
HETATM   10  C16 UNL     1      22.344   6.552  27.460  1.00  0.00     0.144 C 
HETATM   11  C21 UNL     1      21.928   5.112  27.511  1.00  0.00     0.093 C 
HETATM   12  C22 UNL     1      22.768   4.513  28.672  1.00  0.00     0.213 C 
HETATM   13  C25 UNL     1      21.934   4.948  29.809  1.00  0.00     0.160 C 
HETATM   14  O15 UNL     1      22.238   4.915  30.975  1.00  0.00    -0.295 OA
HETATM   15  C26 UNL     1      20.591   5.466  29.341  1.00  0.00     0.125 C 
HETATM   16  C27 UNL     1      20.598   4.765  28.028  1.00  0.00     0.132 C 
ENDROOT
BRANCH  12  17
HETATM   17  O12 UNL     1      22.958   3.153  28.541  1.00  0.00    -0.283 OA
BRANCH  17  18
HETATM   18  C23 UNL     1      24.116   2.535  28.885  1.00  0.00     0.429 C 
HETATM   19  O13 UNL     1      24.413   1.454  28.305  1.00  0.00    -0.227 OA
BRANCH  18  20
HETATM   20  O14 UNL     1      25.021   2.994  29.839  1.00  0.00    -0.174 OA
BRANCH  20  21
HETATM   21  N1  UNL     1      26.159   3.680  29.438  1.00  0.00    -0.252 N 
ATOM     22  H1  UNL     1      26.876   3.177  28.915  1.00  0.00     0.195 HD
BRANCH  21  23
HETATM   23  C24 UNL     1      26.365   5.053  29.726  1.00  0.00     0.198 C 
HETATM   24  N2  UNL     1      26.592   5.948  28.819  1.00  0.00    -0.394 N 
ATOM     25  H22 UNL     1      26.621   5.632  27.850  1.00  0.00     0.156 HD
ATOM     26  H21 UNL     1      26.740   6.936  29.027  1.00  0.00     0.156 HD
ENDBRANCH  21  23
ENDBRANCH  20  21
ENDBRANCH  18  20
ENDBRANCH  17  18
ENDBRANCH  12  17
BRANCH  10  27
HETATM   27  O10 UNL     1      23.524   6.820  28.258  1.00  0.00    -0.315 OA
BRANCH  27  28
HETATM   28  C17 UNL     1      23.845   8.037  28.740  1.00  0.00     0.262 C 
HETATM   29  O11 UNL     1      25.015   8.467  28.594  1.00  0.00    -0.265 OA
BRANCH  28  30
HETATM   30  C18 UNL     1      22.777   8.830  29.439  1.00  0.00     0.077 C 
HETATM   31  C19 UNL     1      22.735   8.511  30.909  1.00  0.00     0.020 C 
HETATM   32  C20 UNL     1      23.054  10.287  29.172  1.00  0.00     0.020 C 
ENDBRANCH  28  30
ENDBRANCH  27  28
ENDBRANCH  10  27
BRANCH  16  33
HETATM   33  O16 UNL     1      20.671   3.438  28.561  1.00  0.00    -0.383 OA
ATOM     34  H16 UNL     1      21.572   3.158  28.443  1.00  0.00     0.210 HD
ENDBRANCH  16  33
BRANCH   1  35
HETATM   35  O1  UNL     1      18.520   3.868  27.709  1.00  0.00    -0.355 OA
HETATM   36  C1  UNL     1      17.399   3.442  27.202  1.00  0.00     0.205 C 
ENDBRANCH   1  35
BRANCH   1  37
HETATM   37  O2  UNL     1      19.615   4.488  25.845  1.00  0.00    -0.277 OA
BRANCH  37  38
HETATM   38  C3  UNL     1      20.233   3.436  25.277  1.00  0.00     0.257 C 
HETATM   39  C4  UNL     1      20.595   3.329  23.833  1.00  0.00     0.126 C 
HETATM   40  O3  UNL     1      20.523   2.488  25.999  1.00  0.00    -0.266 OA
ENDBRANCH  37  38
ENDBRANCH   1  37
BRANCH   8  41
HETATM   41  O8  UNL     1      22.506   7.871  23.960  1.00  0.00    -0.311 OA
BRANCH  41  42
HETATM   42  C13 UNL     1      22.785   7.299  22.739  1.00  0.00     0.255 C 
HETATM   43  C14 UNL     1      23.685   7.988  21.783  1.00  0.00     0.126 C 
HETATM   44  O9  UNL     1      22.241   6.193  22.508  1.00  0.00    -0.266 OA
ENDBRANCH  41  42
ENDBRANCH   8  41
BRANCH   2  45
HETATM   45  O4  UNL     1      17.520   6.277  27.907  1.00  0.00    -0.310 OA
BRANCH  45  46
HETATM   46  C6  UNL     1      17.356   6.762  29.172  1.00  0.00     0.255 C 
HETATM   47  C7  UNL     1      17.888   8.079  29.626  1.00  0.00     0.126 C 
HETATM   48  O5  UNL     1      16.725   6.065  29.998  1.00  0.00    -0.266 OA
ENDBRANCH  45  46
ENDBRANCH   2  45
BRANCH   7  49
HETATM   49  O7  UNL     1      20.432   8.758  26.372  1.00  0.00    -0.361 OA
ATOM     50  H7  UNL     1      20.957   9.545  26.462  1.00  0.00     0.213 HD
ENDBRANCH   7  49
TORSDOF 17
ENDMDL
