MODEL 1
REMARK VINA RESULT: -6.830963102      0.000      0.000
REMARK  13 active torsions:
REMARK  status: ('A' for Active; 'I' for Inactive)
REMARK    1  A    between atoms: C2_2  and  C3_3 
REMARK    2  A    between atoms: C3_3  and  N1_4 
REMARK    3  A    between atoms: C5_7  and  C6_8 
REMARK    4  A    between atoms: N2_9  and  N3_11 
REMARK    5  A    between atoms: N3_11  and  C7_13 
REMARK    6  A    between atoms: N6_22  and  C12_23 
REMARK    7  A    between atoms: C12_23  and  C13_24 
REMARK    8  A    between atoms: C13_24  and  O4_25 
REMARK    9  A    between atoms: C13_24  and  C14_27 
REMARK   10  A    between atoms: C14_27  and  O5_28 
REMARK   11  A    between atoms: C14_27  and  C15_30 
REMARK   12  A    between atoms: C17_33  and  C18_34 
REMARK   13  A    between atoms: N9_46  and  N10_47 
ROOT
HETATM    1  N1  UNL     1      28.282   7.695  32.375  1.00  0.00    -0.285 N 
HETATM    2  C4  UNL     1      28.219   6.447  32.864  1.00  0.00     0.264 A 
HETATM    3  O1  UNL     1      28.833   6.250  33.956  1.00  0.00    -0.267 OA
HETATM    4  C5  UNL     1      27.530   5.411  32.240  1.00  0.00     0.080 A 
HETATM    5  C17 UNL     1      26.889   5.688  31.066  1.00  0.00     0.103 A 
HETATM    6  N9  UNL     1      26.954   6.941  30.577  1.00  0.00    -0.233 N 
HETATM    7  C26 UNL     1      27.640   7.918  31.225  1.00  0.00     0.203 A 
HETATM    8  S2  UNL     1      27.674   9.424  30.564  1.00  0.00    -0.038 SA
ENDROOT
BRANCH   4   9
HETATM    9  C6  UNL     1      27.548   4.082  32.833  1.00  0.00     0.127 C 
HETATM   10  N2  UNL     1      27.341   3.879  34.056  1.00  0.00    -0.297 N 
ATOM     11  H2  UNL     1      27.170   4.772  34.516  1.00  0.00     0.186 HD
BRANCH  10  12
HETATM   12  N3  UNL     1      27.269   2.935  34.931  1.00  0.00    -0.132 N 
ATOM     13  H3  UNL     1      27.216   2.102  34.345  1.00  0.00     0.205 HD
BRANCH  12  14
HETATM   14  C7  UNL     1      27.227   2.461  36.060  1.00  0.00     0.709 A 
HETATM   15  N4  UNL     1      26.073   2.331  36.750  1.00  0.00    -0.135 N 
HETATM   16  C8  UNL     1      24.768   2.712  36.189  1.00  0.00     0.180 C 
HETATM   17  C9  UNL     1      26.057   1.820  37.996  1.00  0.00     0.346 A 
HETATM   18  O2  UNL     1      24.953   1.708  38.630  1.00  0.00    -0.246 OA
HETATM   19  N5  UNL     1      27.177   1.430  38.577  1.00  0.00    -0.255 N 
HETATM   20  C10 UNL     1      27.198   0.874  39.914  1.00  0.00     0.166 C 
HETATM   21  C11 UNL     1      28.338   1.556  37.891  1.00  0.00     0.346 A 
HETATM   22  O3  UNL     1      29.377   1.175  38.477  1.00  0.00    -0.246 OA
HETATM   23  N6  UNL     1      28.408   2.050  36.673  1.00  0.00    -0.128 N 
BRANCH  23  24
HETATM   24  C12 UNL     1      29.623   2.188  35.949  1.00  0.00     0.187 C 
BRANCH  24  25
HETATM   25  C13 UNL     1      29.951   1.008  35.080  1.00  0.00     0.173 C 
BRANCH  25  26
HETATM   26  O4  UNL     1      29.599   1.402  33.756  1.00  0.00    -0.391 OA
ATOM     27  H4  UNL     1      30.365   1.218  33.226  1.00  0.00     0.210 HD
ENDBRANCH  25  26
BRANCH  25  28
HETATM   28  C14 UNL     1      31.448   0.763  34.988  1.00  0.00     0.217 C 
BRANCH  28  29
HETATM   29  O5  UNL     1      31.720   0.210  33.728  1.00  0.00    -0.385 OA
ATOM     30  H5  UNL     1      32.663   0.176  33.620  1.00  0.00     0.210 HD
ENDBRANCH  28  29
BRANCH  28  31
HETATM   31  C15 UNL     1      31.992  -0.090  36.052  1.00  0.00     0.154 C 
HETATM   32  C16 UNL     1      33.467  -0.415  35.992  1.00  0.00     0.093 C 
HETATM   33  O6  UNL     1      31.348  -0.552  36.976  1.00  0.00    -0.295 OA
ENDBRANCH  28  31
ENDBRANCH  25  28
ENDBRANCH  24  25
ENDBRANCH  23  24
ENDBRANCH  12  14
ENDBRANCH  10  12
ENDBRANCH   4   9
BRANCH   5  34
HETATM   34  C18 UNL     1      26.095   4.627  30.360  1.00  0.00     0.080 A 
HETATM   35  N7  UNL     1      26.695   3.914  29.408  1.00  0.00    -0.323 N 
HETATM   36  S1  UNL     1      25.507   2.877  28.852  1.00  0.00    -0.014 SA
ATOM     37  H7  UNL     1      27.661   3.985  29.090  1.00  0.00     0.174 HD
HETATM   38  C19 UNL     1      24.218   3.367  29.856  1.00  0.00     0.035 A 
HETATM   39  C20 UNL     1      22.868   2.987  30.003  1.00  0.00     0.029 A 
HETATM   40  C25 UNL     1      24.787   4.355  30.613  1.00  0.00     0.014 A 
HETATM   41  C21 UNL     1      22.057   3.602  30.921  1.00  0.00    -0.036 A 
HETATM   42  C22 UNL     1      20.657   3.200  31.063  1.00  0.00     0.050 C 
HETATM   43  C23 UNL     1      22.628   4.591  31.674  1.00  0.00     0.053 A 
HETATM   44  N8  UNL     1      21.817   5.254  32.648  1.00  0.00    -0.102 NA
HETATM   45  C24 UNL     1      23.942   4.984  31.557  1.00  0.00     0.042 A 
ENDBRANCH   5  34
BRANCH   1  46
HETATM   46  C3  UNL     1      29.011   8.750  33.071  1.00  0.00     0.161 C 
BRANCH  46  47
HETATM   47  C2  UNL     1      30.414   8.754  32.532  1.00  0.00    -0.017 C 
HETATM   48  C1  UNL     1      31.417   8.503  33.362  1.00  0.00     0.008 C 
ENDBRANCH  46  47
ENDBRANCH   1  46
BRANCH   6  49
HETATM   49  N10 UNL     1      26.280   7.276  29.383  1.00  0.00    -0.336 N 
ATOM     50 2H10 UNL     1      26.503   6.750  28.538  1.00  0.00     0.177 HD
ATOM     51 1H10 UNL     1      25.604   8.040  29.369  1.00  0.00     0.177 HD
ENDBRANCH   6  49
TORSDOF 13
ENDMDL
MODEL 2
REMARK VINA RESULT: -6.759872565      7.102     11.058
REMARK  13 active torsions:
REMARK  status: ('A' for Active; 'I' for Inactive)
REMARK    1  A    between atoms: C2_2  and  C3_3 
REMARK    2  A    between atoms: C3_3  and  N1_4 
REMARK    3  A    between atoms: C5_7  and  C6_8 
REMARK    4  A    between atoms: N2_9  and  N3_11 
REMARK    5  A    between atoms: N3_11  and  C7_13 
REMARK    6  A    between atoms: N6_22  and  C12_23 
REMARK    7  A    between atoms: C12_23  and  C13_24 
REMARK    8  A    between atoms: C13_24  and  O4_25 
REMARK    9  A    between atoms: C13_24  and  C14_27 
REMARK   10  A    between atoms: C14_27  and  O5_28 
REMARK   11  A    between atoms: C14_27  and  C15_30 
REMARK   12  A    between atoms: C17_33  and  C18_34 
REMARK   13  A    between atoms: N9_46  and  N10_47 
ROOT
HETATM    1  N1  UNL     1      24.953   7.936  29.763  1.00  0.00    -0.285 N 
HETATM    2  C4  UNL     1      24.308   7.558  28.650  1.00  0.00     0.264 A 
HETATM    3  O1  UNL     1      24.222   8.433  27.736  1.00  0.00    -0.267 OA
HETATM    4  C5  UNL     1      23.755   6.292  28.474  1.00  0.00     0.080 A 
HETATM    5  C17 UNL     1      23.882   5.394  29.496  1.00  0.00     0.103 A 
HETATM    6  N9  UNL     1      24.530   5.776  30.613  1.00  0.00    -0.233 N 
HETATM    7  C26 UNL     1      25.052   7.025  30.735  1.00  0.00     0.203 A 
HETATM    8  S2  UNL     1      25.830   7.417  32.130  1.00  0.00    -0.038 SA
ENDROOT
BRANCH   4   9
HETATM    9  C6  UNL     1      23.044   5.987  27.242  1.00  0.00     0.127 C 
HETATM   10  N2  UNL     1      22.232   6.785  26.709  1.00  0.00    -0.297 N 
ATOM     11  H2  UNL     1      22.177   7.631  27.276  1.00  0.00     0.186 HD
BRANCH  10  12
HETATM   12  N3  UNL     1      21.446   6.908  25.695  1.00  0.00    -0.132 N 
ATOM     13  H3  UNL     1      22.036   6.596  24.925  1.00  0.00     0.205 HD
BRANCH  12  14
HETATM   14  C7  UNL     1      20.397   7.183  25.122  1.00  0.00     0.709 A 
HETATM   15  N4  UNL     1      19.740   8.344  25.332  1.00  0.00    -0.135 N 
HETATM   16  C8  UNL     1      20.247   9.389  26.235  1.00  0.00     0.180 C 
HETATM   17  C9  UNL     1      18.582   8.616  24.701  1.00  0.00     0.346 A 
HETATM   18  O2  UNL     1      17.976   9.720  24.916  1.00  0.00    -0.246 OA
HETATM   19  N5  UNL     1      18.058   7.748  23.855  1.00  0.00    -0.255 N 
HETATM   20  C10 UNL     1      16.816   8.006  23.156  1.00  0.00     0.166 C 
HETATM   21  C11 UNL     1      18.712   6.581  23.639  1.00  0.00     0.346 A 
HETATM   22  O3  UNL     1      18.183   5.786  22.829  1.00  0.00    -0.246 OA
HETATM   23  N6  UNL     1      19.845   6.268  24.230  1.00  0.00    -0.128 N 
BRANCH  23  24
HETATM   24  C12 UNL     1      20.534   5.045  24.011  1.00  0.00     0.187 C 
BRANCH  24  25
HETATM   25  C13 UNL     1      19.877   3.854  24.646  1.00  0.00     0.173 C 
BRANCH  25  26
HETATM   26  O4  UNL     1      20.413   2.719  23.972  1.00  0.00    -0.391 OA
ATOM     27  H4  UNL     1      20.019   1.964  24.393  1.00  0.00     0.210 HD
ENDBRANCH  25  26
BRANCH  25  28
HETATM   28  C14 UNL     1      20.325   3.652  26.085  1.00  0.00     0.217 C 
BRANCH  28  29
HETATM   29  O5  UNL     1      20.491   2.276  26.299  1.00  0.00    -0.385 OA
ATOM     30  H5  UNL     1      21.274   2.152  26.821  1.00  0.00     0.210 HD
ENDBRANCH  28  29
BRANCH  28  31
HETATM   31  C15 UNL     1      19.421   4.223  27.090  1.00  0.00     0.154 C 
HETATM   32  C16 UNL     1      18.159   3.452  27.403  1.00  0.00     0.093 C 
HETATM   33  O6  UNL     1      19.609   5.266  27.689  1.00  0.00    -0.295 OA
ENDBRANCH  28  31
ENDBRANCH  25  28
ENDBRANCH  24  25
ENDBRANCH  23  24
ENDBRANCH  12  14
ENDBRANCH  10  12
ENDBRANCH   4   9
BRANCH   5  34
HETATM   34  C18 UNL     1      23.343   3.999  29.358  1.00  0.00     0.080 A 
HETATM   35  N7  UNL     1      24.090   3.090  28.733  1.00  0.00    -0.323 N 
HETATM   36  S1  UNL     1      23.160   1.701  28.755  1.00  0.00    -0.014 SA
ATOM     37  H7  UNL     1      25.019   3.214  28.331  1.00  0.00     0.174 HD
HETATM   38  C19 UNL     1      21.790   2.295  29.579  1.00  0.00     0.035 A 
HETATM   39  C20 UNL     1      20.555   1.750  29.985  1.00  0.00     0.029 A 
HETATM   40  C25 UNL     1      22.125   3.602  29.812  1.00  0.00     0.014 A 
HETATM   41  C21 UNL     1      19.624   2.516  30.638  1.00  0.00    -0.036 A 
HETATM   42  C22 UNL     1      18.345   1.937  31.053  1.00  0.00     0.050 C 
HETATM   43  C23 UNL     1      19.961   3.821  30.867  1.00  0.00     0.053 A 
HETATM   44  N8  UNL     1      19.019   4.653  31.550  1.00  0.00    -0.102 NA
HETATM   45  C24 UNL     1      21.158   4.385  30.485  1.00  0.00     0.042 A 
ENDBRANCH   5  34
BRANCH   1  46
HETATM   46  C3  UNL     1      25.522   9.273  29.897  1.00  0.00     0.161 C 
BRANCH  46  47
HETATM   47  C2  UNL     1      26.899   9.235  29.296  1.00  0.00    -0.017 C 
HETATM   48  C1  UNL     1      27.836  10.026  29.800  1.00  0.00     0.008 C 
ENDBRANCH  46  47
ENDBRANCH   1  46
BRANCH   6  49
HETATM   49  N10 UNL     1      24.709   4.870  31.679  1.00  0.00    -0.336 N 
ATOM     50 2H10 UNL     1      23.880   4.518  32.158  1.00  0.00     0.177 HD
ATOM     51 1H10 UNL     1      25.647   4.594  31.971  1.00  0.00     0.177 HD
ENDBRANCH   6  49
TORSDOF 13
ENDMDL
MODEL 3
REMARK VINA RESULT: -6.749540955      1.226      1.665
REMARK  13 active torsions:
REMARK  status: ('A' for Active; 'I' for Inactive)
REMARK    1  A    between atoms: C2_2  and  C3_3 
REMARK    2  A    between atoms: C3_3  and  N1_4 
REMARK    3  A    between atoms: C5_7  and  C6_8 
REMARK    4  A    between atoms: N2_9  and  N3_11 
REMARK    5  A    between atoms: N3_11  and  C7_13 
REMARK    6  A    between atoms: N6_22  and  C12_23 
REMARK    7  A    between atoms: C12_23  and  C13_24 
REMARK    8  A    between atoms: C13_24  and  O4_25 
REMARK    9  A    between atoms: C13_24  and  C14_27 
REMARK   10  A    between atoms: C14_27  and  O5_28 
REMARK   11  A    between atoms: C14_27  and  C15_30 
REMARK   12  A    between atoms: C17_33  and  C18_34 
REMARK   13  A    between atoms: N9_46  and  N10_47 
ROOT
HETATM    1  N1  UNL     1      28.554   7.429  33.121  1.00  0.00    -0.285 N 
HETATM    2  C4  UNL     1      28.368   6.164  33.528  1.00  0.00     0.264 A 
HETATM    3  O1  UNL     1      28.887   5.860  34.644  1.00  0.00    -0.267 OA
HETATM    4  C5  UNL     1      27.655   5.218  32.795  1.00  0.00     0.080 A 
HETATM    5  C17 UNL     1      27.120   5.609  31.601  1.00  0.00     0.103 A 
HETATM    6  N9  UNL     1      27.308   6.879  31.195  1.00  0.00    -0.233 N 
HETATM    7  C26 UNL     1      28.013   7.764  31.947  1.00  0.00     0.203 A 
HETATM    8  S2  UNL     1      28.200   9.299  31.383  1.00  0.00    -0.038 SA
ENDROOT
BRANCH   4   9
HETATM    9  C6  UNL     1      27.537   3.861  33.305  1.00  0.00     0.127 C 
HETATM   10  N2  UNL     1      27.227   3.604  34.496  1.00  0.00    -0.297 N 
ATOM     11  H2  UNL     1      27.084   4.481  34.997  1.00  0.00     0.186 HD
BRANCH  10  12
HETATM   12  N3  UNL     1      27.025   2.621  35.304  1.00  0.00    -0.132 N 
ATOM     13  H3  UNL     1      27.827   2.020  35.116  1.00  0.00     0.205 HD
BRANCH  12  14
HETATM   14  C7  UNL     1      26.426   1.991  36.168  1.00  0.00     0.709 A 
HETATM   15  N4  UNL     1      25.191   2.336  36.592  1.00  0.00    -0.135 N 
HETATM   16  C8  UNL     1      24.449   3.473  36.026  1.00  0.00     0.180 C 
HETATM   17  C9  UNL     1      24.560   1.635  37.554  1.00  0.00     0.346 A 
HETATM   18  O2  UNL     1      23.393   1.981  37.940  1.00  0.00    -0.246 OA
HETATM   19  N5  UNL     1      25.138   0.585  38.108  1.00  0.00    -0.255 N 
HETATM   20  C10 UNL     1      24.490  -0.194  39.143  1.00  0.00     0.166 C 
HETATM   21  C11 UNL     1      26.376   0.232  37.687  1.00  0.00     0.346 A 
HETATM   22  O3  UNL     1      26.889  -0.769  38.237  1.00  0.00    -0.246 OA
HETATM   23  N6  UNL     1      27.035   0.883  36.753  1.00  0.00    -0.128 N 
BRANCH  23  24
HETATM   24  C12 UNL     1      28.335   0.520  36.309  1.00  0.00     0.187 C 
BRANCH  24  25
HETATM   25  C13 UNL     1      29.445   1.151  37.099  1.00  0.00     0.173 C 
BRANCH  25  26
HETATM   26  O4  UNL     1      30.181   0.065  37.655  1.00  0.00    -0.391 OA
ATOM     27  H4  UNL     1      30.189  -0.606  36.983  1.00  0.00     0.210 HD
ENDBRANCH  25  26
BRANCH  25  28
HETATM   28  C14 UNL     1      30.462   1.844  36.205  1.00  0.00     0.217 C 
BRANCH  28  29
HETATM   29  O5  UNL     1      29.882   3.027  35.725  1.00  0.00    -0.385 OA
ATOM     30  H5  UNL     1      30.579   3.654  35.574  1.00  0.00     0.210 HD
ENDBRANCH  28  29
BRANCH  28  31
HETATM   31  C15 UNL     1      30.953   1.022  35.091  1.00  0.00     0.154 C 
HETATM   32  C16 UNL     1      30.412   1.332  33.714  1.00  0.00     0.093 C 
HETATM   33  O6  UNL     1      31.758   0.116  35.192  1.00  0.00    -0.295 OA
ENDBRANCH  28  31
ENDBRANCH  25  28
ENDBRANCH  24  25
ENDBRANCH  23  24
ENDBRANCH  12  14
ENDBRANCH  10  12
ENDBRANCH   4   9
BRANCH   5  34
HETATM   34  C18 UNL     1      26.307   4.651  30.779  1.00  0.00     0.080 A 
HETATM   35  N7  UNL     1      26.917   3.971  29.809  1.00  0.00    -0.323 N 
HETATM   36  S1  UNL     1      25.702   3.052  29.118  1.00  0.00    -0.014 SA
ATOM     37  H7  UNL     1      27.901   4.004  29.546  1.00  0.00     0.174 HD
HETATM   38  C19 UNL     1      24.390   3.548  30.088  1.00  0.00     0.035 A 
HETATM   39  C20 UNL     1      23.015   3.244  30.137  1.00  0.00     0.029 A 
HETATM   40  C25 UNL     1      24.973   4.444  30.943  1.00  0.00     0.014 A 
HETATM   41  C21 UNL     1      22.191   3.842  31.055  1.00  0.00    -0.036 A 
HETATM   42  C22 UNL     1      20.764   3.518  31.095  1.00  0.00     0.050 C 
HETATM   43  C23 UNL     1      22.775   4.738  31.907  1.00  0.00     0.053 A 
HETATM   44  N8  UNL     1      21.952   5.380  32.884  1.00  0.00    -0.102 NA
HETATM   45  C24 UNL     1      24.115   5.056  31.886  1.00  0.00     0.042 A 
ENDBRANCH   5  34
BRANCH   1  46
HETATM   46  C3  UNL     1      29.303   8.386  33.928  1.00  0.00     0.161 C 
BRANCH  46  47
HETATM   47  C2  UNL     1      30.751   7.992  33.859  1.00  0.00    -0.017 C 
HETATM   48  C1  UNL     1      31.531   8.584  32.964  1.00  0.00     0.008 C 
ENDBRANCH  46  47
ENDBRANCH   1  46
BRANCH   6  49
HETATM   49  N10 UNL     1      26.747   7.330  29.981  1.00  0.00    -0.336 N 
ATOM     50 2H10 UNL     1      25.730   7.339  29.892  1.00  0.00     0.177 HD
ATOM     51 1H10 UNL     1      27.349   7.620  29.210  1.00  0.00     0.177 HD
ENDBRANCH   6  49
TORSDOF 13
ENDMDL
MODEL 4
REMARK VINA RESULT: -6.691652523      4.637      7.270
REMARK  13 active torsions:
REMARK  status: ('A' for Active; 'I' for Inactive)
REMARK    1  A    between atoms: C2_2  and  C3_3 
REMARK    2  A    between atoms: C3_3  and  N1_4 
REMARK    3  A    between atoms: C5_7  and  C6_8 
REMARK    4  A    between atoms: N2_9  and  N3_11 
REMARK    5  A    between atoms: N3_11  and  C7_13 
REMARK    6  A    between atoms: N6_22  and  C12_23 
REMARK    7  A    between atoms: C12_23  and  C13_24 
REMARK    8  A    between atoms: C13_24  and  O4_25 
REMARK    9  A    between atoms: C13_24  and  C14_27 
REMARK   10  A    between atoms: C14_27  and  O5_28 
REMARK   11  A    between atoms: C14_27  and  C15_30 
REMARK   12  A    between atoms: C17_33  and  C18_34 
REMARK   13  A    between atoms: N9_46  and  N10_47 
ROOT
HETATM    1  N1  UNL     1      27.711  10.393  30.498  1.00  0.00    -0.285 N 
HETATM    2  C4  UNL     1      26.838   9.481  30.044  1.00  0.00     0.264 A 
HETATM    3  O1  UNL     1      26.040   9.879  29.143  1.00  0.00    -0.267 OA
HETATM    4  C5  UNL     1      26.784   8.170  30.511  1.00  0.00     0.080 A 
HETATM    5  C17 UNL     1      27.671   7.803  31.483  1.00  0.00     0.103 A 
HETATM    6  N9  UNL     1      28.546   8.721  31.937  1.00  0.00    -0.233 N 
HETATM    7  C26 UNL     1      28.558   9.989  31.448  1.00  0.00     0.203 A 
HETATM    8  S2  UNL     1      29.657  11.053  32.053  1.00  0.00    -0.038 SA
ENDROOT
BRANCH   4   9
HETATM    9  C6  UNL     1      25.778   7.264  29.980  1.00  0.00     0.127 C 
HETATM   10  N2  UNL     1      24.592   7.242  30.395  1.00  0.00    -0.297 N 
ATOM     11  H2  UNL     1      24.486   7.942  31.130  1.00  0.00     0.186 HD
BRANCH  10  12
HETATM   12  N3  UNL     1      23.464   6.646  30.217  1.00  0.00    -0.132 N 
ATOM     13  H3  UNL     1      23.336   6.724  29.208  1.00  0.00     0.205 HD
BRANCH  12  14
HETATM   14  C7  UNL     1      22.456   6.039  30.559  1.00  0.00     0.709 A 
HETATM   15  N4  UNL     1      21.272   6.656  30.767  1.00  0.00    -0.135 N 
HETATM   16  C8  UNL     1      21.087   8.101  30.561  1.00  0.00     0.180 C 
HETATM   17  C9  UNL     1      20.183   5.968  31.157  1.00  0.00     0.346 A 
HETATM   18  O2  UNL     1      19.074   6.573  31.349  1.00  0.00    -0.246 OA
HETATM   19  N5  UNL     1      20.245   4.663  31.347  1.00  0.00    -0.255 N 
HETATM   20  C10 UNL     1      19.095   3.889  31.764  1.00  0.00     0.166 C 
HETATM   21  C11 UNL     1      21.429   4.036  31.140  1.00  0.00     0.346 A 
HETATM   22  O3  UNL     1      21.446   2.798  31.331  1.00  0.00    -0.246 OA
HETATM   23  N6  UNL     1      22.521   4.662  30.760  1.00  0.00    -0.128 N 
BRANCH  23  24
HETATM   24  C12 UNL     1      23.766   4.012  30.545  1.00  0.00     0.187 C 
BRANCH  24  25
HETATM   25  C13 UNL     1      23.966   3.533  29.135  1.00  0.00     0.173 C 
BRANCH  25  26
HETATM   26  O4  UNL     1      24.899   4.439  28.554  1.00  0.00    -0.391 OA
ATOM     27  H4  UNL     1      25.732   4.243  28.964  1.00  0.00     0.210 HD
ENDBRANCH  25  26
BRANCH  25  28
HETATM   28  C14 UNL     1      24.693   2.199  29.082  1.00  0.00     0.217 C 
BRANCH  28  29
HETATM   29  O5  UNL     1      25.531   2.207  27.958  1.00  0.00    -0.385 OA
ATOM     30  H5  UNL     1      25.840   1.319  27.815  1.00  0.00     0.210 HD
ENDBRANCH  28  29
BRANCH  28  31
HETATM   31  C15 UNL     1      23.811   1.025  29.057  1.00  0.00     0.154 C 
HETATM   32  C16 UNL     1      22.532   1.138  28.260  1.00  0.00     0.093 C 
HETATM   33  O6  UNL     1      24.031  -0.028  29.627  1.00  0.00    -0.295 OA
ENDBRANCH  28  31
ENDBRANCH  25  28
ENDBRANCH  24  25
ENDBRANCH  23  24
ENDBRANCH  12  14
ENDBRANCH  10  12
ENDBRANCH   4   9
BRANCH   5  34
HETATM   34  C18 UNL     1      27.694   6.395  32.004  1.00  0.00     0.080 A 
HETATM   35  N7  UNL     1      28.393   5.482  31.333  1.00  0.00    -0.323 N 
HETATM   36  S1  UNL     1      28.156   4.065  32.188  1.00  0.00    -0.014 SA
ATOM     37  H7  UNL     1      28.948   5.617  30.488  1.00  0.00     0.174 HD
HETATM   38  C19 UNL     1      27.142   4.652  33.426  1.00  0.00     0.035 A 
HETATM   39  C20 UNL     1      26.494   4.081  34.541  1.00  0.00     0.029 A 
HETATM   40  C25 UNL     1      27.024   5.980  33.112  1.00  0.00     0.014 A 
HETATM   41  C21 UNL     1      25.707   4.841  35.367  1.00  0.00    -0.036 A 
HETATM   42  C22 UNL     1      25.039   4.236  36.521  1.00  0.00     0.050 C 
HETATM   43  C23 UNL     1      25.589   6.166  35.049  1.00  0.00     0.053 A 
HETATM   44  N8  UNL     1      24.781   6.994  35.889  1.00  0.00    -0.102 NA
HETATM   45  C24 UNL     1      26.208   6.755  33.969  1.00  0.00     0.042 A 
ENDBRANCH   5  34
BRANCH   1  46
HETATM   46  C3  UNL     1      27.733  11.754  29.971  1.00  0.00     0.161 C 
BRANCH  46  47
HETATM   47  C2  UNL     1      28.531  11.728  28.699  1.00  0.00    -0.017 C 
HETATM   48  C1  UNL     1      29.396  12.707  28.468  1.00  0.00     0.008 C 
ENDBRANCH  46  47
ENDBRANCH   1  46
BRANCH   6  49
HETATM   49  N10 UNL     1      29.498   8.374  32.919  1.00  0.00    -0.336 N 
ATOM     50 2H10 UNL     1      29.657   7.385  33.110  1.00  0.00     0.177 HD
ATOM     51 1H10 UNL     1      29.995   9.101  33.435  1.00  0.00     0.177 HD
ENDBRANCH   6  49
TORSDOF 13
ENDMDL
MODEL 5
REMARK VINA RESULT: -6.627613958      1.612      3.663
REMARK  13 active torsions:
REMARK  status: ('A' for Active; 'I' for Inactive)
REMARK    1  A    between atoms: C2_2  and  C3_3 
REMARK    2  A    between atoms: C3_3  and  N1_4 
REMARK    3  A    between atoms: C5_7  and  C6_8 
REMARK    4  A    between atoms: N2_9  and  N3_11 
REMARK    5  A    between atoms: N3_11  and  C7_13 
REMARK    6  A    between atoms: N6_22  and  C12_23 
REMARK    7  A    between atoms: C12_23  and  C13_24 
REMARK    8  A    between atoms: C13_24  and  O4_25 
REMARK    9  A    between atoms: C13_24  and  C14_27 
REMARK   10  A    between atoms: C14_27  and  O5_28 
REMARK   11  A    between atoms: C14_27  and  C15_30 
REMARK   12  A    between atoms: C17_33  and  C18_34 
REMARK   13  A    between atoms: N9_46  and  N10_47 
ROOT
HETATM    1  N1  UNL     1      28.200   7.592  32.273  1.00  0.00    -0.285 N 
HETATM    2  C4  UNL     1      28.171   6.334  32.738  1.00  0.00     0.264 A 
HETATM    3  O1  UNL     1      28.812   6.126  33.812  1.00  0.00    -0.267 OA
HETATM    4  C5  UNL     1      27.489   5.297  32.108  1.00  0.00     0.080 A 
HETATM    5  C17 UNL     1      26.817   5.585  30.954  1.00  0.00     0.103 A 
HETATM    6  N9  UNL     1      26.848   6.848  30.489  1.00  0.00    -0.233 N 
HETATM    7  C26 UNL     1      27.529   7.826  31.142  1.00  0.00     0.203 A 
HETATM    8  S2  UNL     1      27.520   9.345  30.511  1.00  0.00    -0.038 SA
ENDROOT
BRANCH   4   9
HETATM    9  C6  UNL     1      27.545   3.957  32.673  1.00  0.00     0.127 C 
HETATM   10  N2  UNL     1      28.106   3.703  33.768  1.00  0.00    -0.297 N 
ATOM     11  H2  UNL     1      28.489   4.566  34.153  1.00  0.00     0.186 HD
BRANCH  10  12
HETATM   12  N3  UNL     1      28.367   2.731  34.575  1.00  0.00    -0.132 N 
ATOM     13  H3  UNL     1      27.570   2.113  34.431  1.00  0.00     0.205 HD
BRANCH  12  14
HETATM   14  C7  UNL     1      29.020   2.122  35.414  1.00  0.00     0.709 A 
HETATM   15  N4  UNL     1      30.014   1.270  35.081  1.00  0.00    -0.135 N 
HETATM   16  C8  UNL     1      30.419   1.032  33.687  1.00  0.00     0.180 C 
HETATM   17  C9  UNL     1      30.707   0.601  36.022  1.00  0.00     0.346 A 
HETATM   18  O2  UNL     1      31.642  -0.201  35.684  1.00  0.00    -0.246 OA
HETATM   19  N5  UNL     1      30.431   0.766  37.303  1.00  0.00    -0.255 N 
HETATM   20  C10 UNL     1      31.156   0.066  38.343  1.00  0.00     0.166 C 
HETATM   21  C11 UNL     1      29.436   1.620  37.645  1.00  0.00     0.346 A 
HETATM   22  O3  UNL     1      29.206   1.748  38.869  1.00  0.00    -0.246 OA
HETATM   23  N6  UNL     1      28.729   2.295  36.765  1.00  0.00    -0.128 N 
BRANCH  23  24
HETATM   24  C12 UNL     1      27.683   3.190  37.116  1.00  0.00     0.187 C 
BRANCH  24  25
HETATM   25  C13 UNL     1      28.150   4.586  37.411  1.00  0.00     0.173 C 
BRANCH  25  26
HETATM   26  O4  UNL     1      29.222   4.828  36.504  1.00  0.00    -0.391 OA
ATOM     27  H4  UNL     1      28.811   5.013  35.668  1.00  0.00     0.210 HD
ENDBRANCH  25  26
BRANCH  25  28
HETATM   28  C14 UNL     1      27.117   5.630  37.019  1.00  0.00     0.217 C 
BRANCH  28  29
HETATM   29  O5  UNL     1      26.615   5.291  35.754  1.00  0.00    -0.385 OA
ATOM     30  H5  UNL     1      25.679   5.452  35.757  1.00  0.00     0.210 HD
ENDBRANCH  28  29
BRANCH  28  31
HETATM   31  C15 UNL     1      27.616   7.012  37.020  1.00  0.00     0.154 C 
HETATM   32  C16 UNL     1      26.900   8.006  36.135  1.00  0.00     0.093 C 
HETATM   33  O6  UNL     1      28.557   7.414  37.677  1.00  0.00    -0.295 OA
ENDBRANCH  28  31
ENDBRANCH  25  28
ENDBRANCH  24  25
ENDBRANCH  23  24
ENDBRANCH  12  14
ENDBRANCH  10  12
ENDBRANCH   4   9
BRANCH   5  34
HETATM   34  C18 UNL     1      26.029   4.523  30.244  1.00  0.00     0.080 A 
HETATM   35  N7  UNL     1      26.633   3.815  29.291  1.00  0.00    -0.323 N 
HETATM   36  S1  UNL     1      25.449   2.775  28.730  1.00  0.00    -0.014 SA
ATOM     37  H7  UNL     1      27.600   3.889  28.975  1.00  0.00     0.174 HD
HETATM   38  C19 UNL     1      24.157   3.258  29.732  1.00  0.00     0.035 A 
HETATM   39  C20 UNL     1      22.808   2.874  29.875  1.00  0.00     0.029 A 
HETATM   40  C25 UNL     1      24.721   4.247  30.493  1.00  0.00     0.014 A 
HETATM   41  C21 UNL     1      21.992   3.484  30.793  1.00  0.00    -0.036 A 
HETATM   42  C22 UNL     1      20.593   3.076  30.931  1.00  0.00     0.050 C 
HETATM   43  C23 UNL     1      22.558   4.472  31.550  1.00  0.00     0.053 A 
HETATM   44  N8  UNL     1      21.743   5.130  32.523  1.00  0.00    -0.102 NA
HETATM   45  C24 UNL     1      23.871   4.871  31.436  1.00  0.00     0.042 A 
ENDBRANCH   5  34
BRANCH   1  46
HETATM   46  C3  UNL     1      28.924   8.647  32.975  1.00  0.00     0.161 C 
BRANCH  46  47
HETATM   47  C2  UNL     1      30.363   8.560  32.551  1.00  0.00    -0.017 C 
HETATM   48  C1  UNL     1      31.306   8.624  33.480  1.00  0.00     0.008 C 
ENDBRANCH  46  47
ENDBRANCH   1  46
BRANCH   6  49
HETATM   49  N10 UNL     1      26.142   7.194  29.317  1.00  0.00    -0.336 N 
ATOM     50 2H10 UNL     1      25.896   6.450  28.664  1.00  0.00     0.177 HD
ATOM     51 1H10 UNL     1      25.906   8.168  29.125  1.00  0.00     0.177 HD
ENDBRANCH   6  49
TORSDOF 13
ENDMDL
