MODEL 1
REMARK VINA RESULT: -7.903791639      0.000      0.000
REMARK  12 active torsions:
REMARK  status: ('A' for Active; 'I' for Inactive)
REMARK    1  A    between atoms: C2_2  and  O1_3 
REMARK    2  A    between atoms: C2_2  and  N2_6 
REMARK    3  A    between atoms: C5_12  and  N5_13 
REMARK    4  A    between atoms: N5_13  and  C6_15 
REMARK    5  A    between atoms: C6_15  and  C7_16 
REMARK    6  A    between atoms: C7_16  and  O2_17 
REMARK    7  A    between atoms: C7_16  and  C8_19 
REMARK    8  A    between atoms: C8_19  and  N6_20 
REMARK    9  A    between atoms: C11_25  and  C12_26 
REMARK   10  A    between atoms: C13_29  and  N9_30 
REMARK   11  A    between atoms: C18_38  and  N11_39 
REMARK   12  A    between atoms: C27_57  and  N16_58 
ROOT
HETATM    1  O1  UNL     1      22.977   1.630  27.976  1.00  0.00    -0.256 OA
HETATM    2  C3  UNL     1      23.536   0.745  28.840  1.00  0.00     0.230 C 
HETATM    3  N1  UNL     1      24.005  -0.013  29.557  1.00  0.00    -0.164 NA
ENDROOT
BRANCH   1   4
HETATM    4  C2  UNL     1      21.857   2.416  28.336  1.00  0.00     0.261 C 
HETATM    5  C1  UNL     1      21.569   2.206  29.820  1.00  0.00     0.066 C 
BRANCH   4   6
HETATM    6  N2  UNL     1      22.167   3.803  28.055  1.00  0.00    -0.242 N 
HETATM    7  N3  UNL     1      21.266   4.452  27.305  1.00  0.00    -0.290 N 
HETATM    8  C4  UNL     1      21.414   5.737  26.964  1.00  0.00     0.199 A 
ATOM      9  H3  UNL     1      20.439   3.949  26.983  1.00  0.00     0.188 HD
HETATM   10  N4  UNL     1      22.502   6.445  27.373  1.00  0.00    -0.335 N 
HETATM   11  C5  UNL     1      23.406   5.802  28.123  1.00  0.00     0.148 A 
ATOM     12  H4  UNL     1      22.624   7.424  27.119  1.00  0.00     0.168 HD
HETATM   13  C27 UNL     1      23.244   4.446  28.479  1.00  0.00     0.163 A 
BRANCH  11  14
HETATM   14  N5  UNL     1      24.437   6.402  28.540  1.00  0.00    -0.371 N 
ATOM     15  H5  UNL     1      25.319   6.018  28.200  1.00  0.00     0.161 HD
BRANCH  14  16
HETATM   16  C6  UNL     1      24.573   7.522  29.402  1.00  0.00     0.154 C 
BRANCH  16  17
HETATM   17  C7  UNL     1      26.074   7.684  29.703  1.00  0.00     0.155 C 
BRANCH  17  18
HETATM   18  O2  UNL     1      26.534   8.500  28.636  1.00  0.00    -0.392 OA
ATOM     19  H2  UNL     1      26.594   9.362  29.031  1.00  0.00     0.210 HD
ENDBRANCH  17  18
BRANCH  17  20
HETATM   20  C8  UNL     1      26.678   6.315  29.515  1.00  0.00     0.181 C 
BRANCH  20  21
HETATM   21  N6  UNL     1      27.141   5.753  30.774  1.00  0.00    -0.298 N 
HETATM   22  C9  UNL     1      27.386   4.464  31.070  1.00  0.00     0.142 A 
HETATM   23  C10 UNL     1      27.796   4.348  32.378  1.00  0.00     0.081 A 
HETATM   24  N7  UNL     1      28.162   3.343  33.190  1.00  0.00    -0.348 N 
HETATM   25  C26 UNL     1      27.795   5.626  32.885  1.00  0.00     0.105 A 
HETATM   26  C11 UNL     1      28.527   3.517  34.480  1.00  0.00     0.108 A 
ATOM     27  H7  UNL     1      28.164   2.396  32.812  1.00  0.00     0.166 HD
HETATM   28  C23 UNL     1      28.526   4.782  34.989  1.00  0.00     0.093 A 
HETATM   29  N13 UNL     1      28.838   5.264  36.224  1.00  0.00    -0.348 N 
HETATM   30  C25 UNL     1      28.156   5.862  34.191  1.00  0.00     0.093 A 
HETATM   31  C24 UNL     1      28.665   6.619  36.190  1.00  0.00     0.181 A 
ATOM     32  H13 UNL     1      29.145   4.714  37.026  1.00  0.00     0.167 HD
HETATM   33  N14 UNL     1      28.255   6.954  34.957  1.00  0.00    -0.349 N 
ATOM     34  H14 UNL     1      28.048   7.904  34.650  1.00  0.00     0.167 HD
HETATM   35  N15 UNL     1      27.391   6.431  31.875  1.00  0.00    -0.294 N 
ATOM     36  H15 UNL     1      27.292   7.443  31.956  1.00  0.00     0.187 HD
BRANCH  26  37
HETATM   37  C12 UNL     1      28.943   2.367  35.282  1.00  0.00     0.165 A 
HETATM   38  N8  UNL     1      30.184   2.062  35.592  1.00  0.00    -0.173 N 
HETATM   39  C13 UNL     1      30.582   0.995  36.302  1.00  0.00     0.696 A 
ATOM     40  H8  UNL     1      30.912   2.696  35.263  1.00  0.00     0.186 HD
HETATM   41  N10 UNL     1      29.605   0.171  36.727  1.00  0.00    -0.022 N 
HETATM   42  C18 UNL     1      28.315   0.411  36.454  1.00  0.00     0.696 A 
ATOM     43  H10 UNL     1      29.853  -0.657  37.270  1.00  0.00     0.203 HD
HETATM   44  N12 UNL     1      27.985   1.496  35.741  1.00  0.00    -0.173 N 
ATOM     45  H12 UNL     1      27.004   1.679  35.535  1.00  0.00     0.186 HD
BRANCH  39  46
HETATM   46  N9  UNL     1      31.923   0.718  36.621  1.00  0.00    -0.213 N 
HETATM   47  C14 UNL     1      32.506  -0.599  36.560  1.00  0.00     0.167 C 
HETATM   48  C15 UNL     1      34.014  -0.367  36.378  1.00  0.00     0.188 C 
HETATM   49  O3  UNL     1      34.543   0.195  37.517  1.00  0.00    -0.388 OA
HETATM   50  C16 UNL     1      33.710   1.112  38.131  1.00  0.00     0.188 C 
HETATM   51  C17 UNL     1      32.841   1.781  37.058  1.00  0.00     0.167 C 
ENDBRANCH  39  46
BRANCH  42  52
HETATM   52  N11 UNL     1      27.362  -0.505  36.935  1.00  0.00    -0.213 N 
HETATM   53  C19 UNL     1      27.436  -0.943  38.309  1.00  0.00     0.167 C 
HETATM   54  C20 UNL     1      26.280  -1.910  38.523  1.00  0.00     0.188 C 
HETATM   55  O4  UNL     1      26.334  -2.926  37.582  1.00  0.00    -0.388 OA
HETATM   56  C21 UNL     1      26.120  -2.511  36.288  1.00  0.00     0.188 C 
HETATM   57  C22 UNL     1      26.330  -1.014  36.090  1.00  0.00     0.167 C 
ENDBRANCH  42  52
ENDBRANCH  26  37
ENDBRANCH  20  21
ENDBRANCH  17  20
ENDBRANCH  16  17
ENDBRANCH  14  16
ENDBRANCH  11  14
BRANCH  13  58
HETATM   58  N16 UNL     1      24.124   3.885  29.198  1.00  0.00    -0.381 N 
ATOM     59 2H16 UNL     1      24.358   4.288  30.106  1.00  0.00     0.157 HD
ATOM     60 1H16 UNL     1      24.603   3.034  28.903  1.00  0.00     0.157 HD
ENDBRANCH  13  58
ENDBRANCH   4   6
ENDBRANCH   1   4
TORSDOF 12
ENDMDL
MODEL 2
REMARK VINA RESULT: -7.827864226      0.343      3.763
REMARK  12 active torsions:
REMARK  status: ('A' for Active; 'I' for Inactive)
REMARK    1  A    between atoms: C2_2  and  O1_3 
REMARK    2  A    between atoms: C2_2  and  N2_6 
REMARK    3  A    between atoms: C5_12  and  N5_13 
REMARK    4  A    between atoms: N5_13  and  C6_15 
REMARK    5  A    between atoms: C6_15  and  C7_16 
REMARK    6  A    between atoms: C7_16  and  O2_17 
REMARK    7  A    between atoms: C7_16  and  C8_19 
REMARK    8  A    between atoms: C8_19  and  N6_20 
REMARK    9  A    between atoms: C11_25  and  C12_26 
REMARK   10  A    between atoms: C13_29  and  N9_30 
REMARK   11  A    between atoms: C18_38  and  N11_39 
REMARK   12  A    between atoms: C27_57  and  N16_58 
ROOT
HETATM    1  O1  UNL     1      23.220   1.633  28.184  1.00  0.00    -0.256 OA
HETATM    2  C3  UNL     1      23.654   0.648  29.010  1.00  0.00     0.230 C 
HETATM    3  N1  UNL     1      24.022  -0.193  29.694  1.00  0.00    -0.164 NA
ENDROOT
BRANCH   1   4
HETATM    4  C2  UNL     1      21.976   2.279  28.383  1.00  0.00     0.261 C 
HETATM    5  C1  UNL     1      21.466   1.935  29.780  1.00  0.00     0.066 C 
BRANCH   4   6
HETATM    6  N2  UNL     1      22.178   3.706  28.237  1.00  0.00    -0.242 N 
HETATM    7  N3  UNL     1      21.341   4.320  27.390  1.00  0.00    -0.290 N 
HETATM    8  C4  UNL     1      21.404   5.635  27.153  1.00  0.00     0.199 A 
ATOM      9  H3  UNL     1      20.632   3.766  26.910  1.00  0.00     0.188 HD
HETATM   10  N4  UNL     1      22.334   6.411  27.773  1.00  0.00    -0.335 N 
HETATM   11  C5  UNL     1      23.173   5.804  28.620  1.00  0.00     0.148 A 
ATOM     12  H4  UNL     1      22.389   7.414  27.599  1.00  0.00     0.168 HD
HETATM   13  C27 UNL     1      23.103   4.416  28.866  1.00  0.00     0.163 A 
BRANCH  11  14
HETATM   14  N5  UNL     1      24.058   6.466  29.233  1.00  0.00    -0.371 N 
ATOM     15  H5  UNL     1      24.415   6.021  30.078  1.00  0.00     0.161 HD
BRANCH  14  16
HETATM   16  C6  UNL     1      24.639   7.728  28.939  1.00  0.00     0.154 C 
BRANCH  16  17
HETATM   17  C7  UNL     1      26.066   7.716  29.517  1.00  0.00     0.155 C 
BRANCH  17  18
HETATM   18  O2  UNL     1      26.794   8.521  28.602  1.00  0.00    -0.392 OA
ATOM     19  H2  UNL     1      26.234   9.279  28.484  1.00  0.00     0.210 HD
ENDBRANCH  17  18
BRANCH  17  20
HETATM   20  C8  UNL     1      26.558   6.300  29.362  1.00  0.00     0.181 C 
BRANCH  20  21
HETATM   21  N6  UNL     1      27.036   5.754  30.622  1.00  0.00    -0.298 N 
HETATM   22  C9  UNL     1      27.264   4.467  30.938  1.00  0.00     0.142 A 
HETATM   23  C10 UNL     1      27.699   4.368  32.239  1.00  0.00     0.081 A 
HETATM   24  N7  UNL     1      28.062   3.373  33.064  1.00  0.00    -0.348 N 
HETATM   25  C26 UNL     1      27.731   5.656  32.721  1.00  0.00     0.105 A 
HETATM   26  C11 UNL     1      28.457   3.565  34.343  1.00  0.00     0.108 A 
ATOM     27  H7  UNL     1      28.039   2.418  32.705  1.00  0.00     0.166 HD
HETATM   28  C23 UNL     1      28.490   4.839  34.826  1.00  0.00     0.093 A 
HETATM   29  N13 UNL     1      28.837   5.340  36.044  1.00  0.00    -0.348 N 
HETATM   30  C25 UNL     1      28.124   5.911  34.014  1.00  0.00     0.093 A 
HETATM   31  C24 UNL     1      28.688   6.696  35.987  1.00  0.00     0.181 A 
ATOM     32  H13 UNL     1      29.150   4.800  36.851  1.00  0.00     0.167 HD
HETATM   33  N14 UNL     1      28.259   7.015  34.757  1.00  0.00    -0.349 N 
ATOM     34  H14 UNL     1      28.063   7.963  34.435  1.00  0.00     0.167 HD
HETATM   35  N15 UNL     1      27.322   6.448  31.703  1.00  0.00    -0.294 N 
ATOM     36  H15 UNL     1      27.243   7.463  31.767  1.00  0.00     0.187 HD
BRANCH  26  37
HETATM   37  C12 UNL     1      28.869   2.423  35.159  1.00  0.00     0.165 A 
HETATM   38  N8  UNL     1      28.056   1.552  35.716  1.00  0.00    -0.173 N 
HETATM   39  C13 UNL     1      28.418   0.517  36.491  1.00  0.00     0.696 A 
ATOM     40  H8  UNL     1      27.058   1.674  35.544  1.00  0.00     0.186 HD
HETATM   41  N10 UNL     1      29.739   0.374  36.706  1.00  0.00    -0.022 N 
HETATM   42  C18 UNL     1      30.633   1.219  36.173  1.00  0.00     0.696 A 
ATOM     43  H10 UNL     1      30.068  -0.396  37.289  1.00  0.00     0.203 HD
HETATM   44  N12 UNL     1      30.205   2.232  35.408  1.00  0.00    -0.173 N 
ATOM     45  H12 UNL     1      30.886   2.873  35.002  1.00  0.00     0.186 HD
BRANCH  39  46
HETATM   46  N9  UNL     1      27.511  -0.398  37.054  1.00  0.00    -0.213 N 
HETATM   47  C14 UNL     1      27.585  -0.864  38.417  1.00  0.00     0.167 C 
HETATM   48  C15 UNL     1      26.157  -1.307  38.771  1.00  0.00     0.188 C 
HETATM   49  O3  UNL     1      25.816  -2.422  38.040  1.00  0.00    -0.388 OA
HETATM   50  C16 UNL     1      26.301  -2.416  36.746  1.00  0.00     0.188 C 
HETATM   51  C17 UNL     1      26.404  -0.961  36.267  1.00  0.00     0.167 C 
ENDBRANCH  39  46
BRANCH  42  52
HETATM   52  N11 UNL     1      31.994   0.996  36.454  1.00  0.00    -0.213 N 
HETATM   53  C19 UNL     1      32.568  -0.299  36.175  1.00  0.00     0.167 C 
HETATM   54  C20 UNL     1      34.035  -0.223  36.573  1.00  0.00     0.188 C 
HETATM   55  O4  UNL     1      34.145   0.194  37.890  1.00  0.00    -0.388 OA
HETATM   56  C21 UNL     1      33.724   1.484  38.113  1.00  0.00     0.188 C 
HETATM   57  C22 UNL     1      32.813   2.022  37.014  1.00  0.00     0.167 C 
ENDBRANCH  42  52
ENDBRANCH  26  37
ENDBRANCH  20  21
ENDBRANCH  17  20
ENDBRANCH  16  17
ENDBRANCH  14  16
ENDBRANCH  11  14
BRANCH  13  58
HETATM   58  N16 UNL     1      23.915   3.889  29.685  1.00  0.00    -0.381 N 
ATOM     59 2H16 UNL     1      24.611   3.227  29.341  1.00  0.00     0.157 HD
ATOM     60 1H16 UNL     1      23.901   4.112  30.680  1.00  0.00     0.157 HD
ENDBRANCH  13  58
ENDBRANCH   4   6
ENDBRANCH   1   4
TORSDOF 12
ENDMDL
MODEL 3
REMARK VINA RESULT: -7.788663066      5.386      9.517
REMARK  12 active torsions:
REMARK  status: ('A' for Active; 'I' for Inactive)
REMARK    1  A    between atoms: C2_2  and  O1_3 
REMARK    2  A    between atoms: C2_2  and  N2_6 
REMARK    3  A    between atoms: C5_12  and  N5_13 
REMARK    4  A    between atoms: N5_13  and  C6_15 
REMARK    5  A    between atoms: C6_15  and  C7_16 
REMARK    6  A    between atoms: C7_16  and  O2_17 
REMARK    7  A    between atoms: C7_16  and  C8_19 
REMARK    8  A    between atoms: C8_19  and  N6_20 
REMARK    9  A    between atoms: C11_25  and  C12_26 
REMARK   10  A    between atoms: C13_29  and  N9_30 
REMARK   11  A    between atoms: C18_38  and  N11_39 
REMARK   12  A    between atoms: C27_57  and  N16_58 
ROOT
HETATM    1  O1  UNL     1      16.857   7.618  23.219  1.00  0.00    -0.256 OA
HETATM    2  C3  UNL     1      17.293   8.750  23.826  1.00  0.00     0.230 C 
HETATM    3  N1  UNL     1      17.646   9.712  24.335  1.00  0.00    -0.164 NA
ENDROOT
BRANCH   1   4
HETATM    4  C2  UNL     1      17.576   7.016  22.158  1.00  0.00     0.261 C 
HETATM    5  C1  UNL     1      18.058   8.112  21.212  1.00  0.00     0.066 C 
BRANCH   4   6
HETATM    6  N2  UNL     1      18.692   6.287  22.725  1.00  0.00    -0.242 N 
HETATM    7  N3  UNL     1      19.906   6.703  22.338  1.00  0.00    -0.290 N 
HETATM    8  C4  UNL     1      21.031   6.129  22.778  1.00  0.00     0.199 A 
ATOM      9  H3  UNL     1      19.973   7.484  21.685  1.00  0.00     0.188 HD
HETATM   10  N4  UNL     1      20.985   5.085  23.650  1.00  0.00    -0.335 N 
HETATM   11  C5  UNL     1      19.776   4.664  24.041  1.00  0.00     0.148 A 
ATOM     12  H4  UNL     1      21.837   4.641  23.991  1.00  0.00     0.168 HD
HETATM   13  C27 UNL     1      18.592   5.273  23.572  1.00  0.00     0.163 A 
BRANCH  11  14
HETATM   14  N5  UNL     1      19.662   3.702  24.852  1.00  0.00    -0.371 N 
ATOM     15  H5  UNL     1      18.703   3.399  25.021  1.00  0.00     0.161 HD
BRANCH  14  16
HETATM   16  C6  UNL     1      20.648   2.972  25.567  1.00  0.00     0.154 C 
BRANCH  16  17
HETATM   17  C7  UNL     1      20.423   3.251  27.064  1.00  0.00     0.155 C 
BRANCH  17  18
HETATM   18  O2  UNL     1      19.044   2.965  27.244  1.00  0.00    -0.392 OA
ATOM     19  H2  UNL     1      19.025   2.017  27.312  1.00  0.00     0.210 HD
ENDBRANCH  17  18
BRANCH  17  20
HETATM   20  C8  UNL     1      20.599   4.739  27.233  1.00  0.00     0.181 C 
BRANCH  20  21
HETATM   21  N6  UNL     1      21.872   5.063  27.857  1.00  0.00    -0.298 N 
HETATM   22  C9  UNL     1      22.381   6.278  28.127  1.00  0.00     0.142 A 
HETATM   23  C10 UNL     1      23.621   6.153  28.710  1.00  0.00     0.081 A 
HETATM   24  N7  UNL     1      24.560   6.995  29.173  1.00  0.00    -0.348 N 
HETATM   25  C26 UNL     1      23.862   4.802  28.791  1.00  0.00     0.105 A 
HETATM   26  C11 UNL     1      25.731   6.587  29.712  1.00  0.00     0.108 A 
ATOM     27  H7  UNL     1      24.379   7.997  29.114  1.00  0.00     0.166 HD
HETATM   28  C23 UNL     1      25.977   5.249  29.792  1.00  0.00     0.093 A 
HETATM   29  N13 UNL     1      27.040   4.548  30.274  1.00  0.00    -0.348 N 
HETATM   30  C25 UNL     1      25.037   4.331  29.328  1.00  0.00     0.093 A 
HETATM   31  C24 UNL     1      26.764   3.220  30.112  1.00  0.00     0.181 A 
ATOM     32  H13 UNL     1      27.888   4.943  30.682  1.00  0.00     0.167 HD
HETATM   33  N14 UNL     1      25.554   3.116  29.541  1.00  0.00    -0.349 N 
ATOM     34  H14 UNL     1      25.095   2.236  29.304  1.00  0.00     0.167 HD
HETATM   35  N15 UNL     1      22.775   4.194  28.261  1.00  0.00    -0.294 N 
ATOM     36  H15 UNL     1      22.668   3.182  28.185  1.00  0.00     0.187 HD
BRANCH  26  37
HETATM   37  C12 UNL     1      26.682   7.575  30.221  1.00  0.00     0.165 A 
HETATM   38  N8  UNL     1      27.389   7.454  31.324  1.00  0.00    -0.173 N 
HETATM   39  C13 UNL     1      28.244   8.365  31.818  1.00  0.00     0.696 A 
ATOM     40  H8  UNL     1      27.279   6.589  31.852  1.00  0.00     0.186 HD
HETATM   41  N10 UNL     1      28.374   9.500  31.106  1.00  0.00    -0.022 N 
HETATM   42  C18 UNL     1      27.690   9.700  29.971  1.00  0.00     0.696 A 
ATOM     43  H10 UNL     1      29.010  10.226  31.438  1.00  0.00     0.203 HD
HETATM   44  N12 UNL     1      26.854   8.750  29.531  1.00  0.00    -0.173 N 
ATOM     45  H12 UNL     1      26.335   8.902  28.667  1.00  0.00     0.186 HD
BRANCH  39  46
HETATM   46  N9  UNL     1      28.989   8.184  32.996  1.00  0.00    -0.213 N 
HETATM   47  C14 UNL     1      28.482   7.520  34.172  1.00  0.00     0.167 C 
HETATM   48  C15 UNL     1      29.726   7.016  34.920  1.00  0.00     0.188 C 
HETATM   49  O3  UNL     1      30.444   8.083  35.407  1.00  0.00    -0.388 OA
HETATM   50  C16 UNL     1      30.467   9.178  34.563  1.00  0.00     0.188 C 
HETATM   51  C17 UNL     1      30.367   8.683  33.114  1.00  0.00     0.167 C 
ENDBRANCH  39  46
BRANCH  42  52
HETATM   52  N11 UNL     1      27.886  10.917  29.293  1.00  0.00    -0.213 N 
HETATM   53  C19 UNL     1      27.253  11.120  28.011  1.00  0.00     0.167 C 
HETATM   54  C20 UNL     1      27.644  12.515  27.545  1.00  0.00     0.188 C 
HETATM   55  O4  UNL     1      29.025  12.642  27.543  1.00  0.00    -0.388 OA
HETATM   56  C21 UNL     1      29.600  12.588  28.791  1.00  0.00     0.188 C 
HETATM   57  C22 UNL     1      28.702  11.950  29.845  1.00  0.00     0.167 C 
ENDBRANCH  42  52
ENDBRANCH  26  37
ENDBRANCH  20  21
ENDBRANCH  17  20
ENDBRANCH  16  17
ENDBRANCH  14  16
ENDBRANCH  11  14
BRANCH  13  58
HETATM   58  N16 UNL     1      17.471   4.844  23.980  1.00  0.00    -0.381 N 
ATOM     59 2H16 UNL     1      16.657   5.458  23.939  1.00  0.00     0.157 HD
ATOM     60 1H16 UNL     1      17.352   3.898  24.341  1.00  0.00     0.157 HD
ENDBRANCH  13  58
ENDBRANCH   4   6
ENDBRANCH   1   4
TORSDOF 12
ENDMDL
MODEL 4
REMARK VINA RESULT: -7.718914614      4.428      8.532
REMARK  12 active torsions:
REMARK  status: ('A' for Active; 'I' for Inactive)
REMARK    1  A    between atoms: C2_2  and  O1_3 
REMARK    2  A    between atoms: C2_2  and  N2_6 
REMARK    3  A    between atoms: C5_12  and  N5_13 
REMARK    4  A    between atoms: N5_13  and  C6_15 
REMARK    5  A    between atoms: C6_15  and  C7_16 
REMARK    6  A    between atoms: C7_16  and  O2_17 
REMARK    7  A    between atoms: C7_16  and  C8_19 
REMARK    8  A    between atoms: C8_19  and  N6_20 
REMARK    9  A    between atoms: C11_25  and  C12_26 
REMARK   10  A    between atoms: C13_29  and  N9_30 
REMARK   11  A    between atoms: C18_38  and  N11_39 
REMARK   12  A    between atoms: C27_57  and  N16_58 
ROOT
HETATM    1  O1  UNL     1      22.482   6.693  26.070  1.00  0.00    -0.256 OA
HETATM    2  C3  UNL     1      23.117   7.717  26.692  1.00  0.00     0.230 C 
HETATM    3  N1  UNL     1      23.665   8.572  27.221  1.00  0.00    -0.164 NA
ENDROOT
BRANCH   1   4
HETATM    4  C2  UNL     1      21.122   6.393  26.328  1.00  0.00     0.261 C 
HETATM    5  C1  UNL     1      20.272   6.982  25.205  1.00  0.00     0.066 C 
BRANCH   4   6
HETATM    6  N2  UNL     1      20.980   4.953  26.390  1.00  0.00    -0.242 N 
HETATM    7  N3  UNL     1      20.367   4.390  25.341  1.00  0.00    -0.290 N 
HETATM    8  C4  UNL     1      20.164   3.071  25.255  1.00  0.00     0.199 A 
ATOM      9  H3  UNL     1      20.043   4.989  24.581  1.00  0.00     0.188 HD
HETATM   10  N4  UNL     1      20.581   2.237  26.247  1.00  0.00    -0.335 N 
HETATM   11  C5  UNL     1      21.195   2.792  27.298  1.00  0.00     0.148 A 
ATOM     12  H4  UNL     1      20.432   1.230  26.191  1.00  0.00     0.168 HD
HETATM   13  C27 UNL     1      21.405   4.185  27.383  1.00  0.00     0.163 A 
BRANCH  11  14
HETATM   14  N5  UNL     1      21.610   2.074  28.252  1.00  0.00    -0.371 N 
ATOM     15  H5  UNL     1      21.148   2.245  29.145  1.00  0.00     0.161 HD
BRANCH  14  16
HETATM   16  C6  UNL     1      22.613   1.070  28.287  1.00  0.00     0.154 C 
BRANCH  16  17
HETATM   17  C7  UNL     1      23.671   1.521  29.310  1.00  0.00     0.155 C 
BRANCH  17  18
HETATM   18  O2  UNL     1      22.973   2.469  30.103  1.00  0.00    -0.392 OA
ATOM     19  H2  UNL     1      22.468   1.926  30.698  1.00  0.00     0.210 HD
ENDBRANCH  17  18
BRANCH  17  20
HETATM   20  C8  UNL     1      24.710   2.275  28.519  1.00  0.00     0.181 C 
BRANCH  20  21
HETATM   21  N6  UNL     1      25.410   3.250  29.339  1.00  0.00    -0.298 N 
HETATM   22  C9  UNL     1      25.700   4.530  29.046  1.00  0.00     0.142 A 
HETATM   23  C10 UNL     1      26.386   5.111  30.086  1.00  0.00     0.081 A 
HETATM   24  N7  UNL     1      26.913   6.320  30.340  1.00  0.00    -0.348 N 
HETATM   25  C26 UNL     1      26.512   4.133  31.044  1.00  0.00     0.105 A 
HETATM   26  C11 UNL     1      27.563   6.628  31.485  1.00  0.00     0.108 A 
ATOM     27  H7  UNL     1      26.818   7.046  29.630  1.00  0.00     0.166 HD
HETATM   28  C23 UNL     1      27.693   5.662  32.438  1.00  0.00     0.093 A 
HETATM   29  N13 UNL     1      28.280   5.670  33.666  1.00  0.00    -0.348 N 
HETATM   30  C25 UNL     1      27.164   4.390  32.227  1.00  0.00     0.093 A 
HETATM   31  C24 UNL     1      28.118   4.426  34.206  1.00  0.00     0.181 A 
ATOM     32  H13 UNL     1      28.754   6.461  34.103  1.00  0.00     0.167 HD
HETATM   33  N14 UNL     1      27.444   3.675  33.322  1.00  0.00    -0.349 N 
ATOM     34  H14 UNL     1      27.184   2.699  33.465  1.00  0.00     0.167 HD
HETATM   35  N15 UNL     1      25.906   3.033  30.539  1.00  0.00    -0.294 N 
ATOM     36  H15 UNL     1      25.841   2.141  31.031  1.00  0.00     0.187 HD
BRANCH  26  37
HETATM   37  C12 UNL     1      28.076   7.982  31.691  1.00  0.00     0.165 A 
HETATM   38  N8  UNL     1      28.651   8.422  32.789  1.00  0.00    -0.173 N 
HETATM   39  C13 UNL     1      29.100   9.669  33.001  1.00  0.00     0.696 A 
ATOM     40  H8  UNL     1      28.767   7.753  33.550  1.00  0.00     0.186 HD
HETATM   41  N10 UNL     1      28.937  10.537  31.985  1.00  0.00    -0.022 N 
HETATM   42  C18 UNL     1      28.361  10.167  30.832  1.00  0.00     0.696 A 
ATOM     43  H10 UNL     1      29.259  11.499  32.094  1.00  0.00     0.203 HD
HETATM   44  N12 UNL     1      27.936   8.906  30.684  1.00  0.00    -0.173 N 
ATOM     45  H12 UNL     1      27.499   8.626  29.806  1.00  0.00     0.186 HD
BRANCH  39  46
HETATM   46  N9  UNL     1      29.722  10.088  34.190  1.00  0.00    -0.213 N 
HETATM   47  C14 UNL     1      31.006  10.745  34.235  1.00  0.00     0.167 C 
HETATM   48  C15 UNL     1      31.010  11.536  35.552  1.00  0.00     0.188 C 
HETATM   49  O3  UNL     1      31.025  10.669  36.621  1.00  0.00    -0.388 OA
HETATM   50  C16 UNL     1      30.266   9.530  36.431  1.00  0.00     0.188 C 
HETATM   51  C17 UNL     1      29.093   9.870  35.502  1.00  0.00     0.167 C 
ENDBRANCH  39  46
BRANCH  42  52
HETATM   52  N11 UNL     1      28.229  11.141  29.824  1.00  0.00    -0.213 N 
HETATM   53  C19 UNL     1      27.339  10.891  28.715  1.00  0.00     0.167 C 
HETATM   54  C20 UNL     1      27.408  12.115  27.814  1.00  0.00     0.188 C 
HETATM   55  O4  UNL     1      28.724  12.369  27.462  1.00  0.00    -0.388 OA
HETATM   56  C21 UNL     1      29.529  12.745  28.513  1.00  0.00     0.188 C 
HETATM   57  C22 UNL     1      28.961  12.365  29.876  1.00  0.00     0.167 C 
ENDBRANCH  42  52
ENDBRANCH  26  37
ENDBRANCH  20  21
ENDBRANCH  17  20
ENDBRANCH  16  17
ENDBRANCH  14  16
ENDBRANCH  11  14
BRANCH  13  58
HETATM   58  N16 UNL     1      21.999   4.662  28.396  1.00  0.00    -0.381 N 
ATOM     59 2H16 UNL     1      21.448   4.998  29.186  1.00  0.00     0.157 HD
ATOM     60 1H16 UNL     1      23.016   4.714  28.452  1.00  0.00     0.157 HD
ENDBRANCH  13  58
ENDBRANCH   4   6
ENDBRANCH   1   4
TORSDOF 12
ENDMDL
MODEL 5
REMARK VINA RESULT: -7.689424108      1.410      2.270
REMARK  12 active torsions:
REMARK  status: ('A' for Active; 'I' for Inactive)
REMARK    1  A    between atoms: C2_2  and  O1_3 
REMARK    2  A    between atoms: C2_2  and  N2_6 
REMARK    3  A    between atoms: C5_12  and  N5_13 
REMARK    4  A    between atoms: N5_13  and  C6_15 
REMARK    5  A    between atoms: C6_15  and  C7_16 
REMARK    6  A    between atoms: C7_16  and  O2_17 
REMARK    7  A    between atoms: C7_16  and  C8_19 
REMARK    8  A    between atoms: C8_19  and  N6_20 
REMARK    9  A    between atoms: C11_25  and  C12_26 
REMARK   10  A    between atoms: C13_29  and  N9_30 
REMARK   11  A    between atoms: C18_38  and  N11_39 
REMARK   12  A    between atoms: C27_57  and  N16_58 
ROOT
HETATM    1  O1  UNL     1      19.764   3.324  25.457  1.00  0.00    -0.256 OA
HETATM    2  C3  UNL     1      20.363   3.884  24.377  1.00  0.00     0.230 C 
HETATM    3  N1  UNL     1      20.876   4.343  23.463  1.00  0.00    -0.164 NA
ENDROOT
BRANCH   1   4
HETATM    4  C2  UNL     1      19.854   3.905  26.745  1.00  0.00     0.261 C 
HETATM    5  C1  UNL     1      18.575   3.586  27.515  1.00  0.00     0.066 C 
BRANCH   4   6
HETATM    6  N2  UNL     1      21.016   3.353  27.411  1.00  0.00    -0.242 N 
HETATM    7  N3  UNL     1      21.140   2.021  27.338  1.00  0.00    -0.290 N 
HETATM    8  C4  UNL     1      22.162   1.367  27.902  1.00  0.00     0.199 A 
ATOM      9  H3  UNL     1      20.431   1.487  26.835  1.00  0.00     0.188 HD
HETATM   10  N4  UNL     1      23.129   2.042  28.582  1.00  0.00    -0.335 N 
HETATM   11  C5  UNL     1      23.011   3.373  28.658  1.00  0.00     0.148 A 
ATOM     12  H4  UNL     1      23.912   1.553  29.015  1.00  0.00     0.168 HD
HETATM   13  C27 UNL     1      21.931   4.056  28.061  1.00  0.00     0.163 A 
BRANCH  11  14
HETATM   14  N5  UNL     1      23.877   4.060  29.271  1.00  0.00    -0.371 N 
ATOM     15  H5  UNL     1      23.632   4.293  30.233  1.00  0.00     0.161 HD
BRANCH  14  16
HETATM   16  C6  UNL     1      25.134   4.561  28.842  1.00  0.00     0.154 C 
BRANCH  16  17
HETATM   17  C7  UNL     1      25.250   6.004  29.367  1.00  0.00     0.155 C 
BRANCH  17  18
HETATM   18  O2  UNL     1      24.847   6.788  28.254  1.00  0.00    -0.392 OA
ATOM     19  H2  UNL     1      25.386   6.454  27.546  1.00  0.00     0.210 HD
ENDBRANCH  17  18
BRANCH  17  20
HETATM   20  C8  UNL     1      26.723   6.246  29.579  1.00  0.00     0.181 C 
BRANCH  20  21
HETATM   21  N6  UNL     1      27.186   5.685  30.838  1.00  0.00    -0.298 N 
HETATM   22  C9  UNL     1      27.425   4.396  31.137  1.00  0.00     0.142 A 
HETATM   23  C10 UNL     1      27.838   4.282  32.444  1.00  0.00     0.081 A 
HETATM   24  N7  UNL     1      28.201   3.278  33.258  1.00  0.00    -0.348 N 
HETATM   25  C26 UNL     1      27.845   5.561  32.948  1.00  0.00     0.105 A 
HETATM   26  C11 UNL     1      28.571   3.454  34.547  1.00  0.00     0.108 A 
ATOM     27  H7  UNL     1      28.197   2.329  32.884  1.00  0.00     0.166 HD
HETATM   28  C23 UNL     1      28.577   4.720  35.052  1.00  0.00     0.093 A 
HETATM   29  N13 UNL     1      28.896   5.204  36.284  1.00  0.00    -0.348 N 
HETATM   30  C25 UNL     1      28.211   5.800  34.251  1.00  0.00     0.093 A 
HETATM   31  C24 UNL     1      28.729   6.560  36.247  1.00  0.00     0.181 A 
ATOM     32  H13 UNL     1      29.202   4.655  37.088  1.00  0.00     0.167 HD
HETATM   33  N14 UNL     1      28.318   6.893  35.015  1.00  0.00    -0.349 N 
ATOM     34  H14 UNL     1      28.115   7.843  34.705  1.00  0.00     0.167 HD
HETATM   35  N15 UNL     1      27.443   6.365  31.936  1.00  0.00    -0.294 N 
ATOM     36  H15 UNL     1      27.349   7.378  32.015  1.00  0.00     0.187 HD
BRANCH  26  37
HETATM   37  C12 UNL     1      28.983   2.304  35.351  1.00  0.00     0.165 A 
HETATM   38  N8  UNL     1      30.224   1.992  35.656  1.00  0.00    -0.173 N 
HETATM   39  C13 UNL     1      30.618   0.924  36.368  1.00  0.00     0.696 A 
ATOM     40  H8  UNL     1      30.955   2.619  35.320  1.00  0.00     0.186 HD
HETATM   41  N10 UNL     1      29.638   0.109  36.802  1.00  0.00    -0.022 N 
HETATM   42  C18 UNL     1      28.348   0.357  36.535  1.00  0.00     0.696 A 
ATOM     43  H10 UNL     1      29.884  -0.719  37.346  1.00  0.00     0.203 HD
HETATM   44  N12 UNL     1      28.022   1.441  35.819  1.00  0.00    -0.173 N 
ATOM     45  H12 UNL     1      27.041   1.630  35.618  1.00  0.00     0.186 HD
BRANCH  39  46
HETATM   46  N9  UNL     1      31.959   0.639  36.680  1.00  0.00    -0.213 N 
HETATM   47  C14 UNL     1      32.522  -0.688  36.662  1.00  0.00     0.167 C 
HETATM   48  C15 UNL     1      34.031  -0.486  36.452  1.00  0.00     0.188 C 
HETATM   49  O3  UNL     1      34.583   0.110  37.563  1.00  0.00    -0.388 OA
HETATM   50  C16 UNL     1      33.771   1.062  38.152  1.00  0.00     0.188 C 
HETATM   51  C17 UNL     1      32.898   1.704  37.066  1.00  0.00     0.167 C 
ENDBRANCH  39  46
BRANCH  42  52
HETATM   52  N11 UNL     1      27.391  -0.551  37.025  1.00  0.00    -0.213 N 
HETATM   53  C19 UNL     1      27.448  -0.954  38.410  1.00  0.00     0.167 C 
HETATM   54  C20 UNL     1      26.292  -1.919  38.632  1.00  0.00     0.188 C 
HETATM   55  O4  UNL     1      26.362  -2.958  37.717  1.00  0.00    -0.388 OA
HETATM   56  C21 UNL     1      26.165  -2.576  36.411  1.00  0.00     0.188 C 
HETATM   57  C22 UNL     1      26.373  -1.084  36.179  1.00  0.00     0.167 C 
ENDBRANCH  42  52
ENDBRANCH  26  37
ENDBRANCH  20  21
ENDBRANCH  17  20
ENDBRANCH  16  17
ENDBRANCH  14  16
ENDBRANCH  11  14
BRANCH  13  58
HETATM   58  N16 UNL     1      21.868   5.319  28.154  1.00  0.00    -0.381 N 
ATOM     59 2H16 UNL     1      22.029   5.889  27.323  1.00  0.00     0.157 HD
ATOM     60 1H16 UNL     1      21.654   5.787  29.034  1.00  0.00     0.157 HD
ENDBRANCH  13  58
ENDBRANCH   4   6
ENDBRANCH   1   4
TORSDOF 12
ENDMDL
