MODEL 1
REMARK VINA RESULT: -6.498015974      0.000      0.000
REMARK  17 active torsions:
REMARK  status: ('A' for Active; 'I' for Inactive)
REMARK    1  A    between atoms: O1_2  and  C2_3 
REMARK    2  A    between atoms: C2_3  and  O2_5 
REMARK    3  A    between atoms: C2_3  and  C4_7 
REMARK    4  A    between atoms: C4_7  and  O3_8 
REMARK    5  A    between atoms: C4_7  and  O4_10 
REMARK    6  A    between atoms: C4_7  and  C22_40 
REMARK    7  A    between atoms: O4_10  and  C5_11 
REMARK    8  A    between atoms: C6_12  and  O5_13 
REMARK    9  A    between atoms: O5_13  and  S1_14 
REMARK   10  A    between atoms: C13_25  and  O10_26 
REMARK   11  A    between atoms: O10_26  and  C14_27 
REMARK   12  A    between atoms: C16_30  and  O12_31 
REMARK   13  A    between atoms: O12_31  and  C17_32 
REMARK   14  A    between atoms: C19_35  and  O14_36 
REMARK   15  A    between atoms: O14_36  and  C20_37 
REMARK   16  A    between atoms: C22_40  and  O17_42 
REMARK   17  A    between atoms: O17_42  and  C23_43 
ROOT
HETATM    1  C5  UNL     1      21.253   4.221  28.234  1.00  0.00     0.122 A 
HETATM    2  C6  UNL     1      20.369   3.451  29.020  1.00  0.00     0.127 A 
HETATM    3  C7  UNL     1      19.036   3.270  28.757  1.00  0.00     0.048 A 
HETATM    4  C8  UNL     1      18.498   3.875  27.657  1.00  0.00    -0.049 A 
HETATM    5  C9  UNL     1      17.063   3.682  27.360  1.00  0.00     0.049 C 
HETATM    6  C10 UNL     1      19.303   4.631  26.863  1.00  0.00    -0.003 A 
HETATM    7  C11 UNL     1      20.656   4.820  27.119  1.00  0.00     0.058 A 
HETATM    8  C12 UNL     1      21.397   5.626  26.147  1.00  0.00     0.195 C 
HETATM    9  O9  UNL     1      22.251   6.399  26.562  1.00  0.00    -0.289 OA
HETATM   10  C13 UNL     1      21.111   5.504  24.692  1.00  0.00     0.238 C 
HETATM   11  C16 UNL     1      19.676   5.102  24.442  1.00  0.00     0.203 C 
HETATM   12  C19 UNL     1      18.793   5.327  25.650  1.00  0.00     0.199 C 
ENDROOT
BRANCH   1  13
HETATM   13  O4  UNL     1      22.520   4.367  28.489  1.00  0.00    -0.297 OA
BRANCH  13  14
HETATM   14  C4  UNL     1      23.782   4.512  28.743  1.00  0.00     0.316 C 
BRANCH  14  15
HETATM   15  C2  UNL     1      24.258   5.238  30.025  1.00  0.00     0.226 C 
HETATM   16  C3  UNL     1      25.648   5.757  29.936  1.00  0.00     0.085 C 
BRANCH  15  17
HETATM   17  O1  UNL     1      23.458   6.438  29.976  1.00  0.00    -0.356 OA
HETATM   18  C1  UNL     1      24.067   7.427  30.730  1.00  0.00     0.205 C 
ENDBRANCH  15  17
BRANCH  15  19
HETATM   19  O2  UNL     1      23.868   4.632  31.174  1.00  0.00    -0.361 OA
ATOM     20  H2  UNL     1      24.524   4.896  31.807  1.00  0.00     0.213 HD
ENDBRANCH  15  19
ENDBRANCH  14  15
BRANCH  14  21
HETATM   21  O3  UNL     1      24.501   5.338  27.770  1.00  0.00    -0.353 OA
ATOM     22  H3  UNL     1      25.273   4.789  27.683  1.00  0.00     0.213 HD
ENDBRANCH  14  21
BRANCH  14  23
HETATM   23  C22 UNL     1      24.599   3.237  28.783  1.00  0.00     0.336 C 
HETATM   24  O16 UNL     1      25.558   3.191  27.958  1.00  0.00    -0.258 OA
BRANCH  23  25
HETATM   25  O17 UNL     1      24.313   2.220  29.650  1.00  0.00    -0.241 OA
BRANCH  25  26
HETATM   26  C23 UNL     1      23.804   1.027  29.165  1.00  0.00     0.262 C 
HETATM   27  C24 UNL     1      22.855   0.968  28.017  1.00  0.00     0.126 C 
HETATM   28  O18 UNL     1      24.137  -0.060  29.691  1.00  0.00    -0.265 OA
ENDBRANCH  25  26
ENDBRANCH  23  25
ENDBRANCH  14  23
ENDBRANCH  13  14
ENDBRANCH   1  13
BRANCH   2  29
HETATM   29  O5  UNL     1      20.806   2.796  30.162  1.00  0.00    -0.211 OA
BRANCH  29  30
HETATM   30  S1  UNL     1      20.577   3.639  31.640  1.00  0.00     0.257 S 
HETATM   31  O6  UNL     1      19.276   3.346  32.284  1.00  0.00    -0.572 OA
HETATM   32  O7  UNL     1      21.692   3.246  32.558  1.00  0.00    -0.572 OA
HETATM   33  O8  UNL     1      20.768   5.303  31.381  1.00  0.00    -0.572 OA
ENDBRANCH  29  30
ENDBRANCH   2  29
BRANCH  12  34
HETATM   34  O14 UNL     1      18.630   6.711  25.848  1.00  0.00    -0.309 OA
BRANCH  34  35
HETATM   35  C20 UNL     1      18.036   7.474  24.865  1.00  0.00     0.255 C 
HETATM   36  C21 UNL     1      16.662   7.190  24.362  1.00  0.00     0.126 C 
HETATM   37  O15 UNL     1      18.623   8.452  24.338  1.00  0.00    -0.266 OA
ENDBRANCH  34  35
ENDBRANCH  12  34
BRANCH  10  38
HETATM   38  O10 UNL     1      21.457   6.665  23.965  1.00  0.00    -0.305 OA
BRANCH  38  39
HETATM   39  C14 UNL     1      21.638   6.640  22.579  1.00  0.00     0.255 C 
HETATM   40  C15 UNL     1      20.999   7.546  21.627  1.00  0.00     0.126 C 
HETATM   41  O11 UNL     1      22.426   5.749  22.135  1.00  0.00    -0.266 OA
ENDBRANCH  38  39
ENDBRANCH  10  38
BRANCH  11  42
HETATM   42  O12 UNL     1      19.558   3.737  24.097  1.00  0.00    -0.310 OA
BRANCH  42  43
HETATM   43  C17 UNL     1      20.669   2.915  23.992  1.00  0.00     0.255 C 
HETATM   44  C18 UNL     1      20.994   1.935  25.036  1.00  0.00     0.126 C 
HETATM   45  O13 UNL     1      21.379   3.057  22.952  1.00  0.00    -0.266 OA
ENDBRANCH  42  43
ENDBRANCH  11  42
TORSDOF 17
ENDMDL
MODEL 2
REMARK VINA RESULT: -6.424308227      0.992      1.033
REMARK  17 active torsions:
REMARK  status: ('A' for Active; 'I' for Inactive)
REMARK    1  A    between atoms: O1_2  and  C2_3 
REMARK    2  A    between atoms: C2_3  and  O2_5 
REMARK    3  A    between atoms: C2_3  and  C4_7 
REMARK    4  A    between atoms: C4_7  and  O3_8 
REMARK    5  A    between atoms: C4_7  and  O4_10 
REMARK    6  A    between atoms: C4_7  and  C22_40 
REMARK    7  A    between atoms: O4_10  and  C5_11 
REMARK    8  A    between atoms: C6_12  and  O5_13 
REMARK    9  A    between atoms: O5_13  and  S1_14 
REMARK   10  A    between atoms: C13_25  and  O10_26 
REMARK   11  A    between atoms: O10_26  and  C14_27 
REMARK   12  A    between atoms: C16_30  and  O12_31 
REMARK   13  A    between atoms: O12_31  and  C17_32 
REMARK   14  A    between atoms: C19_35  and  O14_36 
REMARK   15  A    between atoms: O14_36  and  C20_37 
REMARK   16  A    between atoms: C22_40  and  O17_42 
REMARK   17  A    between atoms: O17_42  and  C23_43 
ROOT
HETATM    1  C5  UNL     1      21.773   4.600  28.671  1.00  0.00     0.122 A 
HETATM    2  C6  UNL     1      20.962   3.987  29.650  1.00  0.00     0.127 A 
HETATM    3  C7  UNL     1      19.591   4.010  29.663  1.00  0.00     0.048 A 
HETATM    4  C8  UNL     1      18.938   4.675  28.665  1.00  0.00    -0.049 A 
HETATM    5  C9  UNL     1      17.460   4.702  28.666  1.00  0.00     0.049 C 
HETATM    6  C10 UNL     1      19.669   5.288  27.695  1.00  0.00    -0.003 A 
HETATM    7  C11 UNL     1      21.059   5.269  27.671  1.00  0.00     0.058 A 
HETATM    8  C12 UNL     1      21.699   5.938  26.537  1.00  0.00     0.195 C 
HETATM    9  O9  UNL     1      22.725   6.575  26.741  1.00  0.00    -0.289 OA
HETATM   10  C13 UNL     1      21.111   5.841  25.174  1.00  0.00     0.238 C 
HETATM   11  C16 UNL     1      19.612   5.662  25.230  1.00  0.00     0.203 C 
HETATM   12  C19 UNL     1      19.034   6.037  26.577  1.00  0.00     0.199 C 
ENDROOT
BRANCH   1  13
HETATM   13  O4  UNL     1      23.073   4.553  28.665  1.00  0.00    -0.297 OA
BRANCH  13  14
HETATM   14  C4  UNL     1      24.367   4.506  28.658  1.00  0.00     0.316 C 
BRANCH  14  15
HETATM   15  C2  UNL     1      25.199   5.301  29.693  1.00  0.00     0.226 C 
HETATM   16  C3  UNL     1      26.203   6.209  29.081  1.00  0.00     0.085 C 
BRANCH  15  17
HETATM   17  O1  UNL     1      24.204   6.212  30.204  1.00  0.00    -0.356 OA
HETATM   18  C1  UNL     1      24.625   7.515  29.995  1.00  0.00     0.205 C 
ENDBRANCH  15  17
BRANCH  15  19
HETATM   19  O2  UNL     1      25.564   4.573  30.778  1.00  0.00    -0.361 OA
ATOM     20  H2  UNL     1      26.302   5.050  31.136  1.00  0.00     0.213 HD
ENDBRANCH  15  19
ENDBRANCH  14  15
BRANCH  14  21
HETATM   21  O3  UNL     1      24.984   5.053  27.447  1.00  0.00    -0.353 OA
ATOM     22  H3  UNL     1      24.584   4.460  26.821  1.00  0.00     0.213 HD
ENDBRANCH  14  21
BRANCH  14  23
HETATM   23  C22 UNL     1      24.978   3.123  28.760  1.00  0.00     0.336 C 
HETATM   24  O16 UNL     1      25.937   2.903  27.964  1.00  0.00    -0.258 OA
BRANCH  23  25
HETATM   25  O17 UNL     1      24.521   2.192  29.650  1.00  0.00    -0.241 OA
BRANCH  25  26
HETATM   26  C23 UNL     1      23.860   1.066  29.187  1.00  0.00     0.262 C 
HETATM   27  C24 UNL     1      22.830   1.127  28.111  1.00  0.00     0.126 C 
HETATM   28  O18 UNL     1      24.117  -0.059  29.672  1.00  0.00    -0.265 OA
ENDBRANCH  25  26
ENDBRANCH  23  25
ENDBRANCH  14  23
ENDBRANCH  13  14
ENDBRANCH   1  13
BRANCH   2  29
HETATM   29  O5  UNL     1      21.517   3.288  30.711  1.00  0.00    -0.211 OA
BRANCH  29  30
HETATM   30  S1  UNL     1      21.750   4.186  32.157  1.00  0.00     0.257 S 
HETATM   31  O6  UNL     1      20.945   3.683  33.292  1.00  0.00    -0.572 OA
HETATM   32  O7  UNL     1      23.205   4.112  32.501  1.00  0.00    -0.572 OA
HETATM   33  O8  UNL     1      21.436   5.825  31.864  1.00  0.00    -0.572 OA
ENDBRANCH  29  30
ENDBRANCH   2  29
BRANCH  12  34
HETATM   34  O14 UNL     1      19.121   7.431  26.742  1.00  0.00    -0.309 OA
BRANCH  34  35
HETATM   35  C20 UNL     1      18.347   8.260  25.956  1.00  0.00     0.255 C 
HETATM   36  C21 UNL     1      16.857   8.219  25.988  1.00  0.00     0.126 C 
HETATM   37  O15 UNL     1      18.857   9.095  25.168  1.00  0.00    -0.266 OA
ENDBRANCH  34  35
ENDBRANCH  12  34
BRANCH  10  38
HETATM   38  O10 UNL     1      21.471   6.925  24.342  1.00  0.00    -0.305 OA
BRANCH  38  39
HETATM   39  C14 UNL     1      21.361   6.854  22.950  1.00  0.00     0.255 C 
HETATM   40  C15 UNL     1      20.455   7.657  22.133  1.00  0.00     0.126 C 
HETATM   41  O11 UNL     1      22.121   6.017  22.373  1.00  0.00    -0.266 OA
ENDBRANCH  38  39
ENDBRANCH  10  38
BRANCH  11  42
HETATM   42  O12 UNL     1      19.225   4.327  24.976  1.00  0.00    -0.310 OA
BRANCH  42  43
HETATM   43  C17 UNL     1      20.136   3.377  24.541  1.00  0.00     0.255 C 
HETATM   44  C18 UNL     1      20.719   2.398  25.469  1.00  0.00     0.126 C 
HETATM   45  O13 UNL     1      20.432   3.401  23.310  1.00  0.00    -0.266 OA
ENDBRANCH  42  43
ENDBRANCH  11  42
TORSDOF 17
ENDMDL
MODEL 3
REMARK VINA RESULT: -6.418493674      1.697      1.943
REMARK  17 active torsions:
REMARK  status: ('A' for Active; 'I' for Inactive)
REMARK    1  A    between atoms: O1_2  and  C2_3 
REMARK    2  A    between atoms: C2_3  and  O2_5 
REMARK    3  A    between atoms: C2_3  and  C4_7 
REMARK    4  A    between atoms: C4_7  and  O3_8 
REMARK    5  A    between atoms: C4_7  and  O4_10 
REMARK    6  A    between atoms: C4_7  and  C22_40 
REMARK    7  A    between atoms: O4_10  and  C5_11 
REMARK    8  A    between atoms: C6_12  and  O5_13 
REMARK    9  A    between atoms: O5_13  and  S1_14 
REMARK   10  A    between atoms: C13_25  and  O10_26 
REMARK   11  A    between atoms: O10_26  and  C14_27 
REMARK   12  A    between atoms: C16_30  and  O12_31 
REMARK   13  A    between atoms: O12_31  and  C17_32 
REMARK   14  A    between atoms: C19_35  and  O14_36 
REMARK   15  A    between atoms: O14_36  and  C20_37 
REMARK   16  A    between atoms: C22_40  and  O17_42 
REMARK   17  A    between atoms: O17_42  and  C23_43 
ROOT
HETATM    1  C5  UNL     1      22.382   5.012  28.901  1.00  0.00     0.122 A 
HETATM    2  C6  UNL     1      21.595   4.646  30.014  1.00  0.00     0.127 A 
HETATM    3  C7  UNL     1      20.262   4.932  30.165  1.00  0.00     0.048 A 
HETATM    4  C8  UNL     1      19.627   5.627  29.176  1.00  0.00    -0.049 A 
HETATM    5  C9  UNL     1      18.189   5.936  29.325  1.00  0.00     0.049 C 
HETATM    6  C10 UNL     1      20.336   6.008  28.080  1.00  0.00    -0.003 A 
HETATM    7  C11 UNL     1      21.686   5.721  27.916  1.00  0.00     0.058 A 
HETATM    8  C12 UNL     1      22.298   6.162  26.661  1.00  0.00     0.195 C 
HETATM    9  O9  UNL     1      23.438   6.605  26.693  1.00  0.00    -0.289 OA
HETATM   10  C13 UNL     1      21.543   6.070  25.382  1.00  0.00     0.238 C 
HETATM   11  C16 UNL     1      20.054   6.186  25.608  1.00  0.00     0.203 C 
HETATM   12  C19 UNL     1      19.718   6.772  26.962  1.00  0.00     0.199 C 
ENDROOT
BRANCH   1  13
HETATM   13  O4  UNL     1      23.641   4.716  28.767  1.00  0.00    -0.297 OA
BRANCH  13  14
HETATM   14  C4  UNL     1      24.895   4.422  28.633  1.00  0.00     0.316 C 
BRANCH  14  15
HETATM   15  C2  UNL     1      25.965   5.059  29.553  1.00  0.00     0.226 C 
HETATM   16  C3  UNL     1      26.286   6.469  29.208  1.00  0.00     0.085 C 
BRANCH  15  17
HETATM   17  O1  UNL     1      25.229   5.186  30.787  1.00  0.00    -0.356 OA
HETATM   18  C1  UNL     1      25.423   6.453  31.310  1.00  0.00     0.205 C 
ENDBRANCH  15  17
BRANCH  15  19
HETATM   19  O2  UNL     1      26.986   4.223  29.865  1.00  0.00    -0.361 OA
ATOM     20  H2  UNL     1      27.711   4.540  29.340  1.00  0.00     0.213 HD
ENDBRANCH  15  19
ENDBRANCH  14  15
BRANCH  14  21
HETATM   21  O3  UNL     1      25.475   4.821  27.349  1.00  0.00    -0.353 OA
ATOM     22  H3  UNL     1      24.676   4.796  26.835  1.00  0.00     0.213 HD
ENDBRANCH  14  21
BRANCH  14  23
HETATM   23  C22 UNL     1      25.241   2.949  28.724  1.00  0.00     0.336 C 
HETATM   24  O16 UNL     1      26.093   2.548  27.877  1.00  0.00    -0.258 OA
BRANCH  23  25
HETATM   25  O17 UNL     1      24.671   2.126  29.653  1.00  0.00    -0.241 OA
BRANCH  25  26
HETATM   26  C23 UNL     1      23.848   1.091  29.241  1.00  0.00     0.262 C 
HETATM   27  C24 UNL     1      22.691   1.304  28.327  1.00  0.00     0.126 C 
HETATM   28  O18 UNL     1      24.060  -0.077  29.637  1.00  0.00    -0.265 OA
ENDBRANCH  25  26
ENDBRANCH  23  25
ENDBRANCH  14  23
ENDBRANCH  13  14
ENDBRANCH   1  13
BRANCH   2  29
HETATM   29  O5  UNL     1      22.137   3.942  31.079  1.00  0.00    -0.211 OA
BRANCH  29  30
HETATM   30  S1  UNL     1      22.057   4.720  32.608  1.00  0.00     0.257 S 
HETATM   31  O6  UNL     1      20.900   4.286  33.423  1.00  0.00    -0.572 OA
HETATM   32  O7  UNL     1      23.328   4.411  33.336  1.00  0.00    -0.572 OA
HETATM   33  O8  UNL     1      22.055   6.400  32.391  1.00  0.00    -0.572 OA
ENDBRANCH  29  30
ENDBRANCH   2  29
BRANCH  12  34
HETATM   34  O14 UNL     1      20.076   8.133  26.975  1.00  0.00    -0.309 OA
BRANCH  34  35
HETATM   35  C20 UNL     1      19.428   9.015  26.134  1.00  0.00     0.255 C 
HETATM   36  C21 UNL     1      17.946   9.178  26.146  1.00  0.00     0.126 C 
HETATM   37  O15 UNL     1      20.053   9.729  25.312  1.00  0.00    -0.266 OA
ENDBRANCH  34  35
ENDBRANCH  12  34
BRANCH  10  38
HETATM   38  O10 UNL     1      21.992   6.994  24.412  1.00  0.00    -0.305 OA
BRANCH  38  39
HETATM   39  C14 UNL     1      21.617   6.893  23.069  1.00  0.00     0.255 C 
HETATM   40  C15 UNL     1      20.809   7.870  22.342  1.00  0.00     0.126 C 
HETATM   41  O11 UNL     1      22.023   5.861  22.452  1.00  0.00    -0.266 OA
ENDBRANCH  38  39
ENDBRANCH  10  38
BRANCH  11  42
HETATM   42  O12 UNL     1      19.404   4.933  25.531  1.00  0.00    -0.310 OA
BRANCH  42  43
HETATM   43  C17 UNL     1      18.906   4.446  24.334  1.00  0.00     0.255 C 
HETATM   44  C18 UNL     1      17.859   5.163  23.594  1.00  0.00     0.126 C 
HETATM   45  O13 UNL     1      19.402   3.357  23.918  1.00  0.00    -0.266 OA
ENDBRANCH  42  43
ENDBRANCH  11  42
TORSDOF 17
ENDMDL
MODEL 4
REMARK VINA RESULT: -6.197585960      1.780      2.184
REMARK  17 active torsions:
REMARK  status: ('A' for Active; 'I' for Inactive)
REMARK    1  A    between atoms: O1_2  and  C2_3 
REMARK    2  A    between atoms: C2_3  and  O2_5 
REMARK    3  A    between atoms: C2_3  and  C4_7 
REMARK    4  A    between atoms: C4_7  and  O3_8 
REMARK    5  A    between atoms: C4_7  and  O4_10 
REMARK    6  A    between atoms: C4_7  and  C22_40 
REMARK    7  A    between atoms: O4_10  and  C5_11 
REMARK    8  A    between atoms: C6_12  and  O5_13 
REMARK    9  A    between atoms: O5_13  and  S1_14 
REMARK   10  A    between atoms: C13_25  and  O10_26 
REMARK   11  A    between atoms: O10_26  and  C14_27 
REMARK   12  A    between atoms: C16_30  and  O12_31 
REMARK   13  A    between atoms: O12_31  and  C17_32 
REMARK   14  A    between atoms: C19_35  and  O14_36 
REMARK   15  A    between atoms: O14_36  and  C20_37 
REMARK   16  A    between atoms: C22_40  and  O17_42 
REMARK   17  A    between atoms: O17_42  and  C23_43 
ROOT
HETATM    1  C5  UNL     1      22.174   5.156  28.276  1.00  0.00     0.122 A 
HETATM    2  C6  UNL     1      21.155   4.570  29.057  1.00  0.00     0.127 A 
HETATM    3  C7  UNL     1      19.814   4.826  28.922  1.00  0.00     0.048 A 
HETATM    4  C8  UNL     1      19.411   5.715  27.966  1.00  0.00    -0.049 A 
HETATM    5  C9  UNL     1      17.968   5.994  27.807  1.00  0.00     0.049 C 
HETATM    6  C10 UNL     1      20.351   6.311  27.185  1.00  0.00    -0.003 A 
HETATM    7  C11 UNL     1      21.711   6.059  27.312  1.00  0.00     0.058 A 
HETATM    8  C12 UNL     1      22.593   6.747  26.368  1.00  0.00     0.195 C 
HETATM    9  O9  UNL     1      23.668   7.168  26.775  1.00  0.00    -0.289 OA
HETATM   10  C13 UNL     1      22.184   6.927  24.948  1.00  0.00     0.238 C 
HETATM   11  C16 UNL     1      20.681   7.001  24.811  1.00  0.00     0.203 C 
HETATM   12  C19 UNL     1      19.993   7.294  26.125  1.00  0.00     0.199 C 
ENDROOT
BRANCH   1  13
HETATM   13  O4  UNL     1      23.440   4.888  28.406  1.00  0.00    -0.297 OA
BRANCH  13  14
HETATM   14  C4  UNL     1      24.701   4.621  28.536  1.00  0.00     0.316 C 
BRANCH  14  15
HETATM   15  C2  UNL     1      25.541   5.274  29.661  1.00  0.00     0.226 C 
HETATM   16  C3  UNL     1      26.092   6.606  29.298  1.00  0.00     0.085 C 
BRANCH  15  17
HETATM   17  O1  UNL     1      24.514   5.597  30.621  1.00  0.00    -0.356 OA
HETATM   18  C1  UNL     1      24.918   5.187  31.881  1.00  0.00     0.205 C 
ENDBRANCH  15  17
BRANCH  15  19
HETATM   19  O2  UNL     1      26.344   4.402  30.320  1.00  0.00    -0.361 OA
ATOM     20  H2  UNL     1      26.421   4.775  31.190  1.00  0.00     0.213 HD
ENDBRANCH  15  19
ENDBRANCH  14  15
BRANCH  14  21
HETATM   21  O3  UNL     1      25.526   5.043  27.403  1.00  0.00    -0.353 OA
ATOM     22  H3  UNL     1      24.832   5.412  26.869  1.00  0.00     0.213 HD
ENDBRANCH  14  21
BRANCH  14  23
HETATM   23  C22 UNL     1      25.053   3.156  28.692  1.00  0.00     0.336 C 
HETATM   24  O16 UNL     1      25.988   2.749  27.941  1.00  0.00    -0.258 OA
BRANCH  23  25
HETATM   25  O17 UNL     1      24.405   2.344  29.580  1.00  0.00    -0.241 OA
BRANCH  25  26
HETATM   26  C23 UNL     1      23.804   1.179  29.134  1.00  0.00     0.262 C 
HETATM   27  C24 UNL     1      22.753   1.174  28.077  1.00  0.00     0.126 C 
HETATM   28  O18 UNL     1      24.136   0.074  29.619  1.00  0.00    -0.265 OA
ENDBRANCH  25  26
ENDBRANCH  23  25
ENDBRANCH  14  23
ENDBRANCH  13  14
ENDBRANCH   1  13
BRANCH   2  29
HETATM   29  O5  UNL     1      21.450   3.658  30.058  1.00  0.00    -0.211 OA
BRANCH  29  30
HETATM   30  S1  UNL     1      21.034   4.138  31.654  1.00  0.00     0.257 S 
HETATM   31  O6  UNL     1      19.642   3.796  32.023  1.00  0.00    -0.572 OA
HETATM   32  O7  UNL     1      21.984   3.457  32.589  1.00  0.00    -0.572 OA
HETATM   33  O8  UNL     1      21.325   5.797  31.841  1.00  0.00    -0.572 OA
ENDBRANCH  29  30
ENDBRANCH   2  29
BRANCH  12  34
HETATM   34  O14 UNL     1      20.271   8.621  26.504  1.00  0.00    -0.309 OA
BRANCH  34  35
HETATM   35  C20 UNL     1      19.366   9.311  27.285  1.00  0.00     0.255 C 
HETATM   36  C21 UNL     1      19.685   9.739  28.676  1.00  0.00     0.126 C 
HETATM   37  O15 UNL     1      18.222   9.614  26.864  1.00  0.00    -0.266 OA
ENDBRANCH  34  35
ENDBRANCH  12  34
BRANCH  10  38
HETATM   38  O10 UNL     1      22.815   8.031  24.331  1.00  0.00    -0.305 OA
BRANCH  38  39
HETATM   39  C14 UNL     1      23.307   7.961  23.024  1.00  0.00     0.255 C 
HETATM   40  C15 UNL     1      23.880   9.079  22.277  1.00  0.00     0.126 C 
HETATM   41  O11 UNL     1      23.241   6.824  22.462  1.00  0.00    -0.266 OA
ENDBRANCH  38  39
ENDBRANCH  10  38
BRANCH  11  42
HETATM   42  O12 UNL     1      20.131   5.795  24.321  1.00  0.00    -0.310 OA
BRANCH  42  43
HETATM   43  C17 UNL     1      18.898   5.763  23.689  1.00  0.00     0.255 C 
HETATM   44  C18 UNL     1      17.802   4.927  24.197  1.00  0.00     0.126 C 
HETATM   45  O13 UNL     1      18.773   6.491  22.660  1.00  0.00    -0.266 OA
ENDBRANCH  42  43
ENDBRANCH  11  42
TORSDOF 17
ENDMDL
MODEL 5
REMARK VINA RESULT: -6.144573393      2.275      3.898
REMARK  17 active torsions:
REMARK  status: ('A' for Active; 'I' for Inactive)
REMARK    1  A    between atoms: O1_2  and  C2_3 
REMARK    2  A    between atoms: C2_3  and  O2_5 
REMARK    3  A    between atoms: C2_3  and  C4_7 
REMARK    4  A    between atoms: C4_7  and  O3_8 
REMARK    5  A    between atoms: C4_7  and  O4_10 
REMARK    6  A    between atoms: C4_7  and  C22_40 
REMARK    7  A    between atoms: O4_10  and  C5_11 
REMARK    8  A    between atoms: C6_12  and  O5_13 
REMARK    9  A    between atoms: O5_13  and  S1_14 
REMARK   10  A    between atoms: C13_25  and  O10_26 
REMARK   11  A    between atoms: O10_26  and  C14_27 
REMARK   12  A    between atoms: C16_30  and  O12_31 
REMARK   13  A    between atoms: O12_31  and  C17_32 
REMARK   14  A    between atoms: C19_35  and  O14_36 
REMARK   15  A    between atoms: O14_36  and  C20_37 
REMARK   16  A    between atoms: C22_40  and  O17_42 
REMARK   17  A    between atoms: O17_42  and  C23_43 
ROOT
HETATM    1  C5  UNL     1      22.595   4.816  28.629  1.00  0.00     0.122 A 
HETATM    2  C6  UNL     1      22.081   3.507  28.744  1.00  0.00     0.127 A 
HETATM    3  C7  UNL     1      20.963   3.040  28.102  1.00  0.00     0.048 A 
HETATM    4  C8  UNL     1      20.274   3.892  27.285  1.00  0.00    -0.049 A 
HETATM    5  C9  UNL     1      19.071   3.399  26.584  1.00  0.00     0.049 C 
HETATM    6  C10 UNL     1      20.723   5.167  27.137  1.00  0.00    -0.003 A 
HETATM    7  C11 UNL     1      21.856   5.650  27.781  1.00  0.00     0.058 A 
HETATM    8  C12 UNL     1      22.234   7.033  27.486  1.00  0.00     0.195 C 
HETATM    9  O9  UNL     1      22.662   7.727  28.399  1.00  0.00    -0.289 OA
HETATM   10  C13 UNL     1      22.098   7.573  26.106  1.00  0.00     0.238 C 
HETATM   11  C16 UNL     1      20.980   6.891  25.353  1.00  0.00     0.203 C 
HETATM   12  C19 UNL     1      20.027   6.157  26.270  1.00  0.00     0.199 C 
ENDROOT
BRANCH   1  13
HETATM   13  O4  UNL     1      23.668   5.236  29.231  1.00  0.00    -0.297 OA
BRANCH  13  14
HETATM   14  C4  UNL     1      24.737   5.654  29.832  1.00  0.00     0.316 C 
BRANCH  14  15
HETATM   15  C2  UNL     1      25.403   4.816  30.950  1.00  0.00     0.226 C 
HETATM   16  C3  UNL     1      26.197   5.625  31.911  1.00  0.00     0.085 C 
BRANCH  15  17
HETATM   17  O1  UNL     1      24.250   4.427  31.726  1.00  0.00    -0.356 OA
HETATM   18  C1  UNL     1      24.442   4.794  33.048  1.00  0.00     0.205 C 
ENDBRANCH  15  17
BRANCH  15  19
HETATM   19  O2  UNL     1      25.918   3.638  30.517  1.00  0.00    -0.361 OA
ATOM     20  H2  UNL     1      26.792   3.621  30.887  1.00  0.00     0.213 HD
ENDBRANCH  15  19
ENDBRANCH  14  15
BRANCH  14  21
HETATM   21  O3  UNL     1      24.554   6.891  30.595  1.00  0.00    -0.353 OA
ATOM     22  H3  UNL     1      23.907   7.297  30.029  1.00  0.00     0.213 HD
ENDBRANCH  14  21
BRANCH  14  23
HETATM   23  C22 UNL     1      25.916   5.974  28.935  1.00  0.00     0.336 C 
HETATM   24  O16 UNL     1      25.936   5.347  27.836  1.00  0.00    -0.258 OA
BRANCH  23  25
HETATM   25  O17 UNL     1      26.879   6.873  29.297  1.00  0.00    -0.241 OA
BRANCH  25  26
HETATM   26  C23 UNL     1      26.635   8.230  29.169  1.00  0.00     0.262 C 
HETATM   27  C24 UNL     1      27.406   9.258  29.924  1.00  0.00     0.126 C 
HETATM   28  O18 UNL     1      25.738   8.638  28.396  1.00  0.00    -0.265 OA
ENDBRANCH  25  26
ENDBRANCH  23  25
ENDBRANCH  14  23
ENDBRANCH  13  14
ENDBRANCH   1  13
BRANCH   2  29
HETATM   29  O5  UNL     1      22.697   2.560  29.549  1.00  0.00    -0.211 OA
BRANCH  29  30
HETATM   30  S1  UNL     1      23.609   1.359  28.728  1.00  0.00     0.257 S 
HETATM   31  O6  UNL     1      22.924   0.824  27.529  1.00  0.00    -0.572 OA
HETATM   32  O7  UNL     1      24.911   1.981  28.327  1.00  0.00    -0.572 OA
HETATM   33  O8  UNL     1      24.013   0.116  29.806  1.00  0.00    -0.572 OA
ENDBRANCH  29  30
ENDBRANCH   2  29
BRANCH  12  34
HETATM   34  O14 UNL     1      19.286   7.097  27.010  1.00  0.00    -0.309 OA
BRANCH  34  35
HETATM   35  C20 UNL     1      17.923   6.933  27.150  1.00  0.00     0.255 C 
HETATM   36  C21 UNL     1      17.325   6.249  28.331  1.00  0.00     0.126 C 
HETATM   37  O15 UNL     1      17.113   7.350  26.286  1.00  0.00    -0.266 OA
ENDBRANCH  34  35
ENDBRANCH  12  34
BRANCH  10  38
HETATM   38  O10 UNL     1      21.957   8.979  26.079  1.00  0.00    -0.305 OA
BRANCH  38  39
HETATM   39  C14 UNL     1      22.829   9.793  25.349  1.00  0.00     0.255 C 
HETATM   40  C15 UNL     1      22.441  10.672  24.249  1.00  0.00     0.126 C 
HETATM   41  O11 UNL     1      24.051   9.747  25.689  1.00  0.00    -0.266 OA
ENDBRANCH  38  39
ENDBRANCH  10  38
BRANCH  11  42
HETATM   42  O12 UNL     1      21.466   5.943  24.424  1.00  0.00    -0.310 OA
BRANCH  42  43
HETATM   43  C17 UNL     1      20.616   5.277  23.555  1.00  0.00     0.255 C 
HETATM   44  C18 UNL     1      20.648   3.813  23.429  1.00  0.00     0.126 C 
HETATM   45  O13 UNL     1      19.818   5.997  22.884  1.00  0.00    -0.266 OA
ENDBRANCH  42  43
ENDBRANCH  11  42
TORSDOF 17
ENDMDL
