MODEL 1
REMARK VINA RESULT: -2.488372618      0.000      0.000
REMARK  7 active torsions:
REMARK  status: ('A' for Active; 'I' for Inactive)
REMARK    1  A    between atoms: O1_2  and  C2_3 
REMARK    2  A    between atoms: C2_3  and  C3_4 
REMARK    3  A    between atoms: C3_4  and  C4_5 
REMARK    4  A    between atoms: C4_5  and  N1_6 
REMARK    5  A    between atoms: N3_18  and  C14_19 
REMARK    6  A    between atoms: C17_22  and  O2_23 
REMARK    7  A    between atoms: C23_30  and  O3_31 
ROOT
HETATM    1  N1  UNL     1      29.125   2.026   6.879  1.00  0.00    -0.012 N 
HETATM    2  C5  UNL     1      28.437   2.943   6.067  1.00  0.00     0.215 C 
HETATM    3  C6  UNL     1      28.602   3.192   4.653  1.00  0.00    -0.006 C 
HETATM    4  C7  UNL     1      29.944   2.982   4.011  1.00  0.00     0.043 C 
HETATM    5  C8  UNL     1      30.375   1.589   3.869  1.00  0.00     0.010 C 
HETATM    6  C9  UNL     1      29.563   0.543   4.549  1.00  0.00     0.001 C 
HETATM    7  C10 UNL     1      29.129  -0.418   3.492  1.00  0.00     0.011 C 
HETATM    8  C11 UNL     1      28.418   0.407   2.449  1.00  0.00     0.060 C 
HETATM    9  C12 UNL     1      27.608   1.548   2.850  1.00  0.00     0.037 A 
HETATM   10  N2  UNL     1      26.391   1.623   2.202  1.00  0.00    -0.354 N 
ATOM     11  H2  UNL     1      26.069   0.943   1.514  1.00  0.00     0.166 HD
HETATM   12  C13 UNL     1      25.697   2.673   2.575  1.00  0.00     0.184 A 
HETATM   13  N3  UNL     1      26.434   3.338   3.492  1.00  0.00    -0.336 N 
HETATM   14  C20 UNL     1      27.564   2.693   3.669  1.00  0.00     0.066 A 
HETATM   15  C21 UNL     1      30.119   0.121   5.841  1.00  0.00     0.045 C 
HETATM   16  C22 UNL     1      31.348  -0.711   5.797  1.00  0.00     0.023 C 
HETATM   17  C23 UNL     1      29.091  -0.387   6.837  1.00  0.00     0.157 C 
HETATM   18  C24 UNL     1      28.339   0.854   7.270  1.00  0.00     0.279 C 
HETATM   19  C25 UNL     1      30.376   1.465   6.583  1.00  0.00     0.388 C 
HETATM   20  F1  UNL     1      30.952   0.927   7.772  1.00  0.00    -0.217 F 
ENDROOT
BRANCH  13  21
HETATM   21  C14 UNL     1      26.077   4.570   4.178  1.00  0.00     0.091 C 
HETATM   22  C15 UNL     1      26.592   5.784   3.482  1.00  0.00     0.028 C 
HETATM   23  C16 UNL     1      25.594   6.529   2.636  1.00  0.00     0.034 C 
HETATM   24  C17 UNL     1      24.357   6.783   3.505  1.00  0.00     0.118 C 
HETATM   25  C18 UNL     1      23.733   5.386   3.616  1.00  0.00     0.034 C 
HETATM   26  C19 UNL     1      24.607   4.542   4.453  1.00  0.00     0.028 C 
BRANCH  24  27
HETATM   27  O2  UNL     1      24.830   7.211   4.737  1.00  0.00    -0.396 OA
ATOM     28  H2  UNL     1      24.079   7.556   5.204  1.00  0.00     0.210 HD
ENDBRANCH  24  27
ENDBRANCH  13  21
BRANCH   1  29
HETATM   29  C4  UNL     1      29.334   2.712   8.180  1.00  0.00     0.248 C 
BRANCH  29  30
HETATM   30  C3  UNL     1      28.291   2.372   9.204  1.00  0.00     0.055 C 
BRANCH  30  31
HETATM   31  C2  UNL     1      28.859   1.374  10.180  1.00  0.00     0.168 C 
BRANCH  31  32
HETATM   32  O1  UNL     1      28.042   1.153  11.233  1.00  0.00    -0.396 OA
HETATM   33  C1  UNL     1      28.625   0.675  12.374  1.00  0.00     0.201 C 
ENDBRANCH  31  32
ENDBRANCH  30  31
ENDBRANCH  29  30
ENDBRANCH   1  29
BRANCH  17  34
HETATM   34  O3  UNL     1      29.640  -1.074   7.886  1.00  0.00    -0.393 OA
ATOM     35  H3  UNL     1      29.358  -1.980   7.934  1.00  0.00     0.210 HD
ENDBRANCH  17  34
TORSDOF 7
ENDMDL
MODEL 2
REMARK VINA RESULT: -1.540912726      1.278      1.439
REMARK  7 active torsions:
REMARK  status: ('A' for Active; 'I' for Inactive)
REMARK    1  A    between atoms: O1_2  and  C2_3 
REMARK    2  A    between atoms: C2_3  and  C3_4 
REMARK    3  A    between atoms: C3_4  and  C4_5 
REMARK    4  A    between atoms: C4_5  and  N1_6 
REMARK    5  A    between atoms: N3_18  and  C14_19 
REMARK    6  A    between atoms: C17_22  and  O2_23 
REMARK    7  A    between atoms: C23_30  and  O3_31 
ROOT
HETATM    1  N1  UNL     1      29.008   2.226   5.829  1.00  0.00    -0.012 N 
HETATM    2  C5  UNL     1      28.032   3.074   5.279  1.00  0.00     0.215 C 
HETATM    3  C6  UNL     1      27.622   3.197   3.898  1.00  0.00    -0.006 C 
HETATM    4  C7  UNL     1      28.611   2.922   2.801  1.00  0.00     0.043 C 
HETATM    5  C8  UNL     1      28.990   1.519   2.617  1.00  0.00     0.010 C 
HETATM    6  C9  UNL     1      28.538   0.542   3.646  1.00  0.00     0.001 C 
HETATM    7  C10 UNL     1      27.752  -0.504   2.929  1.00  0.00     0.011 C 
HETATM    8  C11 UNL     1      26.666   0.232   2.184  1.00  0.00     0.060 C 
HETATM    9  C12 UNL     1      26.047   1.409   2.774  1.00  0.00     0.037 A 
HETATM   10  N2  UNL     1      24.672   1.436   2.652  1.00  0.00    -0.354 N 
ATOM     11  H2  UNL     1      24.125   0.701   2.205  1.00  0.00     0.166 HD
HETATM   12  C13 UNL     1      24.151   2.521   3.179  1.00  0.00     0.184 A 
HETATM   13  N3  UNL     1      25.170   3.258   3.674  1.00  0.00    -0.336 N 
HETATM   14  C20 UNL     1      26.296   2.622   3.446  1.00  0.00     0.066 A 
HETATM   15  C21 UNL     1      29.567   0.230   4.646  1.00  0.00     0.045 C 
HETATM   16  C22 UNL     1      30.703  -0.612   4.193  1.00  0.00     0.023 C 
HETATM   17  C23 UNL     1      29.025  -0.181   6.004  1.00  0.00     0.157 C 
HETATM   18  C24 UNL     1      28.470   1.098   6.593  1.00  0.00     0.279 C 
HETATM   19  C25 UNL     1      30.057   1.632   5.114  1.00  0.00     0.388 C 
HETATM   20  F1  UNL     1      31.068   1.195   6.020  1.00  0.00    -0.217 F 
ENDROOT
BRANCH  13  21
HETATM   21  C14 UNL     1      25.076   4.548   4.340  1.00  0.00     0.091 C 
HETATM   22  C15 UNL     1      26.062   5.536   3.816  1.00  0.00     0.028 C 
HETATM   23  C16 UNL     1      25.524   6.542   2.834  1.00  0.00     0.034 C 
HETATM   24  C17 UNL     1      24.278   7.175   3.462  1.00  0.00     0.118 C 
HETATM   25  C18 UNL     1      23.249   6.039   3.383  1.00  0.00     0.034 C 
HETATM   26  C19 UNL     1      23.643   4.976   4.328  1.00  0.00     0.028 C 
BRANCH  24  27
HETATM   27  O2  UNL     1      24.606   7.450   4.782  1.00  0.00    -0.396 OA
ATOM     28  H2  UNL     1      25.379   8.001   4.754  1.00  0.00     0.210 HD
ENDBRANCH  24  27
ENDBRANCH  13  21
BRANCH   1  29
HETATM   29  C4  UNL     1      29.690   3.021   6.881  1.00  0.00     0.248 C 
BRANCH  29  30
HETATM   30  C3  UNL     1      29.258   2.660   8.272  1.00  0.00     0.055 C 
BRANCH  30  31
HETATM   31  C2  UNL     1      30.244   1.687   8.863  1.00  0.00     0.168 C 
BRANCH  31  32
HETATM   32  O1  UNL     1      29.705   0.930   9.843  1.00  0.00    -0.396 OA
HETATM   33  C1  UNL     1      30.466  -0.106  10.310  1.00  0.00     0.201 C 
ENDBRANCH  31  32
ENDBRANCH  30  31
ENDBRANCH  29  30
ENDBRANCH   1  29
BRANCH  17  34
HETATM   34  O3  UNL     1      29.961  -0.778   6.807  1.00  0.00    -0.393 OA
ATOM     35  H3  UNL     1      29.598  -1.444   7.380  1.00  0.00     0.210 HD
ENDBRANCH  17  34
TORSDOF 7
ENDMDL
MODEL 3
REMARK VINA RESULT: -1.318928863      2.313      6.867
REMARK  7 active torsions:
REMARK  status: ('A' for Active; 'I' for Inactive)
REMARK    1  A    between atoms: O1_2  and  C2_3 
REMARK    2  A    between atoms: C2_3  and  C3_4 
REMARK    3  A    between atoms: C3_4  and  C4_5 
REMARK    4  A    between atoms: C4_5  and  N1_6 
REMARK    5  A    between atoms: N3_18  and  C14_19 
REMARK    6  A    between atoms: C17_22  and  O2_23 
REMARK    7  A    between atoms: C23_30  and  O3_31 
ROOT
HETATM    1  N1  UNL     1      26.691   2.650   4.572  1.00  0.00    -0.012 N 
HETATM    2  C5  UNL     1      27.285   1.871   5.578  1.00  0.00     0.215 C 
HETATM    3  C6  UNL     1      27.702   0.488   5.517  1.00  0.00    -0.006 C 
HETATM    4  C7  UNL     1      26.978  -0.468   4.613  1.00  0.00     0.043 C 
HETATM    5  C8  UNL     1      27.198  -0.284   3.176  1.00  0.00     0.010 C 
HETATM    6  C9  UNL     1      27.931   0.937   2.743  1.00  0.00     0.001 C 
HETATM    7  C10 UNL     1      29.113   0.472   1.958  1.00  0.00     0.011 C 
HETATM    8  C11 UNL     1      29.864  -0.472   2.862  1.00  0.00     0.060 C 
HETATM    9  C12 UNL     1      29.926  -0.217   4.293  1.00  0.00     0.037 A 
HETATM   10  N2  UNL     1      31.183  -0.394   4.837  1.00  0.00    -0.354 N 
ATOM     11  H2  UNL     1      32.004  -0.665   4.297  1.00  0.00     0.166 HD
HETATM   12  C13 UNL     1      31.196  -0.172   6.131  1.00  0.00     0.184 A 
HETATM   13  N3  UNL     1      29.939   0.163   6.496  1.00  0.00    -0.336 N 
HETATM   14  C20 UNL     1      29.174   0.143   5.429  1.00  0.00     0.066 A 
HETATM   15  C21 UNL     1      27.047   2.021   2.297  1.00  0.00     0.045 C 
HETATM   16  C22 UNL     1      26.369   1.835   0.989  1.00  0.00     0.023 C 
HETATM   17  C23 UNL     1      27.617   3.418   2.479  1.00  0.00     0.157 C 
HETATM   18  C24 UNL     1      27.581   3.650   3.975  1.00  0.00     0.279 C 
HETATM   19  C25 UNL     1      26.012   2.145   3.454  1.00  0.00     0.388 C 
HETATM   20  F1  UNL     1      25.200   3.169   2.884  1.00  0.00    -0.217 F 
ENDROOT
BRANCH  13  21
HETATM   21  C14 UNL     1      29.470   0.485   7.835  1.00  0.00     0.091 C 
HETATM   22  C15 UNL     1      28.957  -0.710   8.565  1.00  0.00     0.028 C 
HETATM   23  C16 UNL     1      29.902  -1.326   9.562  1.00  0.00     0.034 C 
HETATM   24  C17 UNL     1      30.401  -0.201  10.475  1.00  0.00     0.118 C 
HETATM   25  C18 UNL     1      31.343   0.586   9.555  1.00  0.00     0.034 C 
HETATM   26  C19 UNL     1      30.537   1.272   8.527  1.00  0.00     0.028 C 
BRANCH  24  27
HETATM   27  O2  UNL     1      29.286   0.557  10.801  1.00  0.00    -0.396 OA
ATOM     28  H2  UNL     1      28.781   0.644  10.002  1.00  0.00     0.210 HD
ENDBRANCH  24  27
ENDBRANCH  13  21
BRANCH   1  29
HETATM   29  C4  UNL     1      25.682   3.498   5.257  1.00  0.00     0.248 C 
BRANCH  29  30
HETATM   30  C3  UNL     1      24.279   3.247   4.789  1.00  0.00     0.055 C 
BRANCH  30  31
HETATM   31  C2  UNL     1      23.620   4.562   4.461  1.00  0.00     0.168 C 
BRANCH  31  32
HETATM   32  O1  UNL     1      24.508   5.571   4.332  1.00  0.00    -0.396 OA
HETATM   33  C1  UNL     1      24.089   6.675   3.640  1.00  0.00     0.201 C 
ENDBRANCH  31  32
ENDBRANCH  30  31
ENDBRANCH  29  30
ENDBRANCH   1  29
BRANCH  17  34
HETATM   34  O3  UNL     1      26.944   4.378   1.771  1.00  0.00    -0.393 OA
ATOM     35  H3  UNL     1      26.323   4.022   1.147  1.00  0.00     0.210 HD
ENDBRANCH  17  34
TORSDOF 7
ENDMDL
MODEL 4
REMARK VINA RESULT: 0.799311525      1.222      1.365
REMARK  7 active torsions:
REMARK  status: ('A' for Active; 'I' for Inactive)
REMARK    1  A    between atoms: O1_2  and  C2_3 
REMARK    2  A    between atoms: C2_3  and  C3_4 
REMARK    3  A    between atoms: C3_4  and  C4_5 
REMARK    4  A    between atoms: C4_5  and  N1_6 
REMARK    5  A    between atoms: N3_18  and  C14_19 
REMARK    6  A    between atoms: C17_22  and  O2_23 
REMARK    7  A    between atoms: C23_30  and  O3_31 
ROOT
HETATM    1  N1  UNL     1      28.938   1.542   7.703  1.00  0.00    -0.012 N 
HETATM    2  C5  UNL     1      28.065   2.211   6.829  1.00  0.00     0.215 C 
HETATM    3  C6  UNL     1      28.249   2.506   5.426  1.00  0.00    -0.006 C 
HETATM    4  C7  UNL     1      29.634   2.716   4.885  1.00  0.00     0.043 C 
HETATM    5  C8  UNL     1      30.476   1.521   4.796  1.00  0.00     0.010 C 
HETATM    6  C9  UNL     1      29.972   0.274   5.435  1.00  0.00     0.001 C 
HETATM    7  C10 UNL     1      29.928  -0.768   4.367  1.00  0.00     0.011 C 
HETATM    8  C11 UNL     1      29.078  -0.192   3.262  1.00  0.00     0.060 C 
HETATM    9  C12 UNL     1      27.934   0.647   3.585  1.00  0.00     0.037 A 
HETATM   10  N2  UNL     1      26.802   0.353   2.852  1.00  0.00    -0.354 N 
ATOM     11  H2  UNL     1      26.752  -0.389   2.154  1.00  0.00     0.166 HD
HETATM   12  C13 UNL     1      25.797   1.141   3.157  1.00  0.00     0.184 A 
HETATM   13  N3  UNL     1      26.229   1.993   4.112  1.00  0.00    -0.336 N 
HETATM   14  C20 UNL     1      27.485   1.721   4.380  1.00  0.00     0.066 A 
HETATM   15  C21 UNL     1      30.535   0.034   6.770  1.00  0.00     0.045 C 
HETATM   16  C22 UNL     1      31.958  -0.386   6.827  1.00  0.00     0.023 C 
HETATM   17  C23 UNL     1      29.639  -0.768   7.699  1.00  0.00     0.157 C 
HETATM   18  C24 UNL     1      28.517   0.183   8.057  1.00  0.00     0.279 C 
HETATM   19  C25 UNL     1      30.317   1.388   7.506  1.00  0.00     0.388 C 
HETATM   20  F1  UNL     1      30.942   1.044   8.741  1.00  0.00    -0.217 F 
ENDROOT
BRANCH  13  21
HETATM   21  C14 UNL     1      25.466   3.055   4.751  1.00  0.00     0.091 C 
HETATM   22  C15 UNL     1      25.944   4.414   4.366  1.00  0.00     0.028 C 
HETATM   23  C16 UNL     1      25.134   5.120   3.312  1.00  0.00     0.034 C 
HETATM   24  C17 UNL     1      23.667   5.074   3.753  1.00  0.00     0.118 C 
HETATM   25  C18 UNL     1      23.298   3.601   3.535  1.00  0.00     0.034 C 
HETATM   26  C19 UNL     1      24.012   2.781   4.533  1.00  0.00     0.028 C 
BRANCH  24  27
HETATM   27  O2  UNL     1      23.659   5.389   5.104  1.00  0.00    -0.396 OA
ATOM     28  H2  UNL     1      22.840   5.054   5.449  1.00  0.00     0.210 HD
ENDBRANCH  24  27
ENDBRANCH  13  21
BRANCH   1  29
HETATM   29  C4  UNL     1      28.834   2.251   9.004  1.00  0.00     0.248 C 
BRANCH  29  30
HETATM   30  C3  UNL     1      28.184   1.430  10.078  1.00  0.00     0.055 C 
BRANCH  30  31
HETATM   31  C2  UNL     1      29.110   1.335  11.262  1.00  0.00     0.168 C 
BRANCH  31  32
HETATM   32  O1  UNL     1      29.365   0.059  11.623  1.00  0.00    -0.396 OA
HETATM   33  C1  UNL     1      28.984  -0.311  12.884  1.00  0.00     0.201 C 
ENDBRANCH  31  32
ENDBRANCH  30  31
ENDBRANCH  29  30
ENDBRANCH   1  29
BRANCH  17  34
HETATM   34  O3  UNL     1      30.294  -1.262   8.796  1.00  0.00    -0.393 OA
ATOM     35  H3  UNL     1      29.822  -1.128   9.610  1.00  0.00     0.210 HD
ENDBRANCH  17  34
TORSDOF 7
ENDMDL
MODEL 5
REMARK VINA RESULT: 0.851278786      2.703      6.989
REMARK  7 active torsions:
REMARK  status: ('A' for Active; 'I' for Inactive)
REMARK    1  A    between atoms: O1_2  and  C2_3 
REMARK    2  A    between atoms: C2_3  and  C3_4 
REMARK    3  A    between atoms: C3_4  and  C4_5 
REMARK    4  A    between atoms: C4_5  and  N1_6 
REMARK    5  A    between atoms: N3_18  and  C14_19 
REMARK    6  A    between atoms: C17_22  and  O2_23 
REMARK    7  A    between atoms: C23_30  and  O3_31 
ROOT
HETATM    1  N1  UNL     1      27.280   0.215   4.030  1.00  0.00    -0.012 N 
HETATM    2  C5  UNL     1      28.250   0.084   5.037  1.00  0.00     0.215 C 
HETATM    3  C6  UNL     1      29.443   0.875   5.246  1.00  0.00    -0.006 C 
HETATM    4  C7  UNL     1      30.134   1.502   4.070  1.00  0.00     0.043 C 
HETATM    5  C8  UNL     1      29.437   2.626   3.440  1.00  0.00     0.010 C 
HETATM    6  C9  UNL     1      28.041   2.902   3.876  1.00  0.00     0.001 C 
HETATM    7  C10 UNL     1      28.013   4.314   4.360  1.00  0.00     0.011 C 
HETATM    8  C11 UNL     1      29.076   4.407   5.425  1.00  0.00     0.060 C 
HETATM    9  C12 UNL     1      29.319   3.280   6.313  1.00  0.00     0.037 A 
HETATM   10  N2  UNL     1      29.467   3.637   7.639  1.00  0.00    -0.354 N 
ATOM     11  H2  UNL     1      29.402   4.595   7.982  1.00  0.00     0.166 HD
HETATM   12  C13 UNL     1      29.703   2.597   8.406  1.00  0.00     0.184 A 
HETATM   13  N3  UNL     1      29.719   1.505   7.611  1.00  0.00    -0.336 N 
HETATM   14  C20 UNL     1      29.496   1.884   6.374  1.00  0.00     0.066 A 
HETATM   15  C21 UNL     1      27.027   2.340   2.975  1.00  0.00     0.045 C 
HETATM   16  C22 UNL     1      26.861   3.009   1.659  1.00  0.00     0.023 C 
HETATM   17  C23 UNL     1      25.705   2.002   3.642  1.00  0.00     0.157 C 
HETATM   18  C24 UNL     1      26.007   0.782   4.485  1.00  0.00     0.279 C 
HETATM   19  C25 UNL     1      27.474   0.859   2.800  1.00  0.00     0.388 C 
HETATM   20  F1  UNL     1      26.461   0.454   1.882  1.00  0.00    -0.217 F 
ENDROOT
BRANCH  13  21
HETATM   21  C14 UNL     1      29.955   0.128   8.017  1.00  0.00     0.091 C 
HETATM   22  C15 UNL     1      31.262  -0.048   8.713  1.00  0.00     0.028 C 
HETATM   23  C16 UNL     1      31.201  -0.119  10.215  1.00  0.00     0.034 C 
HETATM   24  C17 UNL     1      30.151  -1.173  10.582  1.00  0.00     0.118 C 
HETATM   25  C18 UNL     1      28.834  -0.472  10.222  1.00  0.00     0.034 C 
HETATM   26  C19 UNL     1      28.746  -0.356   8.753  1.00  0.00     0.028 C 
BRANCH  24  27
HETATM   27  O2  UNL     1      30.377  -2.255   9.744  1.00  0.00    -0.396 OA
ATOM     28  H2  UNL     1      29.551  -2.718   9.680  1.00  0.00     0.210 HD
ENDBRANCH  24  27
ENDBRANCH  13  21
BRANCH   1  29
HETATM   29  C4  UNL     1      26.891  -1.169   3.658  1.00  0.00     0.248 C 
BRANCH  29  30
HETATM   30  C3  UNL     1      28.054  -2.114   3.588  1.00  0.00     0.055 C 
BRANCH  30  31
HETATM   31  C2  UNL     1      28.970  -1.695   2.467  1.00  0.00     0.168 C 
BRANCH  31  32
HETATM   32  O1  UNL     1      30.232  -1.461   2.885  1.00  0.00    -0.396 OA
HETATM   33  C1  UNL     1      30.971  -2.553   3.251  1.00  0.00     0.201 C 
ENDBRANCH  31  32
ENDBRANCH  30  31
ENDBRANCH  29  30
ENDBRANCH   1  29
BRANCH  17  34
HETATM   34  O3  UNL     1      24.681   1.800   2.755  1.00  0.00    -0.393 OA
ATOM     35  H3  UNL     1      24.480   0.883   2.612  1.00  0.00     0.210 HD
ENDBRANCH  17  34
TORSDOF 7
ENDMDL
