MODEL 1
REMARK VINA RESULT: -7.827666794      0.000      0.000
REMARK  7 active torsions:
REMARK  status: ('A' for Active; 'I' for Inactive)
REMARK       I    between atoms: C1_2  and  N3_21 
REMARK    1  A    between atoms: N2_3  and  C2_5 
REMARK    2  A    between atoms: C2_5  and  C3_7 
REMARK    3  A    between atoms: C3_7  and  O1_8 
REMARK    4  A    between atoms: O1_8  and  C4_9 
REMARK    5  A    between atoms: C4_9  and  C5_11 
REMARK    6  A    between atoms: C10_17  and  C11_18 
REMARK    7  A    between atoms: N3_21  and  C13_23 
ROOT
HETATM    1  C2  UNL     1      28.676  -0.128   4.435  1.00  0.00     0.104 C 
HETATM    2  S1  UNL     1      29.889  -0.553   3.454  1.00  0.00    -0.063 SA
ENDROOT
BRANCH   1   3
HETATM    3  N2  UNL     1      28.881   0.378   5.751  1.00  0.00    -0.323 N 
HETATM    4  C1  UNL     1      29.323   1.548   5.999  1.00  0.00     0.193 C 
HETATM    5  N1  UNL     1      29.641   2.427   4.947  1.00  0.00    -0.063 NA
HETATM    6  N3  UNL     1      29.494   1.963   7.334  1.00  0.00    -0.340 N 
ATOM      7  H3  UNL     1      29.018   2.810   7.647  1.00  0.00     0.167 HD
ATOM      8  H2  UNL     1      28.661  -0.230   6.539  1.00  0.00     0.169 HD
BRANCH   6   9
HETATM    9  C13 UNL     1      30.308   1.244   8.271  1.00  0.00     0.105 C 
HETATM   10  C14 UNL     1      29.800   0.891   9.406  1.00  0.00    -0.006 C 
HETATM   11  C15 UNL     1      28.439   1.132   9.896  1.00  0.00     0.048 C 
HETATM   12  S2  UNL     1      30.634  -0.002  10.700  1.00  0.00    -0.133 SA
HETATM   13  C16 UNL     1      28.460   1.158  11.394  1.00  0.00     0.015 C 
HETATM   14  C17 UNL     1      29.219  -0.059  11.885  1.00  0.00     0.079 C 
ENDBRANCH   6   9
ENDBRANCH   1   3
BRANCH   1  15
HETATM   15  C3  UNL     1      27.270  -0.275   4.001  1.00  0.00     0.248 C 
BRANCH  15  16
HETATM   16  O1  UNL     1      26.496   0.870   4.047  1.00  0.00    -0.314 OA
BRANCH  16  17
HETATM   17  C4  UNL     1      26.230   1.628   2.888  1.00  0.00     0.266 C 
HETATM   18  O2  UNL     1      26.892   1.335   1.902  1.00  0.00    -0.265 OA
BRANCH  17  19
HETATM   19  C5  UNL     1      25.211   2.686   2.935  1.00  0.00     0.124 C 
HETATM   20  C6  UNL     1      24.436   2.486   4.226  1.00  0.00     0.136 C 
HETATM   21  C7  UNL     1      23.101   3.166   4.015  1.00  0.00     0.035 C 
HETATM   22  O3  UNL     1      25.050   3.385   5.092  1.00  0.00    -0.379 OA
HETATM   23  C8  UNL     1      23.529   4.610   3.934  1.00  0.00     0.035 C 
HETATM   24  C9  UNL     1      25.013   4.529   4.323  1.00  0.00     0.130 C 
HETATM   25  C10 UNL     1      25.735   4.099   3.078  1.00  0.00     0.054 C 
BRANCH  25  26
HETATM   26  C11 UNL     1      27.161   4.249   3.003  1.00  0.00    -0.011 C 
HETATM   27  C12 UNL     1      27.954   5.216   3.282  1.00  0.00     0.052 C 
HETATM   28 BR1  UNL     1      27.405   6.906   3.950  1.00  0.00    -0.064 Br
ENDBRANCH  25  26
ENDBRANCH  17  19
ENDBRANCH  16  17
ENDBRANCH  15  16
ENDBRANCH   1  15
TORSDOF 7
ENDMDL
MODEL 2
REMARK VINA RESULT: -7.519474566      1.357      2.312
REMARK  7 active torsions:
REMARK  status: ('A' for Active; 'I' for Inactive)
REMARK       I    between atoms: C1_2  and  N3_21 
REMARK    1  A    between atoms: N2_3  and  C2_5 
REMARK    2  A    between atoms: C2_5  and  C3_7 
REMARK    3  A    between atoms: C3_7  and  O1_8 
REMARK    4  A    between atoms: O1_8  and  C4_9 
REMARK    5  A    between atoms: C4_9  and  C5_11 
REMARK    6  A    between atoms: C10_17  and  C11_18 
REMARK    7  A    between atoms: N3_21  and  C13_23 
ROOT
HETATM    1  C2  UNL     1      29.025  -0.210   4.401  1.00  0.00     0.104 C 
HETATM    2  S1  UNL     1      30.302  -0.719   3.549  1.00  0.00    -0.063 SA
ENDROOT
BRANCH   1   3
HETATM    3  N2  UNL     1      29.124   0.273   5.737  1.00  0.00    -0.323 N 
HETATM    4  C1  UNL     1      29.529   1.443   6.040  1.00  0.00     0.193 C 
HETATM    5  N1  UNL     1      29.910   2.348   5.031  1.00  0.00    -0.063 NA
HETATM    6  N3  UNL     1      29.594   1.834   7.391  1.00  0.00    -0.340 N 
ATOM      7  H3  UNL     1      29.084   2.668   7.684  1.00  0.00     0.167 HD
ATOM      8  H2  UNL     1      28.857  -0.354   6.496  1.00  0.00     0.169 HD
BRANCH   6   9
HETATM    9  C13 UNL     1      30.348   1.108   8.373  1.00  0.00     0.105 C 
HETATM   10  C14 UNL     1      29.790   0.804   9.497  1.00  0.00    -0.006 C 
HETATM   11  C15 UNL     1      28.425   1.112   9.936  1.00  0.00     0.048 C 
HETATM   12  S2  UNL     1      30.545  -0.086  10.840  1.00  0.00    -0.133 SA
HETATM   13  C16 UNL     1      28.398   1.176  11.433  1.00  0.00     0.015 C 
HETATM   14  C17 UNL     1      29.091  -0.057  11.979  1.00  0.00     0.079 C 
ENDBRANCH   6   9
ENDBRANCH   1   3
BRANCH   1  15
HETATM   15  C3  UNL     1      27.667  -0.250   3.817  1.00  0.00     0.248 C 
BRANCH  15  16
HETATM   16  O1  UNL     1      26.861   0.844   4.076  1.00  0.00    -0.314 OA
BRANCH  16  17
HETATM   17  C4  UNL     1      26.814   1.948   3.200  1.00  0.00     0.266 C 
HETATM   18  O2  UNL     1      26.567   1.684   2.030  1.00  0.00    -0.265 OA
BRANCH  17  19
HETATM   19  C5  UNL     1      27.057   3.298   3.726  1.00  0.00     0.124 C 
HETATM   20  C6  UNL     1      27.225   4.209   2.523  1.00  0.00     0.136 C 
HETATM   21  C7  UNL     1      28.003   5.408   3.019  1.00  0.00     0.035 C 
HETATM   22  O3  UNL     1      25.957   4.764   2.381  1.00  0.00    -0.379 OA
HETATM   23  C8  UNL     1      26.996   6.032   3.953  1.00  0.00     0.035 C 
HETATM   24  C9  UNL     1      25.736   5.199   3.671  1.00  0.00     0.130 C 
HETATM   25  C10 UNL     1      25.900   3.935   4.465  1.00  0.00     0.054 C 
BRANCH  25  26
HETATM   26  C11 UNL     1      24.760   3.091   4.691  1.00  0.00    -0.011 C 
HETATM   27  C12 UNL     1      23.508   3.235   4.462  1.00  0.00     0.052 C 
HETATM   28 BR1  UNL     1      22.723   4.772   3.670  1.00  0.00    -0.064 Br
ENDBRANCH  25  26
ENDBRANCH  17  19
ENDBRANCH  16  17
ENDBRANCH  15  16
ENDBRANCH   1  15
TORSDOF 7
ENDMDL
MODEL 3
REMARK VINA RESULT: -7.104045791      0.857      1.075
REMARK  7 active torsions:
REMARK  status: ('A' for Active; 'I' for Inactive)
REMARK       I    between atoms: C1_2  and  N3_21 
REMARK    1  A    between atoms: N2_3  and  C2_5 
REMARK    2  A    between atoms: C2_5  and  C3_7 
REMARK    3  A    between atoms: C3_7  and  O1_8 
REMARK    4  A    between atoms: O1_8  and  C4_9 
REMARK    5  A    between atoms: C4_9  and  C5_11 
REMARK    6  A    between atoms: C10_17  and  C11_18 
REMARK    7  A    between atoms: N3_21  and  C13_23 
ROOT
HETATM    1  C2  UNL     1      28.635   0.132   3.414  1.00  0.00     0.104 C 
HETATM    2  S1  UNL     1      29.089  -1.264   2.735  1.00  0.00    -0.063 SA
ENDROOT
BRANCH   1   3
HETATM    3  N2  UNL     1      28.830   0.424   4.794  1.00  0.00    -0.323 N 
HETATM    4  C1  UNL     1      29.571   1.369   5.221  1.00  0.00     0.193 C 
HETATM    5  N1  UNL     1      30.258   2.200   4.316  1.00  0.00    -0.063 NA
HETATM    6  N3  UNL     1      29.704   1.585   6.606  1.00  0.00    -0.340 N 
ATOM      7  H3  UNL     1      29.472   2.505   6.982  1.00  0.00     0.167 HD
ATOM      8  H2  UNL     1      28.348  -0.156   5.481  1.00  0.00     0.169 HD
BRANCH   6   9
HETATM    9  C13 UNL     1      30.150   0.564   7.510  1.00  0.00     0.105 C 
HETATM   10  C14 UNL     1      29.643   0.507   8.697  1.00  0.00    -0.006 C 
HETATM   11  C15 UNL     1      28.622   1.384   9.281  1.00  0.00     0.048 C 
HETATM   12  S2  UNL     1      30.055  -0.673   9.963  1.00  0.00    -0.133 SA
HETATM   13  C16 UNL     1      28.792   1.403  10.770  1.00  0.00     0.015 C 
HETATM   14  C17 UNL     1      28.908  -0.028  11.258  1.00  0.00     0.079 C 
ENDBRANCH   6   9
ENDBRANCH   1   3
BRANCH   1  15
HETATM   15  C3  UNL     1      27.962   1.175   2.611  1.00  0.00     0.248 C 
BRANCH  15  16
HETATM   16  O1  UNL     1      26.589   1.057   2.489  1.00  0.00    -0.314 OA
BRANCH  16  17
HETATM   17  C4  UNL     1      25.718   1.489   3.510  1.00  0.00     0.266 C 
HETATM   18  O2  UNL     1      25.741   0.828   4.540  1.00  0.00    -0.265 OA
BRANCH  17  19
HETATM   19  C5  UNL     1      24.865   2.665   3.282  1.00  0.00     0.124 C 
HETATM   20  C6  UNL     1      23.807   2.651   4.371  1.00  0.00     0.136 C 
HETATM   21  C7  UNL     1      22.654   3.472   3.836  1.00  0.00     0.035 C 
HETATM   22  O3  UNL     1      24.331   3.527   5.317  1.00  0.00    -0.379 OA
HETATM   23  C8  UNL     1      23.279   4.844   3.796  1.00  0.00     0.035 C 
HETATM   24  C9  UNL     1      24.618   4.610   4.514  1.00  0.00     0.130 C 
HETATM   25  C10 UNL     1      25.530   4.010   3.483  1.00  0.00     0.054 C 
BRANCH  25  26
HETATM   26  C11 UNL     1      26.946   3.979   3.726  1.00  0.00    -0.011 C 
HETATM   27  C12 UNL     1      27.828   4.897   3.868  1.00  0.00     0.052 C 
HETATM   28 BR1  UNL     1      27.472   6.760   3.788  1.00  0.00    -0.064 Br
ENDBRANCH  25  26
ENDBRANCH  17  19
ENDBRANCH  16  17
ENDBRANCH  15  16
ENDBRANCH   1  15
TORSDOF 7
ENDMDL
MODEL 4
REMARK VINA RESULT: -7.041345921      0.953      1.167
REMARK  7 active torsions:
REMARK  status: ('A' for Active; 'I' for Inactive)
REMARK       I    between atoms: C1_2  and  N3_21 
REMARK    1  A    between atoms: N2_3  and  C2_5 
REMARK    2  A    between atoms: C2_5  and  C3_7 
REMARK    3  A    between atoms: C3_7  and  O1_8 
REMARK    4  A    between atoms: O1_8  and  C4_9 
REMARK    5  A    between atoms: C4_9  and  C5_11 
REMARK    6  A    between atoms: C10_17  and  C11_18 
REMARK    7  A    between atoms: N3_21  and  C13_23 
ROOT
HETATM    1  C2  UNL     1      28.259   0.482   4.026  1.00  0.00     0.104 C 
HETATM    2  S1  UNL     1      29.290   0.184   2.817  1.00  0.00    -0.063 SA
ENDROOT
BRANCH   1   3
HETATM    3  N2  UNL     1      28.619   1.219   5.191  1.00  0.00    -0.323 N 
HETATM    4  C1  UNL     1      29.701   1.035   5.839  1.00  0.00     0.193 C 
HETATM    5  N1  UNL     1      30.626   0.061   5.420  1.00  0.00    -0.063 NA
HETATM    6  N3  UNL     1      29.974   1.812   6.981  1.00  0.00    -0.340 N 
ATOM      7  H3  UNL     1      30.840   2.350   7.011  1.00  0.00     0.167 HD
ATOM      8  H2  UNL     1      27.974   1.934   5.526  1.00  0.00     0.169 HD
BRANCH   6   9
HETATM    9  C13 UNL     1      29.083   1.878   8.105  1.00  0.00     0.105 C 
HETATM   10  C14 UNL     1      29.379   1.229   9.182  1.00  0.00    -0.006 C 
HETATM   11  C15 UNL     1      30.558   0.392   9.433  1.00  0.00     0.048 C 
HETATM   12  S2  UNL     1      28.418   1.179  10.679  1.00  0.00    -0.133 SA
HETATM   13  C16 UNL     1      30.212  -0.635  10.469  1.00  0.00     0.015 C 
HETATM   14  C17 UNL     1      29.540   0.065  11.633  1.00  0.00     0.079 C 
ENDBRANCH   6   9
ENDBRANCH   1   3
BRANCH   1  15
HETATM   15  C3  UNL     1      26.874  -0.032   3.978  1.00  0.00     0.248 C 
BRANCH  15  16
HETATM   16  O1  UNL     1      25.871   0.920   3.971  1.00  0.00    -0.314 OA
BRANCH  16  17
HETATM   17  C4  UNL     1      25.589   1.686   2.821  1.00  0.00     0.266 C 
HETATM   18  O2  UNL     1      26.088   1.280   1.780  1.00  0.00    -0.265 OA
BRANCH  17  19
HETATM   19  C5  UNL     1      24.744   2.882   2.940  1.00  0.00     0.124 C 
HETATM   20  C6  UNL     1      23.879   2.684   4.172  1.00  0.00     0.136 C 
HETATM   21  C7  UNL     1      22.678   3.584   3.982  1.00  0.00     0.035 C 
HETATM   22  O3  UNL     1      24.577   3.386   5.150  1.00  0.00    -0.379 OA
HETATM   23  C8  UNL     1      23.327   4.943   4.069  1.00  0.00     0.035 C 
HETATM   24  C9  UNL     1      24.758   4.590   4.504  1.00  0.00     0.130 C 
HETATM   25  C10 UNL     1      25.471   4.174   3.249  1.00  0.00     0.054 C 
BRANCH  25  26
HETATM   26  C11 UNL     1      26.906   4.102   3.244  1.00  0.00    -0.011 C 
HETATM   27  C12 UNL     1      27.825   4.969   3.457  1.00  0.00     0.052 C 
HETATM   28 BR1  UNL     1      27.513   6.791   3.888  1.00  0.00    -0.064 Br
ENDBRANCH  25  26
ENDBRANCH  17  19
ENDBRANCH  16  17
ENDBRANCH  15  16
ENDBRANCH   1  15
TORSDOF 7
ENDMDL
MODEL 5
REMARK VINA RESULT: -6.767959836      1.593      1.915
REMARK  7 active torsions:
REMARK  status: ('A' for Active; 'I' for Inactive)
REMARK       I    between atoms: C1_2  and  N3_21 
REMARK    1  A    between atoms: N2_3  and  C2_5 
REMARK    2  A    between atoms: C2_5  and  C3_7 
REMARK    3  A    between atoms: C3_7  and  O1_8 
REMARK    4  A    between atoms: O1_8  and  C4_9 
REMARK    5  A    between atoms: C4_9  and  C5_11 
REMARK    6  A    between atoms: C10_17  and  C11_18 
REMARK    7  A    between atoms: N3_21  and  C13_23 
ROOT
HETATM    1  C2  UNL     1      28.497   0.500   4.121  1.00  0.00     0.104 C 
HETATM    2  S1  UNL     1      27.525  -0.786   3.987  1.00  0.00    -0.063 SA
ENDROOT
BRANCH   1   3
HETATM    3  N2  UNL     1      28.836   1.092   5.372  1.00  0.00    -0.323 N 
HETATM    4  C1  UNL     1      29.830   0.728   6.081  1.00  0.00     0.193 C 
HETATM    5  N1  UNL     1      30.672  -0.313   5.647  1.00  0.00    -0.063 NA
HETATM    6  N3  UNL     1      30.089   1.371   7.306  1.00  0.00    -0.340 N 
ATOM      7  H3  UNL     1      31.005   1.798   7.450  1.00  0.00     0.167 HD
ATOM      8  H2  UNL     1      28.249   1.849   5.720  1.00  0.00     0.169 HD
BRANCH   6   9
HETATM    9  C13 UNL     1      29.119   1.453   8.360  1.00  0.00     0.105 C 
HETATM   10  C14 UNL     1      29.415   0.986   9.527  1.00  0.00    -0.006 C 
HETATM   11  C15 UNL     1      30.669   0.352   9.950  1.00  0.00     0.048 C 
HETATM   12  S2  UNL     1      28.362   0.988  10.961  1.00  0.00    -0.133 SA
HETATM   13  C16 UNL     1      30.382  -0.578  11.090  1.00  0.00     0.015 C 
HETATM   14  C17 UNL     1      29.544   0.161  12.114  1.00  0.00     0.079 C 
ENDBRANCH   6   9
ENDBRANCH   1   3
BRANCH   1  15
HETATM   15  C3  UNL     1      29.065   1.141   2.917  1.00  0.00     0.248 C 
BRANCH  15  16
HETATM   16  O1  UNL     1      28.394   2.255   2.446  1.00  0.00    -0.314 OA
BRANCH  16  17
HETATM   17  C4  UNL     1      27.582   3.039   3.291  1.00  0.00     0.266 C 
HETATM   18  O2  UNL     1      28.172   3.650   4.173  1.00  0.00    -0.265 OA
BRANCH  17  19
HETATM   19  C5  UNL     1      26.129   3.070   3.072  1.00  0.00     0.124 C 
HETATM   20  C6  UNL     1      25.508   2.199   4.149  1.00  0.00     0.136 C 
HETATM   21  C7  UNL     1      24.156   1.783   3.614  1.00  0.00     0.035 C 
HETATM   22  O3  UNL     1      25.130   3.128   5.113  1.00  0.00    -0.379 OA
HETATM   23  C8  UNL     1      23.437   3.108   3.600  1.00  0.00     0.035 C 
HETATM   24  C9  UNL     1      24.434   4.023   4.328  1.00  0.00     0.130 C 
HETATM   25  C10 UNL     1      25.458   4.408   3.299  1.00  0.00     0.054 C 
BRANCH  25  26
HETATM   26  C11 UNL     1      26.336   5.514   3.556  1.00  0.00    -0.011 C 
HETATM   27  C12 UNL     1      26.173   6.785   3.527  1.00  0.00     0.052 C 
HETATM   28 BR1  UNL     1      24.544   7.655   3.088  1.00  0.00    -0.064 Br
ENDBRANCH  25  26
ENDBRANCH  17  19
ENDBRANCH  16  17
ENDBRANCH  15  16
ENDBRANCH   1  15
TORSDOF 7
ENDMDL
