MODEL 1
REMARK VINA RESULT: -6.629923261      0.000      0.000
REMARK  7 active torsions:
REMARK  status: ('A' for Active; 'I' for Inactive)
REMARK    1  A    between atoms: O1_2  and  C2_3 
REMARK    2  A    between atoms: C3_6  and  N2_7 
REMARK       I    between atoms: N2_7  and  C4_9 
REMARK    3  A    between atoms: N4_17  and  C9_18 
REMARK    4  A    between atoms: C9_18  and  C10_19 
REMARK    5  A    between atoms: C10_19  and  N5_21 
REMARK       I    between atoms: N5_21  and  C12_23 
REMARK    6  A    between atoms: C12_23  and  C13_25 
REMARK    7  A    between atoms: C16_28  and  C18_30 
ROOT
HETATM    1  C2  UNL     1      29.724  -0.940  10.179  1.00  0.00     0.170 A 
HETATM    2  N1  UNL     1      29.402  -0.740  11.484  1.00  0.00    -0.169 N 
ATOM      3  H1  UNL     1      29.596  -1.481  12.157  1.00  0.00     0.186 HD
HETATM    4  C3  UNL     1      28.839   0.397  11.921  1.00  0.00     0.687 A 
HETATM    5  N3  UNL     1      28.583   1.379  11.030  1.00  0.00    -0.194 N 
ATOM      6  H3  UNL     1      28.155   2.252  11.338  1.00  0.00     0.184 HD
HETATM    7  C6  UNL     1      28.897   1.198   9.723  1.00  0.00     0.044 A 
HETATM    8  C7  UNL     1      29.470   0.049   9.261  1.00  0.00     0.054 A 
HETATM    9  C8  UNL     1      29.791  -0.148   7.853  1.00  0.00     0.108 C 
HETATM   10  N4  UNL     1      30.073   1.005   7.133  1.00  0.00    -0.367 N 
HETATM   11  C22 UNL     1      29.839   2.284   7.756  1.00  0.00     0.133 C 
HETATM   12  C23 UNL     1      28.647   2.262   8.690  1.00  0.00     0.079 C 
ENDROOT
BRANCH  10  13
HETATM   13  C9  UNL     1      30.115   1.033   5.738  1.00  0.00     0.088 C 
BRANCH  13  14
HETATM   14  C10 UNL     1      29.052   0.407   4.932  1.00  0.00     0.119 C 
HETATM   15  C11 UNL     1      29.455  -0.397   3.748  1.00  0.00     0.038 C 
BRANCH  14  16
HETATM   16  N5  UNL     1      28.117   1.431   4.439  1.00  0.00    -0.352 N 
HETATM   17  C12 UNL     1      26.786   1.160   4.093  1.00  0.00     0.222 C 
HETATM   18  O3  UNL     1      26.392  -0.030   4.218  1.00  0.00    -0.273 OA
ATOM     19  H5  UNL     1      28.455   2.388   4.345  1.00  0.00     0.163 HD
BRANCH  17  20
HETATM   20  C13 UNL     1      25.836   2.177   3.597  1.00  0.00     0.078 C 
HETATM   21  C14 UNL     1      24.839   2.630   4.611  1.00  0.00     0.015 C 
HETATM   22  C15 UNL     1      25.032   4.077   5.033  1.00  0.00     0.013 C 
HETATM   23  C16 UNL     1      24.831   4.951   3.810  1.00  0.00    -0.013 C 
HETATM   24  C17 UNL     1      23.376   4.867   3.405  1.00  0.00     0.018 C 
HETATM   25  C20 UNL     1      25.688   4.490   2.654  1.00  0.00     0.013 C 
HETATM   26  C21 UNL     1      26.600   3.360   3.039  1.00  0.00     0.015 C 
BRANCH  23  27
HETATM   27  C18 UNL     1      25.133   6.371   4.204  1.00  0.00     0.174 C 
HETATM   28  C19 UNL     1      24.225   7.365   3.521  1.00  0.00     0.046 C 
HETATM   29  F1  UNL     1      26.472   6.669   4.002  1.00  0.00    -0.249 F 
ENDBRANCH  23  27
ENDBRANCH  17  20
ENDBRANCH  14  16
ENDBRANCH  13  14
ENDBRANCH  10  13
BRANCH   1  30
HETATM   30  O1  UNL     1      30.300  -2.114   9.761  1.00  0.00    -0.340 OA
HETATM   31  C1  UNL     1      29.457  -3.276   9.735  1.00  0.00     0.211 C 
ENDBRANCH   1  30
BRANCH   4  32
HETATM   32  N2  UNL     1      28.527   0.585  13.181  1.00  0.00    -0.160 N 
HETATM   33  C4  UNL     1      28.768  -0.336  14.205  1.00  0.00     0.231 C 
HETATM   34  C5  UNL     1      27.932  -1.544  14.373  1.00  0.00     0.118 C 
HETATM   35  O2  UNL     1      29.723  -0.126  15.006  1.00  0.00    -0.273 OA
ATOM     36  H2  UNL     1      28.077   1.465  13.432  1.00  0.00     0.187 HD
ENDBRANCH   4  32
TORSDOF 7
ENDMDL
MODEL 2
REMARK VINA RESULT: -5.969117703      4.039      8.461
REMARK  7 active torsions:
REMARK  status: ('A' for Active; 'I' for Inactive)
REMARK    1  A    between atoms: O1_2  and  C2_3 
REMARK    2  A    between atoms: C3_6  and  N2_7 
REMARK       I    between atoms: N2_7  and  C4_9 
REMARK    3  A    between atoms: N4_17  and  C9_18 
REMARK    4  A    between atoms: C9_18  and  C10_19 
REMARK    5  A    between atoms: C10_19  and  N5_21 
REMARK       I    between atoms: N5_21  and  C12_23 
REMARK    6  A    between atoms: C12_23  and  C13_25 
REMARK    7  A    between atoms: C16_28  and  C18_30 
ROOT
HETATM    1  C2  UNL     1      27.083   3.575   3.133  1.00  0.00     0.170 A 
HETATM    2  N1  UNL     1      25.956   4.168   3.608  1.00  0.00    -0.169 N 
ATOM      3  H1  UNL     1      25.822   5.166   3.445  1.00  0.00     0.186 HD
HETATM    4  C3  UNL     1      25.015   3.492   4.283  1.00  0.00     0.687 A 
HETATM    5  N3  UNL     1      25.193   2.170   4.497  1.00  0.00    -0.194 N 
ATOM      6  H3  UNL     1      24.491   1.635   5.007  1.00  0.00     0.184 HD
HETATM    7  C6  UNL     1      26.310   1.560   4.031  1.00  0.00     0.044 A 
HETATM    8  C7  UNL     1      27.279   2.231   3.343  1.00  0.00     0.054 A 
HETATM    9  C8  UNL     1      28.485   1.575   2.858  1.00  0.00     0.108 C 
HETATM   10  N4  UNL     1      28.360   0.223   2.569  1.00  0.00    -0.367 N 
HETATM   11  C22 UNL     1      27.145  -0.456   2.945  1.00  0.00     0.133 C 
HETATM   12  C23 UNL     1      26.554   0.089   4.229  1.00  0.00     0.079 C 
ENDROOT
BRANCH  10  13
HETATM   13  C9  UNL     1      29.461  -0.613   2.375  1.00  0.00     0.088 C 
BRANCH  13  14
HETATM   14  C10 UNL     1      30.459  -0.817   3.440  1.00  0.00     0.119 C 
HETATM   15  C11 UNL     1      31.202  -2.104   3.464  1.00  0.00     0.038 C 
BRANCH  14  16
HETATM   16  N5  UNL     1      29.828  -0.678   4.762  1.00  0.00    -0.352 N 
HETATM   17  C12 UNL     1      29.951   0.467   5.561  1.00  0.00     0.222 C 
HETATM   18  O3  UNL     1      30.643   1.415   5.102  1.00  0.00    -0.273 OA
ATOM     19  H5  UNL     1      29.272  -1.456   5.116  1.00  0.00     0.163 HD
BRANCH  17  20
HETATM   20  C13 UNL     1      29.323   0.622   6.889  1.00  0.00     0.078 C 
HETATM   21  C14 UNL     1      29.269  -0.635   7.692  1.00  0.00     0.015 C 
HETATM   22  C15 UNL     1      30.161  -0.598   8.921  1.00  0.00     0.013 C 
HETATM   23  C16 UNL     1      29.663   0.513   9.826  1.00  0.00    -0.013 C 
HETATM   24  C17 UNL     1      28.305   0.114  10.357  1.00  0.00     0.018 C 
HETATM   25  C20 UNL     1      29.531   1.819   9.076  1.00  0.00     0.013 C 
HETATM   26  C21 UNL     1      30.030   1.715   7.663  1.00  0.00     0.015 C 
BRANCH  23  27
HETATM   27  C18 UNL     1      30.615   0.624  10.986  1.00  0.00     0.174 C 
HETATM   28  C19 UNL     1      31.915  -0.100  10.736  1.00  0.00     0.046 C 
HETATM   29  F1  UNL     1      30.012   0.212  12.165  1.00  0.00    -0.249 F 
ENDBRANCH  23  27
ENDBRANCH  17  20
ENDBRANCH  14  16
ENDBRANCH  13  14
ENDBRANCH  10  13
BRANCH   1  30
HETATM   30  O1  UNL     1      28.030   4.292   2.445  1.00  0.00    -0.340 OA
HETATM   31  C1  UNL     1      28.014   5.717   2.616  1.00  0.00     0.211 C 
ENDBRANCH   1  30
BRANCH   4  32
HETATM   32  N2  UNL     1      23.930   4.070   4.741  1.00  0.00    -0.160 N 
HETATM   33  C4  UNL     1      23.138   4.963   4.014  1.00  0.00     0.231 C 
HETATM   34  C5  UNL     1      23.560   6.361   3.782  1.00  0.00     0.118 C 
HETATM   35  O2  UNL     1      22.034   4.562   3.546  1.00  0.00    -0.273 OA
ATOM     36  H2  UNL     1      23.646   3.853   5.696  1.00  0.00     0.187 HD
ENDBRANCH   4  32
TORSDOF 7
ENDMDL
MODEL 3
REMARK VINA RESULT: -5.677834211      3.723      9.005
REMARK  7 active torsions:
REMARK  status: ('A' for Active; 'I' for Inactive)
REMARK    1  A    between atoms: O1_2  and  C2_3 
REMARK    2  A    between atoms: C3_6  and  N2_7 
REMARK       I    between atoms: N2_7  and  C4_9 
REMARK    3  A    between atoms: N4_17  and  C9_18 
REMARK    4  A    between atoms: C9_18  and  C10_19 
REMARK    5  A    between atoms: C10_19  and  N5_21 
REMARK       I    between atoms: N5_21  and  C12_23 
REMARK    6  A    between atoms: C12_23  and  C13_25 
REMARK    7  A    between atoms: C16_28  and  C18_30 
ROOT
HETATM    1  C2  UNL     1      24.929   3.751   4.118  1.00  0.00     0.170 A 
HETATM    2  N1  UNL     1      24.728   5.092   4.036  1.00  0.00    -0.169 N 
ATOM      3  H1  UNL     1      23.800   5.462   4.238  1.00  0.00     0.186 HD
HETATM    4  C3  UNL     1      25.705   5.948   3.701  1.00  0.00     0.687 A 
HETATM    5  N3  UNL     1      26.935   5.458   3.435  1.00  0.00    -0.194 N 
ATOM      6  H3  UNL     1      27.694   6.089   3.178  1.00  0.00     0.184 HD
HETATM    7  C6  UNL     1      27.156   4.122   3.511  1.00  0.00     0.044 A 
HETATM    8  C7  UNL     1      26.175   3.236   3.850  1.00  0.00     0.054 A 
HETATM    9  C8  UNL     1      26.412   1.800   3.915  1.00  0.00     0.108 C 
HETATM   10  N4  UNL     1      27.710   1.418   4.224  1.00  0.00    -0.367 N 
HETATM   11  C22 UNL     1      28.739   2.427   4.259  1.00  0.00     0.133 C 
HETATM   12  C23 UNL     1      28.508   3.522   3.238  1.00  0.00     0.079 C 
ENDROOT
BRANCH  10  13
HETATM   13  C9  UNL     1      28.176   0.114   4.047  1.00  0.00     0.088 C 
BRANCH  13  14
HETATM   14  C10 UNL     1      29.617  -0.193   4.096  1.00  0.00     0.119 C 
HETATM   15  C11 UNL     1      30.143  -1.224   3.163  1.00  0.00     0.038 C 
BRANCH  14  16
HETATM   16  N5  UNL     1      30.000  -0.624   5.449  1.00  0.00    -0.352 N 
HETATM   17  C12 UNL     1      30.172   0.260   6.523  1.00  0.00     0.222 C 
HETATM   18  O3  UNL     1      29.983   1.484   6.292  1.00  0.00    -0.273 OA
ATOM     19  H5  UNL     1      30.148  -1.619   5.615  1.00  0.00     0.163 HD
BRANCH  17  20
HETATM   20  C13 UNL     1      30.556  -0.158   7.887  1.00  0.00     0.078 C 
HETATM   21  C14 UNL     1      30.904   0.971   8.799  1.00  0.00     0.015 C 
HETATM   22  C15 UNL     1      29.904   1.156   9.928  1.00  0.00     0.013 C 
HETATM   23  C16 UNL     1      29.918  -0.102  10.775  1.00  0.00    -0.013 C 
HETATM   24  C17 UNL     1      31.259  -0.189  11.468  1.00  0.00     0.018 C 
HETATM   25  C20 UNL     1      29.724  -1.340   9.929  1.00  0.00     0.013 C 
HETATM   26  C21 UNL     1      29.456  -1.007   8.489  1.00  0.00     0.015 C 
BRANCH  23  27
HETATM   27  C18 UNL     1      28.848   0.036  11.823  1.00  0.00     0.174 C 
HETATM   28  C19 UNL     1      27.908   1.183  11.540  1.00  0.00     0.046 C 
HETATM   29  F1  UNL     1      29.402   0.122  13.091  1.00  0.00    -0.249 F 
ENDBRANCH  23  27
ENDBRANCH  17  20
ENDBRANCH  14  16
ENDBRANCH  13  14
ENDBRANCH  10  13
BRANCH   1  30
HETATM   30  O1  UNL     1      23.911   2.898   4.464  1.00  0.00    -0.340 OA
HETATM   31  C1  UNL     1      22.592   3.248   4.016  1.00  0.00     0.211 C 
ENDBRANCH   1  30
BRANCH   4  32
HETATM   32  N2  UNL     1      25.506   7.242   3.621  1.00  0.00    -0.160 N 
HETATM   33  C4  UNL     1      24.250   7.848   3.528  1.00  0.00     0.231 C 
HETATM   34  C5  UNL     1      23.477   7.841   2.267  1.00  0.00     0.118 C 
HETATM   35  O2  UNL     1      23.766   8.417   4.548  1.00  0.00    -0.273 OA
ATOM     36  H2  UNL     1      26.326   7.849   3.627  1.00  0.00     0.187 HD
ENDBRANCH   4  32
TORSDOF 7
ENDMDL
MODEL 4
REMARK VINA RESULT: -5.484993040      1.278      1.512
REMARK  7 active torsions:
REMARK  status: ('A' for Active; 'I' for Inactive)
REMARK    1  A    between atoms: O1_2  and  C2_3 
REMARK    2  A    between atoms: C3_6  and  N2_7 
REMARK       I    between atoms: N2_7  and  C4_9 
REMARK    3  A    between atoms: N4_17  and  C9_18 
REMARK    4  A    between atoms: C9_18  and  C10_19 
REMARK    5  A    between atoms: C10_19  and  N5_21 
REMARK       I    between atoms: N5_21  and  C12_23 
REMARK    6  A    between atoms: C12_23  and  C13_25 
REMARK    7  A    between atoms: C16_28  and  C18_30 
ROOT
HETATM    1  C2  UNL     1      29.785  -1.048  10.371  1.00  0.00     0.170 A 
HETATM    2  N1  UNL     1      29.418  -0.837  11.663  1.00  0.00    -0.169 N 
ATOM      3  H1  UNL     1      29.590  -1.574  12.347  1.00  0.00     0.186 HD
HETATM    4  C3  UNL     1      28.839   0.301  12.071  1.00  0.00     0.687 A 
HETATM    5  N3  UNL     1      28.612   1.276  11.164  1.00  0.00    -0.194 N 
ATOM      6  H3  UNL     1      28.174   2.151  11.451  1.00  0.00     0.184 HD
HETATM    7  C6  UNL     1      28.971   1.085   9.870  1.00  0.00     0.044 A 
HETATM    8  C7  UNL     1      29.560  -0.066   9.437  1.00  0.00     0.054 A 
HETATM    9  C8  UNL     1      29.930  -0.274   8.042  1.00  0.00     0.108 C 
HETATM   10  N4  UNL     1      30.234   0.874   7.323  1.00  0.00    -0.367 N 
HETATM   11  C22 UNL     1      29.978   2.158   7.927  1.00  0.00     0.133 C 
HETATM   12  C23 UNL     1      28.755   2.141   8.821  1.00  0.00     0.079 C 
ENDROOT
BRANCH  10  13
HETATM   13  C9  UNL     1      30.324   0.891   5.930  1.00  0.00     0.088 C 
BRANCH  13  14
HETATM   14  C10 UNL     1      29.756  -0.200   5.118  1.00  0.00     0.119 C 
HETATM   15  C11 UNL     1      30.560  -0.714   3.978  1.00  0.00     0.038 C 
BRANCH  14  16
HETATM   16  N5  UNL     1      28.456   0.205   4.559  1.00  0.00    -0.352 N 
HETATM   17  C12 UNL     1      28.279   1.339   3.755  1.00  0.00     0.222 C 
HETATM   18  O3  UNL     1      29.303   2.033   3.512  1.00  0.00    -0.273 OA
ATOM     19  H5  UNL     1      27.640  -0.370   4.768  1.00  0.00     0.163 HD
BRANCH  17  20
HETATM   20  C13 UNL     1      26.982   1.758   3.187  1.00  0.00     0.078 C 
HETATM   21  C14 UNL     1      25.802   1.050   3.765  1.00  0.00     0.015 C 
HETATM   22  C15 UNL     1      24.904   1.959   4.587  1.00  0.00     0.013 C 
HETATM   23  C16 UNL     1      24.355   3.031   3.665  1.00  0.00    -0.013 C 
HETATM   24  C17 UNL     1      23.420   2.369   2.678  1.00  0.00     0.018 C 
HETATM   25  C20 UNL     1      25.461   3.724   2.902  1.00  0.00     0.013 C 
HETATM   26  C21 UNL     1      26.824   3.258   3.329  1.00  0.00     0.015 C 
BRANCH  23  27
HETATM   27  C18 UNL     1      23.559   3.995   4.502  1.00  0.00     0.174 C 
HETATM   28  C19 UNL     1      23.731   5.426   4.054  1.00  0.00     0.046 C 
HETATM   29  F1  UNL     1      23.844   3.838   5.850  1.00  0.00    -0.249 F 
ENDBRANCH  23  27
ENDBRANCH  17  20
ENDBRANCH  14  16
ENDBRANCH  13  14
ENDBRANCH  10  13
BRANCH   1  30
HETATM   30  O1  UNL     1      30.376  -2.224   9.982  1.00  0.00    -0.340 OA
HETATM   31  C1  UNL     1      29.499  -3.314   9.659  1.00  0.00     0.211 C 
ENDBRANCH   1  30
BRANCH   4  32
HETATM   32  N2  UNL     1      28.485   0.499  13.318  1.00  0.00    -0.160 N 
HETATM   33  C4  UNL     1      28.702  -0.409  14.359  1.00  0.00     0.231 C 
HETATM   34  C5  UNL     1      27.874  -1.624  14.513  1.00  0.00     0.118 C 
HETATM   35  O2  UNL     1      29.628  -0.180  15.189  1.00  0.00    -0.273 OA
ATOM     36  H2  UNL     1      28.018   1.377  13.545  1.00  0.00     0.187 HD
ENDBRANCH   4  32
TORSDOF 7
ENDMDL
MODEL 5
REMARK VINA RESULT: -4.974740153      3.776      9.021
REMARK  7 active torsions:
REMARK  status: ('A' for Active; 'I' for Inactive)
REMARK    1  A    between atoms: O1_2  and  C2_3 
REMARK    2  A    between atoms: C3_6  and  N2_7 
REMARK       I    between atoms: N2_7  and  C4_9 
REMARK    3  A    between atoms: N4_17  and  C9_18 
REMARK    4  A    between atoms: C9_18  and  C10_19 
REMARK    5  A    between atoms: C10_19  and  N5_21 
REMARK       I    between atoms: N5_21  and  C12_23 
REMARK    6  A    between atoms: C12_23  and  C13_25 
REMARK    7  A    between atoms: C16_28  and  C18_30 
ROOT
HETATM    1  C2  UNL     1      26.696   4.637   3.813  1.00  0.00     0.170 A 
HETATM    2  N1  UNL     1      25.738   5.595   3.699  1.00  0.00    -0.169 N 
ATOM      3  H1  UNL     1      26.027   6.565   3.579  1.00  0.00     0.186 HD
HETATM    4  C3  UNL     1      24.428   5.311   3.739  1.00  0.00     0.687 A 
HETATM    5  N3  UNL     1      24.046   4.025   3.898  1.00  0.00    -0.194 N 
ATOM      6  H3  UNL     1      23.055   3.785   3.931  1.00  0.00     0.184 HD
HETATM    7  C6  UNL     1      24.987   3.056   4.013  1.00  0.00     0.044 A 
HETATM    8  C7  UNL     1      26.324   3.325   3.975  1.00  0.00     0.054 A 
HETATM    9  C8  UNL     1      27.332   2.282   4.116  1.00  0.00     0.108 C 
HETATM   10  N4  UNL     1      26.953   1.018   3.685  1.00  0.00    -0.367 N 
HETATM   11  C22 UNL     1      25.574   0.791   3.331  1.00  0.00     0.133 C 
HETATM   12  C23 UNL     1      24.619   1.606   4.179  1.00  0.00     0.079 C 
ENDROOT
BRANCH  10  13
HETATM   13  C9  UNL     1      27.672  -0.135   4.006  1.00  0.00     0.088 C 
BRANCH  13  14
HETATM   14  C10 UNL     1      29.146  -0.134   4.020  1.00  0.00     0.119 C 
HETATM   15  C11 UNL     1      29.854  -1.008   3.048  1.00  0.00     0.038 C 
BRANCH  14  16
HETATM   16  N5  UNL     1      29.643  -0.509   5.354  1.00  0.00    -0.352 N 
HETATM   17  C12 UNL     1      29.954   0.423   6.353  1.00  0.00     0.222 C 
HETATM   18  O3  UNL     1      29.792   1.640   6.071  1.00  0.00    -0.273 OA
ATOM     19  H5  UNL     1      29.767  -1.499   5.562  1.00  0.00     0.163 HD
BRANCH  17  20
HETATM   20  C13 UNL     1      30.453   0.062   7.695  1.00  0.00     0.078 C 
HETATM   21  C14 UNL     1      30.666   1.226   8.604  1.00  0.00     0.015 C 
HETATM   22  C15 UNL     1      29.698   1.254   9.775  1.00  0.00     0.013 C 
HETATM   23  C16 UNL     1      29.935   0.009  10.607  1.00  0.00    -0.013 C 
HETATM   24  C17 UNL     1      31.303   0.122  11.245  1.00  0.00     0.018 C 
HETATM   25  C20 UNL     1      29.894  -1.241   9.757  1.00  0.00     0.013 C 
HETATM   26  C21 UNL     1      29.519  -0.946   8.333  1.00  0.00     0.015 C 
BRANCH  23  27
HETATM   27  C18 UNL     1      28.902  -0.020  11.700  1.00  0.00     0.174 C 
HETATM   28  C19 UNL     1      27.983   1.176  11.655  1.00  0.00     0.046 C 
HETATM   29  F1  UNL     1      29.496  -0.170  12.944  1.00  0.00    -0.249 F 
ENDBRANCH  23  27
ENDBRANCH  17  20
ENDBRANCH  14  16
ENDBRANCH  13  14
ENDBRANCH  10  13
BRANCH   1  30
HETATM   30  O1  UNL     1      28.030   4.957   3.768  1.00  0.00    -0.340 OA
HETATM   31  C1  UNL     1      28.540   5.438   2.515  1.00  0.00     0.211 C 
ENDBRANCH   1  30
BRANCH   4  32
HETATM   32  N2  UNL     1      23.507   6.239   3.631  1.00  0.00    -0.160 N 
HETATM   33  C4  UNL     1      23.758   7.614   3.654  1.00  0.00     0.231 C 
HETATM   34  C5  UNL     1      24.062   8.326   4.913  1.00  0.00     0.118 C 
HETATM   35  O2  UNL     1      23.721   8.262   2.568  1.00  0.00    -0.273 OA
ATOM     36  H2  UNL     1      22.539   5.936   3.524  1.00  0.00     0.187 HD
ENDBRANCH   4  32
TORSDOF 7
ENDMDL
