MODEL 1
REMARK VINA RESULT: -4.700633670      0.000      0.000
REMARK  8 active torsions:
REMARK  status: ('A' for Active; 'I' for Inactive)
REMARK    1  A    between atoms: C2_2  and  C3_3 
REMARK    2  A    between atoms: C3_3  and  C4_4 
REMARK    3  A    between atoms: C4_4  and  N1_5 
REMARK    4  A    between atoms: C5_7  and  C6_8 
REMARK    5  A    between atoms: C7_9  and  O1_10 
REMARK    6  A    between atoms: N3_14  and  C9_15 
REMARK    7  A    between atoms: N4_25  and  C16_27 
REMARK    8  A    between atoms: C16_27  and  C17_31 
ROOT
HETATM    1  C6  UNL     1      28.425   2.101   4.249  1.00  0.00     0.077 A 
HETATM    2  C7  UNL     1      28.786   3.345   4.791  1.00  0.00     0.172 A 
HETATM    3  N2  UNL     1      29.222   3.126   6.035  1.00  0.00    -0.266 N 
HETATM    4  C8  UNL     1      29.682   4.206   6.904  1.00  0.00     0.181 C 
HETATM    5  N3  UNL     1      29.172   1.850   6.338  1.00  0.00    -0.232 N 
HETATM    6  C15 UNL     1      28.674   1.163   5.238  1.00  0.00     0.145 A 
HETATM    7  N4  UNL     1      28.526  -0.092   5.269  1.00  0.00    -0.324 N 
ATOM      8  H4  UNL     1      28.802  -0.515   6.155  1.00  0.00     0.169 HD
ENDROOT
BRANCH   5   9
HETATM    9  C9  UNL     1      29.562   1.277   7.581  1.00  0.00     0.099 A 
HETATM   10  C10 UNL     1      28.838   1.535   8.729  1.00  0.00     0.060 A 
HETATM   11  C11 UNL     1      29.183   1.001   9.951  1.00  0.00     0.058 A 
HETATM   12 CL1  UNL     1      28.210   1.377  11.368  1.00  0.00    -0.082 Cl
HETATM   13  C12 UNL     1      30.294   0.178  10.027  1.00  0.00     0.058 A 
HETATM   14 CL2  UNL     1      30.747  -0.508  11.567  1.00  0.00    -0.082 Cl
HETATM   15  C13 UNL     1      31.017  -0.078   8.881  1.00  0.00     0.070 A 
HETATM   16  C14 UNL     1      30.683   0.446   7.666  1.00  0.00     0.146 A 
HETATM   17  F1  UNL     1      31.377   0.208   6.525  1.00  0.00    -0.204 F 
ENDBRANCH   5   9
BRANCH   2  18
HETATM   18  O1  UNL     1      28.689   4.552   4.117  1.00  0.00    -0.344 OA
ATOM     19  H1  UNL     1      28.570   5.395   4.539  1.00  0.00     0.219 HD
ENDBRANCH   2  18
BRANCH   1  20
HETATM   20  C5  UNL     1      27.902   1.900   2.913  1.00  0.00     0.102 C 
HETATM   21  N1  UNL     1      26.624   1.771   2.756  1.00  0.00    -0.398 N 
ATOM     22  H1  UNL     1      26.020   1.815   3.577  1.00  0.00     0.158 HD
BRANCH  21  23
HETATM   23  C4  UNL     1      26.023   1.567   1.457  1.00  0.00     0.119 C 
BRANCH  23  24
HETATM   24  C3  UNL     1      24.538   1.286   1.639  1.00  0.00     0.019 C 
BRANCH  24  25
HETATM   25  C2  UNL     1      24.138   1.381   3.093  1.00  0.00    -0.003 C 
HETATM   26  C1  UNL     1      23.623   2.776   3.354  1.00  0.00     0.005 C 
ENDBRANCH  24  25
ENDBRANCH  23  24
ENDBRANCH  21  23
ENDBRANCH   1  20
BRANCH   7  27
HETATM   27  C16 UNL     1      28.067  -0.997   4.346  1.00  0.00     0.138 C 
HETATM   28  N5  UNL     1      26.844  -1.448   4.408  1.00  0.00    -0.383 N 
ATOM     29  H52 UNL     1      26.264  -1.108   5.176  1.00  0.00     0.157 HD
ATOM     30  H51 UNL     1      26.503  -2.121   3.722  1.00  0.00     0.157 HD
BRANCH  27  31
HETATM   31  C17 UNL     1      28.900  -1.484   3.243  1.00  0.00     0.306 C 
HETATM   32  O2  UNL     1      30.003  -2.040   3.474  1.00  0.00    -0.298 OA
ENDBRANCH  27  31
ENDBRANCH   7  27
TORSDOF 8
ENDMDL
MODEL 2
REMARK VINA RESULT: -4.650815137      3.626      7.082
REMARK  8 active torsions:
REMARK  status: ('A' for Active; 'I' for Inactive)
REMARK    1  A    between atoms: C2_2  and  C3_3 
REMARK    2  A    between atoms: C3_3  and  C4_4 
REMARK    3  A    between atoms: C4_4  and  N1_5 
REMARK    4  A    between atoms: C5_7  and  C6_8 
REMARK    5  A    between atoms: C7_9  and  O1_10 
REMARK    6  A    between atoms: N3_14  and  C9_15 
REMARK    7  A    between atoms: N4_25  and  C16_27 
REMARK    8  A    between atoms: C16_27  and  C17_31 
ROOT
HETATM    1  C6  UNL     1      28.981   0.802   5.320  1.00  0.00     0.077 A 
HETATM    2  C7  UNL     1      28.465   0.285   4.120  1.00  0.00     0.172 A 
HETATM    3  N2  UNL     1      27.646   1.208   3.609  1.00  0.00    -0.266 N 
HETATM    4  C8  UNL     1      26.926   1.006   2.354  1.00  0.00     0.181 C 
HETATM    5  N3  UNL     1      27.592   2.273   4.376  1.00  0.00    -0.232 N 
HETATM    6  C15 UNL     1      28.421   2.061   5.469  1.00  0.00     0.145 A 
HETATM    7  N4  UNL     1      28.550   2.941   6.367  1.00  0.00    -0.324 N 
ATOM      8  H4  UNL     1      27.999   3.783   6.197  1.00  0.00     0.169 HD
ENDROOT
BRANCH   5   9
HETATM    9  C9  UNL     1      26.815   3.438   4.122  1.00  0.00     0.099 A 
HETATM   10  C10 UNL     1      25.451   3.431   4.336  1.00  0.00     0.060 A 
HETATM   11  C11 UNL     1      24.664   4.537   4.102  1.00  0.00     0.058 A 
HETATM   12 CL1  UNL     1      22.932   4.449   4.401  1.00  0.00    -0.082 Cl
HETATM   13  C12 UNL     1      25.265   5.694   3.637  1.00  0.00     0.058 A 
HETATM   14 CL2  UNL     1      24.285   7.107   3.335  1.00  0.00    -0.082 Cl
HETATM   15  C13 UNL     1      26.627   5.701   3.422  1.00  0.00     0.070 A 
HETATM   16  C14 UNL     1      27.416   4.610   3.651  1.00  0.00     0.146 A 
HETATM   17  F1  UNL     1      28.757   4.592   3.448  1.00  0.00    -0.204 F 
ENDBRANCH   5   9
BRANCH   2  18
HETATM   18  O1  UNL     1      28.779  -0.963   3.605  1.00  0.00    -0.344 OA
ATOM     19  H1  UNL     1      28.137  -1.613   3.345  1.00  0.00     0.219 HD
ENDBRANCH   2  18
BRANCH   1  20
HETATM   20  C5  UNL     1      29.914   0.111   6.186  1.00  0.00     0.102 C 
HETATM   21  N1  UNL     1      29.647   0.027   7.450  1.00  0.00    -0.398 N 
ATOM     22  H1  UNL     1      28.787   0.449   7.800  1.00  0.00     0.158 HD
BRANCH  21  23
HETATM   23  C4  UNL     1      30.525  -0.645   8.381  1.00  0.00     0.119 C 
BRANCH  23  24
HETATM   24  C3  UNL     1      29.775  -0.878   9.686  1.00  0.00     0.019 C 
BRANCH  24  25
HETATM   25  C2  UNL     1      30.357  -0.047  10.806  1.00  0.00    -0.003 C 
HETATM   26  C1  UNL     1      29.264   0.232  11.809  1.00  0.00     0.005 C 
ENDBRANCH  24  25
ENDBRANCH  23  24
ENDBRANCH  21  23
ENDBRANCH   1  20
BRANCH   7  27
HETATM   27  C16 UNL     1      29.285   2.990   7.524  1.00  0.00     0.138 C 
HETATM   28  N5  UNL     1      30.559   3.268   7.491  1.00  0.00    -0.383 N 
ATOM     29  H52 UNL     1      30.974   3.430   6.573  1.00  0.00     0.157 HD
ATOM     30  H51 UNL     1      31.106   3.304   8.352  1.00  0.00     0.157 HD
BRANCH  27  31
HETATM   31  C17 UNL     1      28.689   2.757   8.842  1.00  0.00     0.306 C 
HETATM   32  O2  UNL     1      27.921   1.781   9.032  1.00  0.00    -0.298 OA
ENDBRANCH  27  31
ENDBRANCH   7  27
TORSDOF 8
ENDMDL
MODEL 3
REMARK VINA RESULT: -4.501776745      3.695      7.166
REMARK  8 active torsions:
REMARK  status: ('A' for Active; 'I' for Inactive)
REMARK    1  A    between atoms: C2_2  and  C3_3 
REMARK    2  A    between atoms: C3_3  and  C4_4 
REMARK    3  A    between atoms: C4_4  and  N1_5 
REMARK    4  A    between atoms: C5_7  and  C6_8 
REMARK    5  A    between atoms: C7_9  and  O1_10 
REMARK    6  A    between atoms: N3_14  and  C9_15 
REMARK    7  A    between atoms: N4_25  and  C16_27 
REMARK    8  A    between atoms: C16_27  and  C17_31 
ROOT
HETATM    1  C6  UNL     1      29.476   0.554   5.796  1.00  0.00     0.077 A 
HETATM    2  C7  UNL     1      29.318   0.098   4.477  1.00  0.00     0.172 A 
HETATM    3  N2  UNL     1      28.470   0.931   3.867  1.00  0.00    -0.266 N 
HETATM    4  C8  UNL     1      28.072   0.757   2.472  1.00  0.00     0.181 C 
HETATM    5  N3  UNL     1      28.070   1.881   4.679  1.00  0.00    -0.232 N 
HETATM    6  C15 UNL     1      28.681   1.683   5.911  1.00  0.00     0.145 A 
HETATM    7  N4  UNL     1      28.463   2.468   6.877  1.00  0.00    -0.324 N 
ATOM      8  H4  UNL     1      27.817   3.225   6.653  1.00  0.00     0.169 HD
ENDROOT
BRANCH   5   9
HETATM    9  C9  UNL     1      27.167   2.929   4.347  1.00  0.00     0.099 A 
HETATM   10  C10 UNL     1      27.622   4.224   4.196  1.00  0.00     0.060 A 
HETATM   11  C11 UNL     1      26.780   5.267   3.875  1.00  0.00     0.058 A 
HETATM   12 CL1  UNL     1      27.436   6.889   3.699  1.00  0.00    -0.082 Cl
HETATM   13  C12 UNL     1      25.432   5.003   3.700  1.00  0.00     0.058 A 
HETATM   14 CL2  UNL     1      24.349   6.310   3.294  1.00  0.00    -0.082 Cl
HETATM   15  C13 UNL     1      24.978   3.710   3.852  1.00  0.00     0.070 A 
HETATM   16  C14 UNL     1      25.804   2.670   4.169  1.00  0.00     0.146 A 
HETATM   17  F1  UNL     1      25.382   1.391   4.324  1.00  0.00    -0.204 F 
ENDBRANCH   5   9
BRANCH   2  18
HETATM   18  O1  UNL     1      29.950  -1.019   3.953  1.00  0.00    -0.344 OA
ATOM     19  H1  UNL     1      29.730  -1.418   3.119  1.00  0.00     0.219 HD
ENDBRANCH   2  18
BRANCH   1  20
HETATM   20  C5  UNL     1      30.319  -0.073   6.794  1.00  0.00     0.102 C 
HETATM   21  N1  UNL     1      29.798  -0.402   7.932  1.00  0.00    -0.398 N 
ATOM     22  H1  UNL     1      28.810  -0.211   8.095  1.00  0.00     0.158 HD
BRANCH  21  23
HETATM   23  C4  UNL     1      30.570  -1.030   8.981  1.00  0.00     0.119 C 
BRANCH  23  24
HETATM   24  C3  UNL     1      29.776  -0.976  10.279  1.00  0.00     0.019 C 
BRANCH  24  25
HETATM   25  C2  UNL     1      30.424  -0.045  11.278  1.00  0.00    -0.003 C 
HETATM   26  C1  UNL     1      29.476   0.144  12.437  1.00  0.00     0.005 C 
ENDBRANCH  24  25
ENDBRANCH  23  24
ENDBRANCH  21  23
ENDBRANCH   1  20
BRANCH   7  27
HETATM   27  C16 UNL     1      28.924   2.503   8.169  1.00  0.00     0.138 C 
HETATM   28  N5  UNL     1      30.203   2.459   8.420  1.00  0.00    -0.383 N 
ATOM     29  H52 UNL     1      30.829   2.383   7.618  1.00  0.00     0.157 HD
ATOM     30  H51 UNL     1      30.545   2.486   9.380  1.00  0.00     0.157 HD
BRANCH  27  31
HETATM   31  C17 UNL     1      28.023   2.613   9.319  1.00  0.00     0.306 C 
HETATM   32  O2  UNL     1      27.990   1.709  10.192  1.00  0.00    -0.298 OA
ENDBRANCH  27  31
ENDBRANCH   7  27
TORSDOF 8
ENDMDL
MODEL 4
REMARK VINA RESULT: -4.116116062      3.642      6.995
REMARK  8 active torsions:
REMARK  status: ('A' for Active; 'I' for Inactive)
REMARK    1  A    between atoms: C2_2  and  C3_3 
REMARK    2  A    between atoms: C3_3  and  C4_4 
REMARK    3  A    between atoms: C4_4  and  N1_5 
REMARK    4  A    between atoms: C5_7  and  C6_8 
REMARK    5  A    between atoms: C7_9  and  O1_10 
REMARK    6  A    between atoms: N3_14  and  C9_15 
REMARK    7  A    between atoms: N4_25  and  C16_27 
REMARK    8  A    between atoms: C16_27  and  C17_31 
ROOT
HETATM    1  C6  UNL     1      29.233   0.758   5.518  1.00  0.00     0.077 A 
HETATM    2  C7  UNL     1      28.933   0.334   4.213  1.00  0.00     0.172 A 
HETATM    3  N2  UNL     1      28.083   1.223   3.692  1.00  0.00    -0.266 N 
HETATM    4  C8  UNL     1      27.553   1.096   2.336  1.00  0.00     0.181 C 
HETATM    5  N3  UNL     1      27.812   2.181   4.548  1.00  0.00    -0.232 N 
HETATM    6  C15 UNL     1      28.518   1.928   5.717  1.00  0.00     0.145 A 
HETATM    7  N4  UNL     1      28.432   2.707   6.708  1.00  0.00    -0.324 N 
ATOM      8  H4  UNL     1      27.813   3.503   6.552  1.00  0.00     0.169 HD
ENDROOT
BRANCH   5   9
HETATM    9  C9  UNL     1      26.945   3.284   4.310  1.00  0.00     0.099 A 
HETATM   10  C10 UNL     1      25.586   3.164   4.525  1.00  0.00     0.060 A 
HETATM   11  C11 UNL     1      24.712   4.207   4.306  1.00  0.00     0.058 A 
HETATM   12 CL1  UNL     1      22.994   3.977   4.603  1.00  0.00    -0.082 Cl
HETATM   13  C12 UNL     1      25.219   5.415   3.857  1.00  0.00     0.058 A 
HETATM   14 CL2  UNL     1      24.129   6.749   3.574  1.00  0.00    -0.082 Cl
HETATM   15  C13 UNL     1      26.576   5.534   3.642  1.00  0.00     0.070 A 
HETATM   16  C14 UNL     1      27.449   4.506   3.855  1.00  0.00     0.146 A 
HETATM   17  F1  UNL     1      28.787   4.598   3.652  1.00  0.00    -0.204 F 
ENDBRANCH   5   9
BRANCH   2  18
HETATM   18  O1  UNL     1      29.450  -0.808   3.621  1.00  0.00    -0.344 OA
ATOM     19  H1  UNL     1      29.603  -1.627   4.078  1.00  0.00     0.219 HD
ENDBRANCH   2  18
BRANCH   1  20
HETATM   20  C5  UNL     1      30.124   0.068   6.429  1.00  0.00     0.102 C 
HETATM   21  N1  UNL     1      29.747  -0.111   7.654  1.00  0.00    -0.398 N 
ATOM     22  H1  UNL     1      28.834   0.239   7.944  1.00  0.00     0.158 HD
BRANCH  21  23
HETATM   23  C4  UNL     1      30.576  -0.788   8.625  1.00  0.00     0.119 C 
BRANCH  23  24
HETATM   24  C3  UNL     1      29.753  -1.051   9.879  1.00  0.00     0.019 C 
BRANCH  24  25
HETATM   25  C2  UNL     1      28.888  -2.279   9.717  1.00  0.00    -0.003 C 
HETATM   26  C1  UNL     1      29.769  -3.500   9.824  1.00  0.00     0.005 C 
ENDBRANCH  24  25
ENDBRANCH  23  24
ENDBRANCH  21  23
ENDBRANCH   1  20
BRANCH   7  27
HETATM   27  C16 UNL     1      29.007   2.694   7.954  1.00  0.00     0.138 C 
HETATM   28  N5  UNL     1      30.295   2.849   8.093  1.00  0.00    -0.383 N 
ATOM     29  H52 UNL     1      30.842   2.961   7.240  1.00  0.00     0.157 HD
ATOM     30  H51 UNL     1      30.722   2.839   9.019  1.00  0.00     0.157 HD
BRANCH  27  31
HETATM   31  C17 UNL     1      28.220   2.533   9.179  1.00  0.00     0.306 C 
HETATM   32  O2  UNL     1      28.477   1.603   9.984  1.00  0.00    -0.298 OA
ENDBRANCH  27  31
ENDBRANCH   7  27
TORSDOF 8
ENDMDL
MODEL 5
REMARK VINA RESULT: -2.864480078      4.011      7.262
REMARK  8 active torsions:
REMARK  status: ('A' for Active; 'I' for Inactive)
REMARK    1  A    between atoms: C2_2  and  C3_3 
REMARK    2  A    between atoms: C3_3  and  C4_4 
REMARK    3  A    between atoms: C4_4  and  N1_5 
REMARK    4  A    between atoms: C5_7  and  C6_8 
REMARK    5  A    between atoms: C7_9  and  O1_10 
REMARK    6  A    between atoms: N3_14  and  C9_15 
REMARK    7  A    between atoms: N4_25  and  C16_27 
REMARK    8  A    between atoms: C16_27  and  C17_31 
ROOT
HETATM    1  C6  UNL     1      28.074   0.845   4.839  1.00  0.00     0.077 A 
HETATM    2  C7  UNL     1      26.981   0.228   4.208  1.00  0.00     0.172 A 
HETATM    3  N2  UNL     1      26.094   1.185   3.923  1.00  0.00    -0.266 N 
HETATM    4  C8  UNL     1      24.824   0.901   3.259  1.00  0.00     0.181 C 
HETATM    5  N3  UNL     1      26.522   2.363   4.315  1.00  0.00    -0.232 N 
HETATM    6  C15 UNL     1      27.771   2.196   4.900  1.00  0.00     0.145 A 
HETATM    7  N4  UNL     1      28.407   3.184   5.364  1.00  0.00    -0.324 N 
ATOM      8  H4  UNL     1      27.916   4.073   5.262  1.00  0.00     0.169 HD
ENDROOT
BRANCH   5   9
HETATM    9  C9  UNL     1      25.821   3.592   4.164  1.00  0.00     0.099 A 
HETATM   10  C10 UNL     1      26.362   4.619   3.415  1.00  0.00     0.060 A 
HETATM   11  C11 UNL     1      25.716   5.824   3.245  1.00  0.00     0.058 A 
HETATM   12 CL1  UNL     1      26.471   7.083   2.276  1.00  0.00    -0.082 Cl
HETATM   13  C12 UNL     1      24.483   6.007   3.846  1.00  0.00     0.058 A 
HETATM   14 CL2  UNL     1      23.649   7.528   3.643  1.00  0.00    -0.082 Cl
HETATM   15  C13 UNL     1      23.944   4.983   4.595  1.00  0.00     0.070 A 
HETATM   16  C14 UNL     1      24.575   3.785   4.769  1.00  0.00     0.146 A 
HETATM   17  F1  UNL     1      24.066   2.762   5.499  1.00  0.00    -0.204 F 
ENDBRANCH   5   9
BRANCH   2  18
HETATM   18  O1  UNL     1      26.889  -1.131   3.952  1.00  0.00    -0.344 OA
ATOM     19  H1  UNL     1      26.485  -1.761   4.537  1.00  0.00     0.219 HD
ENDBRANCH   2  18
BRANCH   1  20
HETATM   20  C5  UNL     1      29.258   0.154   5.309  1.00  0.00     0.102 C 
HETATM   21  N1  UNL     1      29.613   0.296   6.545  1.00  0.00    -0.398 N 
ATOM     22  H1  UNL     1      29.049   0.890   7.154  1.00  0.00     0.158 HD
BRANCH  21  23
HETATM   23  C4  UNL     1      30.780  -0.358   7.092  1.00  0.00     0.119 C 
BRANCH  23  24
HETATM   24  C3  UNL     1      30.943   0.059   8.548  1.00  0.00     0.019 C 
BRANCH  24  25
HETATM   25  C2  UNL     1      29.894  -0.587   9.422  1.00  0.00    -0.003 C 
HETATM   26  C1  UNL     1      29.977   0.026  10.799  1.00  0.00     0.005 C 
ENDBRANCH  24  25
ENDBRANCH  23  24
ENDBRANCH  21  23
ENDBRANCH   1  20
BRANCH   7  27
HETATM   27  C16 UNL     1      29.628   3.298   5.979  1.00  0.00     0.138 C 
HETATM   28  N5  UNL     1      30.722   3.384   5.274  1.00  0.00    -0.383 N 
ATOM     29  H52 UNL     1      30.623   3.346   4.259  1.00  0.00     0.157 HD
ATOM     30  H51 UNL     1      31.630   3.469   5.731  1.00  0.00     0.157 HD
BRANCH  27  31
HETATM   31  C17 UNL     1      29.771   3.353   7.436  1.00  0.00     0.306 C 
HETATM   32  O2  UNL     1      29.067   2.618   8.174  1.00  0.00    -0.298 OA
ENDBRANCH  27  31
ENDBRANCH   7  27
TORSDOF 8
ENDMDL
