MODEL 1
REMARK VINA RESULT: -6.811537480      0.000      0.000
REMARK  8 active torsions:
REMARK  status: ('A' for Active; 'I' for Inactive)
REMARK    1  A    between atoms: C2_2  and  C3_3 
REMARK    2  A    between atoms: C2_2  and  N1_11 
REMARK    3  A    between atoms: C3_3  and  O1_4 
REMARK    4  A    between atoms: O1_4  and  C4_5 
REMARK    5  A    between atoms: C4_5  and  C5_7 
REMARK       I    between atoms: N1_11  and  C6_13 
REMARK       I    between atoms: C6_13  and  N2_15 
REMARK    6  A    between atoms: N2_15  and  C7_16 
REMARK    7  A    between atoms: C9_21  and  C10_22 
REMARK    8  A    between atoms: C10_22  and  N4_23 
ROOT
HETATM    1  N1  UNL     1      28.569   1.535   5.561  1.00  0.00    -0.325 N 
ATOM      2  H1  UNL     1      27.815   0.892   5.804  1.00  0.00     0.165 HD
HETATM    3  C6  UNL     1      28.235   2.802   4.867  1.00  0.00     0.395 C 
HETATM    4  O3  UNL     1      29.215   3.539   4.603  1.00  0.00    -0.230 OA
HETATM    5  N2  UNL     1      26.900   3.023   4.593  1.00  0.00    -0.343 NA
ENDROOT
BRANCH   1   6
HETATM    6  C2  UNL     1      29.906   1.186   5.898  1.00  0.00     0.107 C 
HETATM    7  C1  UNL     1      30.522   0.271   4.833  1.00  0.00     0.034 C 
BRANCH   6   8
HETATM    8  C3  UNL     1      29.914   0.406   7.185  1.00  0.00     0.203 C 
BRANCH   8   9
HETATM    9  O1  UNL     1      30.082   1.292   8.256  1.00  0.00    -0.316 OA
BRANCH   9  10
HETATM   10  C4  UNL     1      29.326   1.209   9.429  1.00  0.00     0.314 C 
HETATM   11  O2  UNL     1      28.354   1.988   9.531  1.00  0.00    -0.260 OA
BRANCH  10  12
HETATM   12  C5  UNL     1      29.739   0.213  10.440  1.00  0.00     0.276 C 
HETATM   13 CL1  UNL     1      28.849   0.496  11.960  1.00  0.00    -0.073 Cl
HETATM   14 CL2  UNL     1      29.355  -1.421   9.809  1.00  0.00    -0.073 Cl
HETATM   15 CL3  UNL     1      31.493   0.277  10.683  1.00  0.00    -0.073 Cl
ENDBRANCH  10  12
ENDBRANCH   9  10
ENDBRANCH   8   9
ENDBRANCH   6   8
ENDBRANCH   1   6
BRANCH   5  16
HETATM   16  C7  UNL     1      25.612   3.267   4.312  1.00  0.00     0.179 A 
HETATM   17  S1  UNL     1      24.480   1.972   3.783  1.00  0.00    -0.050 SA
HETATM   18  C8  UNL     1      23.086   2.889   3.609  1.00  0.00     0.141 A 
HETATM   19  N3  UNL     1      23.494   4.086   3.937  1.00  0.00    -0.359 N 
HETATM   20  C9  UNL     1      24.721   4.313   4.287  1.00  0.00     0.075 A 
ATOM     21  H3  UNL     1      22.832   4.860   3.919  1.00  0.00     0.165 HD
BRANCH  20  22
HETATM   22  C10 UNL     1      25.150   5.745   4.636  1.00  0.00     0.177 C 
BRANCH  22  23
HETATM   23  N4  UNL     1      25.844   6.396   3.615  1.00  0.00    -0.415 N 
HETATM   24  C11 UNL     1      25.187   7.333   2.797  1.00  0.00     0.143 C 
HETATM   25  C12 UNL     1      27.245   6.535   3.679  1.00  0.00     0.143 C 
ENDBRANCH  22  23
ENDBRANCH  20  22
ENDBRANCH   5  16
TORSDOF 8
ENDMDL
MODEL 2
REMARK VINA RESULT: -6.790017848      0.122      1.061
REMARK  8 active torsions:
REMARK  status: ('A' for Active; 'I' for Inactive)
REMARK    1  A    between atoms: C2_2  and  C3_3 
REMARK    2  A    between atoms: C2_2  and  N1_11 
REMARK    3  A    between atoms: C3_3  and  O1_4 
REMARK    4  A    between atoms: O1_4  and  C4_5 
REMARK    5  A    between atoms: C4_5  and  C5_7 
REMARK       I    between atoms: N1_11  and  C6_13 
REMARK       I    between atoms: C6_13  and  N2_15 
REMARK    6  A    between atoms: N2_15  and  C7_16 
REMARK    7  A    between atoms: C9_21  and  C10_22 
REMARK    8  A    between atoms: C10_22  and  N4_23 
ROOT
HETATM    1  N1  UNL     1      28.633   1.415   5.477  1.00  0.00    -0.325 N 
ATOM      2  H1  UNL     1      27.897   0.718   5.584  1.00  0.00     0.165 HD
HETATM    3  C6  UNL     1      28.281   2.754   4.947  1.00  0.00     0.395 C 
HETATM    4  O3  UNL     1      29.240   3.556   4.846  1.00  0.00    -0.230 OA
HETATM    5  N2  UNL     1      26.953   2.963   4.629  1.00  0.00    -0.343 NA
ENDROOT
BRANCH   1   6
HETATM    6  C2  UNL     1      29.964   1.071   5.841  1.00  0.00     0.107 C 
HETATM    7  C1  UNL     1      30.564   0.065   4.850  1.00  0.00     0.034 C 
BRANCH   6   8
HETATM    8  C3  UNL     1      29.961   0.393   7.185  1.00  0.00     0.203 C 
BRANCH   8   9
HETATM    9  O1  UNL     1      29.981   1.369   8.189  1.00  0.00    -0.316 OA
BRANCH   9  10
HETATM   10  C4  UNL     1      29.293   1.223   9.396  1.00  0.00     0.314 C 
HETATM   11  O2  UNL     1      28.315   1.979   9.584  1.00  0.00    -0.260 OA
BRANCH  10  12
HETATM   12  C5  UNL     1      29.776   0.193  10.340  1.00  0.00     0.276 C 
HETATM   13 CL1  UNL     1      31.538   0.363  10.563  1.00  0.00    -0.073 Cl
HETATM   14 CL2  UNL     1      28.940   0.432  11.908  1.00  0.00    -0.073 Cl
HETATM   15 CL3  UNL     1      29.340  -1.422   9.758  1.00  0.00    -0.073 Cl
ENDBRANCH  10  12
ENDBRANCH   9  10
ENDBRANCH   8   9
ENDBRANCH   6   8
ENDBRANCH   1   6
BRANCH   5  16
HETATM   16  C7  UNL     1      25.673   3.197   4.309  1.00  0.00     0.179 A 
HETATM   17  S1  UNL     1      24.570   1.894   3.740  1.00  0.00    -0.050 SA
HETATM   18  C8  UNL     1      23.173   2.801   3.527  1.00  0.00     0.141 A 
HETATM   19  N3  UNL     1      23.560   3.999   3.873  1.00  0.00    -0.359 N 
HETATM   20  C9  UNL     1      24.773   4.235   4.261  1.00  0.00     0.075 A 
ATOM     21  H3  UNL     1      22.892   4.767   3.838  1.00  0.00     0.165 HD
BRANCH  20  22
HETATM   22  C10 UNL     1      25.179   5.669   4.630  1.00  0.00     0.177 C 
BRANCH  22  23
HETATM   23  N4  UNL     1      25.855   6.348   3.616  1.00  0.00    -0.415 N 
HETATM   24  C11 UNL     1      25.190   7.320   2.847  1.00  0.00     0.143 C 
HETATM   25  C12 UNL     1      27.260   6.470   3.651  1.00  0.00     0.143 C 
ENDBRANCH  22  23
ENDBRANCH  20  22
ENDBRANCH   5  16
TORSDOF 8
ENDMDL
MODEL 3
REMARK VINA RESULT: -6.774190927      0.056      1.052
REMARK  8 active torsions:
REMARK  status: ('A' for Active; 'I' for Inactive)
REMARK    1  A    between atoms: C2_2  and  C3_3 
REMARK    2  A    between atoms: C2_2  and  N1_11 
REMARK    3  A    between atoms: C3_3  and  O1_4 
REMARK    4  A    between atoms: O1_4  and  C4_5 
REMARK    5  A    between atoms: C4_5  and  C5_7 
REMARK       I    between atoms: N1_11  and  C6_13 
REMARK       I    between atoms: C6_13  and  N2_15 
REMARK    6  A    between atoms: N2_15  and  C7_16 
REMARK    7  A    between atoms: C9_21  and  C10_22 
REMARK    8  A    between atoms: C10_22  and  N4_23 
ROOT
HETATM    1  N1  UNL     1      28.594   1.500   5.582  1.00  0.00    -0.325 N 
ATOM      2  H1  UNL     1      27.835   0.863   5.827  1.00  0.00     0.165 HD
HETATM    3  C6  UNL     1      28.269   2.763   4.877  1.00  0.00     0.395 C 
HETATM    4  O3  UNL     1      29.254   3.493   4.612  1.00  0.00    -0.230 OA
HETATM    5  N2  UNL     1      26.936   2.988   4.594  1.00  0.00    -0.343 NA
ENDROOT
BRANCH   1   6
HETATM    6  C2  UNL     1      29.927   1.148   5.930  1.00  0.00     0.107 C 
HETATM    7  C1  UNL     1      30.541   0.214   4.880  1.00  0.00     0.034 C 
BRANCH   6   8
HETATM    8  C3  UNL     1      29.926   0.386   7.227  1.00  0.00     0.203 C 
BRANCH   8   9
HETATM    9  O1  UNL     1      30.058   1.290   8.288  1.00  0.00    -0.316 OA
BRANCH   9  10
HETATM   10  C4  UNL     1      29.310   1.188   9.465  1.00  0.00     0.314 C 
HETATM   11  O2  UNL     1      28.356   1.983   9.598  1.00  0.00    -0.260 OA
BRANCH  10  12
HETATM   12  C5  UNL     1      29.709   0.153  10.442  1.00  0.00     0.276 C 
HETATM   13 CL1  UNL     1      29.325  -1.465   9.794  1.00  0.00    -0.073 Cl
HETATM   14 CL2  UNL     1      31.476   0.291  10.717  1.00  0.00    -0.073 Cl
HETATM   15 CL3  UNL     1      28.916   0.443  11.999  1.00  0.00    -0.073 Cl
ENDBRANCH  10  12
ENDBRANCH   9  10
ENDBRANCH   8   9
ENDBRANCH   6   8
ENDBRANCH   1   6
BRANCH   5  16
HETATM   16  C7  UNL     1      25.651   3.235   4.304  1.00  0.00     0.179 A 
HETATM   17  S1  UNL     1      24.522   1.945   3.758  1.00  0.00    -0.050 SA
HETATM   18  C8  UNL     1      23.130   2.865   3.579  1.00  0.00     0.141 A 
HETATM   19  N3  UNL     1      23.537   4.059   3.919  1.00  0.00    -0.359 N 
HETATM   20  C9  UNL     1      24.761   4.283   4.279  1.00  0.00     0.075 A 
ATOM     21  H3  UNL     1      22.876   4.835   3.900  1.00  0.00     0.165 HD
BRANCH  20  22
HETATM   22  C10 UNL     1      25.190   5.712   4.640  1.00  0.00     0.177 C 
BRANCH  22  23
HETATM   23  N4  UNL     1      25.864   6.380   3.617  1.00  0.00    -0.415 N 
HETATM   24  C11 UNL     1      25.197   7.344   2.840  1.00  0.00     0.143 C 
HETATM   25  C12 UNL     1      27.268   6.501   3.647  1.00  0.00     0.143 C 
ENDBRANCH  22  23
ENDBRANCH  20  22
ENDBRANCH   5  16
TORSDOF 8
ENDMDL
MODEL 4
REMARK VINA RESULT: -6.771818412      1.438      2.583
REMARK  8 active torsions:
REMARK  status: ('A' for Active; 'I' for Inactive)
REMARK    1  A    between atoms: C2_2  and  C3_3 
REMARK    2  A    between atoms: C2_2  and  N1_11 
REMARK    3  A    between atoms: C3_3  and  O1_4 
REMARK    4  A    between atoms: O1_4  and  C4_5 
REMARK    5  A    between atoms: C4_5  and  C5_7 
REMARK       I    between atoms: N1_11  and  C6_13 
REMARK       I    between atoms: C6_13  and  N2_15 
REMARK    6  A    between atoms: N2_15  and  C7_16 
REMARK    7  A    between atoms: C9_21  and  C10_22 
REMARK    8  A    between atoms: C10_22  and  N4_23 
ROOT
HETATM    1  N1  UNL     1      28.566   2.006   5.476  1.00  0.00    -0.325 N 
ATOM      2  H1  UNL     1      27.681   1.572   5.739  1.00  0.00     0.165 HD
HETATM    3  C6  UNL     1      28.544   3.316   4.782  1.00  0.00     0.395 C 
HETATM    4  O3  UNL     1      29.670   3.785   4.493  1.00  0.00    -0.230 OA
HETATM    5  N2  UNL     1      27.300   3.863   4.535  1.00  0.00    -0.343 NA
ENDROOT
BRANCH   1   6
HETATM    6  C2  UNL     1      29.781   1.336   5.788  1.00  0.00     0.107 C 
HETATM    7  C1  UNL     1      30.183   0.374   4.663  1.00  0.00     0.034 C 
BRANCH   6   8
HETATM    8  C3  UNL     1      29.590   0.493   7.020  1.00  0.00     0.203 C 
BRANCH   8   9
HETATM    9  O1  UNL     1      30.026   1.213   8.139  1.00  0.00    -0.316 OA
BRANCH   9  10
HETATM   10  C4  UNL     1      29.337   1.206   9.355  1.00  0.00     0.314 C 
HETATM   11  O2  UNL     1      28.413   2.037   9.486  1.00  0.00    -0.260 OA
BRANCH  10  12
HETATM   12  C5  UNL     1      29.758   0.221  10.374  1.00  0.00     0.276 C 
HETATM   13 CL1  UNL     1      28.863   0.507  11.891  1.00  0.00    -0.073 Cl
HETATM   14 CL2  UNL     1      29.391  -1.421   9.754  1.00  0.00    -0.073 Cl
HETATM   15 CL3  UNL     1      31.510   0.304  10.620  1.00  0.00    -0.073 Cl
ENDBRANCH  10  12
ENDBRANCH   9  10
ENDBRANCH   8   9
ENDBRANCH   6   8
ENDBRANCH   1   6
BRANCH   5  16
HETATM   16  C7  UNL     1      26.107   4.419   4.279  1.00  0.00     0.179 A 
HETATM   17  S1  UNL     1      25.915   6.179   3.954  1.00  0.00    -0.050 SA
HETATM   18  C8  UNL     1      24.255   6.226   3.713  1.00  0.00     0.141 A 
HETATM   19  N3  UNL     1      23.911   4.977   3.877  1.00  0.00    -0.359 N 
HETATM   20  C9  UNL     1      24.785   4.062   4.155  1.00  0.00     0.075 A 
ATOM     21  H3  UNL     1      22.930   4.715   3.784  1.00  0.00     0.165 HD
BRANCH  20  22
HETATM   22  C10 UNL     1      24.319   2.615   4.365  1.00  0.00     0.177 C 
BRANCH  22  23
HETATM   23  N4  UNL     1      24.907   1.696   3.495  1.00  0.00    -0.415 N 
HETATM   24  C11 UNL     1      25.814   0.738   3.983  1.00  0.00     0.143 C 
HETATM   25  C12 UNL     1      24.279   1.362   2.278  1.00  0.00     0.143 C 
ENDBRANCH  22  23
ENDBRANCH  20  22
ENDBRANCH   5  16
TORSDOF 8
ENDMDL
MODEL 5
REMARK VINA RESULT: -6.764125680      1.439      2.790
REMARK  8 active torsions:
REMARK  status: ('A' for Active; 'I' for Inactive)
REMARK    1  A    between atoms: C2_2  and  C3_3 
REMARK    2  A    between atoms: C2_2  and  N1_11 
REMARK    3  A    between atoms: C3_3  and  O1_4 
REMARK    4  A    between atoms: O1_4  and  C4_5 
REMARK    5  A    between atoms: C4_5  and  C5_7 
REMARK       I    between atoms: N1_11  and  C6_13 
REMARK       I    between atoms: C6_13  and  N2_15 
REMARK    6  A    between atoms: N2_15  and  C7_16 
REMARK    7  A    between atoms: C9_21  and  C10_22 
REMARK    8  A    between atoms: C10_22  and  N4_23 
ROOT
HETATM    1  N1  UNL     1      28.572   1.995   5.447  1.00  0.00    -0.325 N 
ATOM      2  H1  UNL     1      27.688   1.553   5.697  1.00  0.00     0.165 HD
HETATM    3  C6  UNL     1      28.547   3.316   4.774  1.00  0.00     0.395 C 
HETATM    4  O3  UNL     1      29.673   3.795   4.500  1.00  0.00    -0.230 OA
HETATM    5  N2  UNL     1      27.302   3.862   4.529  1.00  0.00    -0.343 NA
ENDROOT
BRANCH   1   6
HETATM    6  C2  UNL     1      29.788   1.325   5.755  1.00  0.00     0.107 C 
HETATM    7  C1  UNL     1      30.167   0.335   4.646  1.00  0.00     0.034 C 
BRANCH   6   8
HETATM    8  C3  UNL     1      29.612   0.511   7.008  1.00  0.00     0.203 C 
BRANCH   8   9
HETATM    9  O1  UNL     1      29.981   1.289   8.113  1.00  0.00    -0.316 OA
BRANCH   9  10
HETATM   10  C4  UNL     1      29.328   1.205   9.346  1.00  0.00     0.314 C 
HETATM   11  O2  UNL     1      28.386   2.002   9.542  1.00  0.00    -0.260 OA
BRANCH  10  12
HETATM   12  C5  UNL     1      29.805   0.186  10.305  1.00  0.00     0.276 C 
HETATM   13 CL1  UNL     1      31.564   0.362  10.545  1.00  0.00    -0.073 Cl
HETATM   14 CL2  UNL     1      28.953   0.438  11.862  1.00  0.00    -0.073 Cl
HETATM   15 CL3  UNL     1      29.379  -1.437   9.736  1.00  0.00    -0.073 Cl
ENDBRANCH  10  12
ENDBRANCH   9  10
ENDBRANCH   8   9
ENDBRANCH   6   8
ENDBRANCH   1   6
BRANCH   5  16
HETATM   16  C7  UNL     1      26.109   4.417   4.276  1.00  0.00     0.179 A 
HETATM   17  S1  UNL     1      25.914   6.177   3.954  1.00  0.00    -0.050 SA
HETATM   18  C8  UNL     1      24.254   6.223   3.715  1.00  0.00     0.141 A 
HETATM   19  N3  UNL     1      23.912   4.973   3.878  1.00  0.00    -0.359 N 
HETATM   20  C9  UNL     1      24.787   4.059   4.154  1.00  0.00     0.075 A 
ATOM     21  H3  UNL     1      22.931   4.709   3.786  1.00  0.00     0.165 HD
BRANCH  20  22
HETATM   22  C10 UNL     1      24.323   2.611   4.362  1.00  0.00     0.177 C 
BRANCH  22  23
HETATM   23  N4  UNL     1      24.911   1.694   3.490  1.00  0.00    -0.415 N 
HETATM   24  C11 UNL     1      25.817   0.734   3.975  1.00  0.00     0.143 C 
HETATM   25  C12 UNL     1      24.282   1.363   2.271  1.00  0.00     0.143 C 
ENDBRANCH  22  23
ENDBRANCH  20  22
ENDBRANCH   5  16
TORSDOF 8
ENDMDL
