MODEL 1
REMARK VINA RESULT: -6.940693509      0.000      0.000
REMARK  7 active torsions:
REMARK  status: ('A' for Active; 'I' for Inactive)
REMARK    1  A    between atoms: C2_2  and  N1_4 
REMARK    2  A    between atoms: N1_4  and  C4_7 
REMARK    3  A    between atoms: C4_7  and  C5_8 
REMARK    4  A    between atoms: C5_8  and  N2_9 
REMARK    5  A    between atoms: C8_15  and  C9_16 
REMARK    6  A    between atoms: C8_15  and  C12_25 
REMARK    7  A    between atoms: C9_16  and  N3_17 
ROOT
HETATM    1  C5  UNL     1      28.054   0.964   3.556  1.00  0.00     0.249 C 
HETATM    2  C6  UNL     1      29.521   1.376   3.452  1.00  0.00     0.074 C 
HETATM    3  C7  UNL     1      29.400   2.788   4.062  1.00  0.00     0.054 C 
HETATM    4  C8  UNL     1      28.250   2.681   4.979  1.00  0.00     0.124 C 
HETATM    5  O1  UNL     1      27.590   1.476   4.729  1.00  0.00    -0.331 OA
ENDROOT
BRANCH   4   6
HETATM    6  C9  UNL     1      28.496   2.881   6.440  1.00  0.00     0.116 C 
BRANCH   6   7
HETATM    7  N3  UNL     1      29.221   1.906   7.152  1.00  0.00    -0.293 N 
HETATM    8  C10 UNL     1      30.159   1.032   6.725  1.00  0.00     0.206 A 
HETATM    9  N4  UNL     1      30.623   0.297   7.737  1.00  0.00    -0.293 N 
HETATM   10  N5  UNL     1      29.987   0.701   8.799  1.00  0.00    -0.274 N 
ATOM     11  H4  UNL     1      31.333  -0.434   7.688  1.00  0.00     0.187 HD
HETATM   12  C11 UNL     1      29.126   1.680   8.466  1.00  0.00     0.201 A 
ATOM     13  H5  UNL     1      30.121   0.331   9.740  1.00  0.00     0.189 HD
HETATM   14 CL1  UNL     1      28.075   2.409   9.688  1.00  0.00    -0.043 Cl
ENDBRANCH   6   7
ENDBRANCH   4   6
BRANCH   4  15
HETATM   15  C12 UNL     1      27.279   3.742   4.616  1.00  0.00    -0.017 A 
HETATM   16  C13 UNL     1      27.737   4.899   4.057  1.00  0.00     0.012 A 
HETATM   17  C14 UNL     1      26.842   5.921   3.699  1.00  0.00     0.026 A 
HETATM   18  C15 UNL     1      25.492   5.738   3.920  1.00  0.00     0.055 A 
HETATM   19 CL2  UNL     1      24.327   6.996   3.486  1.00  0.00    -0.083 Cl
HETATM   20  C16 UNL     1      25.051   4.548   4.490  1.00  0.00     0.056 A 
HETATM   21 CL3  UNL     1      23.350   4.280   4.787  1.00  0.00    -0.083 Cl
HETATM   22  C17 UNL     1      25.950   3.534   4.845  1.00  0.00     0.036 A 
ENDBRANCH   4  15
BRANCH   1  23
HETATM   23  C4  UNL     1      27.980  -0.557   3.530  1.00  0.00     0.300 C 
BRANCH  23  24
HETATM   24  N1  UNL     1      29.185  -1.130   4.093  1.00  0.00    -0.067 N 
ATOM     25  H12 UNL     1      29.010  -1.607   4.978  1.00  0.00     0.277 HD
ATOM     26  H11 UNL     1      29.827  -0.417   4.438  1.00  0.00     0.277 HD
BRANCH  24  27
HETATM   27  C2  UNL     1      29.795  -1.987   3.126  1.00  0.00     0.178 C 
HETATM   28  C1  UNL     1      31.258  -2.266   3.374  1.00  0.00     0.039 C 
HETATM   29  C3  UNL     1      29.676  -1.405   1.720  1.00  0.00     0.039 C 
ENDBRANCH  24  27
ENDBRANCH  23  24
ENDBRANCH   1  23
BRANCH   1  30
HETATM   30  N2  UNL     1      27.408   1.453   2.375  1.00  0.00    -0.045 N 
ATOM     31  H23 UNL     1      26.521   0.987   2.186  1.00  0.00     0.278 HD
ATOM     32  H22 UNL     1      27.042   2.399   2.486  1.00  0.00     0.278 HD
ATOM     33  H21 UNL     1      28.069   1.373   1.602  1.00  0.00     0.278 HD
ENDBRANCH   1  30
TORSDOF 7
ENDMDL
MODEL 2
REMARK VINA RESULT: -6.264046073      0.813      1.477
REMARK  7 active torsions:
REMARK  status: ('A' for Active; 'I' for Inactive)
REMARK    1  A    between atoms: C2_2  and  N1_4 
REMARK    2  A    between atoms: N1_4  and  C4_7 
REMARK    3  A    between atoms: C4_7  and  C5_8 
REMARK    4  A    between atoms: C5_8  and  N2_9 
REMARK    5  A    between atoms: C8_15  and  C9_16 
REMARK    6  A    between atoms: C8_15  and  C12_25 
REMARK    7  A    between atoms: C9_16  and  N3_17 
ROOT
HETATM    1  C5  UNL     1      28.353   0.616   3.590  1.00  0.00     0.249 C 
HETATM    2  C6  UNL     1      29.690   1.327   3.395  1.00  0.00     0.074 C 
HETATM    3  C7  UNL     1      29.315   2.686   4.021  1.00  0.00     0.054 C 
HETATM    4  C8  UNL     1      28.276   2.346   5.010  1.00  0.00     0.124 C 
HETATM    5  O1  UNL     1      27.868   1.027   4.795  1.00  0.00    -0.331 OA
ENDROOT
BRANCH   4   6
HETATM    6  C9  UNL     1      28.568   2.602   6.454  1.00  0.00     0.116 C 
BRANCH   6   7
HETATM    7  N3  UNL     1      29.320   1.658   7.179  1.00  0.00    -0.293 N 
HETATM    8  C10 UNL     1      30.271   0.795   6.761  1.00  0.00     0.206 A 
HETATM    9  N4  UNL     1      30.760   0.090   7.783  1.00  0.00    -0.293 N 
HETATM   10  N5  UNL     1      30.124   0.502   8.842  1.00  0.00    -0.274 N 
ATOM     11  H4  UNL     1      31.484  -0.627   7.742  1.00  0.00     0.187 HD
HETATM   12  C11 UNL     1      29.241   1.457   8.497  1.00  0.00     0.201 A 
ATOM     13  H5  UNL     1      30.274   0.155   9.789  1.00  0.00     0.189 HD
HETATM   14 CL1  UNL     1      28.185   2.188   9.713  1.00  0.00    -0.043 Cl
ENDBRANCH   6   7
ENDBRANCH   4   6
BRANCH   4  15
HETATM   15  C12 UNL     1      27.082   3.177   4.719  1.00  0.00    -0.017 A 
HETATM   16  C13 UNL     1      25.843   2.691   5.018  1.00  0.00     0.012 A 
HETATM   17  C14 UNL     1      24.695   3.457   4.760  1.00  0.00     0.026 A 
HETATM   18  C15 UNL     1      24.837   4.710   4.198  1.00  0.00     0.055 A 
HETATM   19 CL2  UNL     1      23.420   5.710   3.853  1.00  0.00    -0.083 Cl
HETATM   20  C16 UNL     1      26.111   5.182   3.902  1.00  0.00     0.056 A 
HETATM   21 CL3  UNL     1      26.331   6.762   3.189  1.00  0.00    -0.083 Cl
HETATM   22  C17 UNL     1      27.251   4.413   4.163  1.00  0.00     0.036 A 
ENDBRANCH   4  15
BRANCH   1  23
HETATM   23  C4  UNL     1      28.597  -0.886   3.558  1.00  0.00     0.300 C 
BRANCH  23  24
HETATM   24  N1  UNL     1      29.961  -1.182   3.945  1.00  0.00    -0.067 N 
ATOM     25  H12 UNL     1      30.025  -1.535   4.900  1.00  0.00     0.277 HD
ATOM     26  H11 UNL     1      30.521  -0.339   4.066  1.00  0.00     0.277 HD
BRANCH  24  27
HETATM   27  C2  UNL     1      30.535  -2.083   2.995  1.00  0.00     0.178 C 
HETATM   28  C1  UNL     1      31.089  -3.352   3.594  1.00  0.00     0.039 C 
HETATM   29  C3  UNL     1      31.667  -1.416   2.216  1.00  0.00     0.039 C 
ENDBRANCH  24  27
ENDBRANCH  23  24
ENDBRANCH   1  23
BRANCH   1  30
HETATM   30  N2  UNL     1      27.543   0.952   2.457  1.00  0.00    -0.045 N 
ATOM     31  H23 UNL     1      26.771   0.300   2.315  1.00  0.00     0.278 HD
ATOM     32  H22 UNL     1      26.984   1.792   2.603  1.00  0.00     0.278 HD
ATOM     33  H21 UNL     1      28.157   1.021   1.646  1.00  0.00     0.278 HD
ENDBRANCH   1  30
TORSDOF 7
ENDMDL
MODEL 3
REMARK VINA RESULT: -6.122961062      3.054      5.597
REMARK  7 active torsions:
REMARK  status: ('A' for Active; 'I' for Inactive)
REMARK    1  A    between atoms: C2_2  and  N1_4 
REMARK    2  A    between atoms: N1_4  and  C4_7 
REMARK    3  A    between atoms: C4_7  and  C5_8 
REMARK    4  A    between atoms: C5_8  and  N2_9 
REMARK    5  A    between atoms: C8_15  and  C9_16 
REMARK    6  A    between atoms: C8_15  and  C12_25 
REMARK    7  A    between atoms: C9_16  and  N3_17 
ROOT
HETATM    1  C5  UNL     1      28.591   1.782   4.954  1.00  0.00     0.249 C 
HETATM    2  C6  UNL     1      29.261   2.982   4.289  1.00  0.00     0.074 C 
HETATM    3  C7  UNL     1      28.035   3.532   3.533  1.00  0.00     0.054 C 
HETATM    4  C8  UNL     1      26.890   3.109   4.358  1.00  0.00     0.124 C 
HETATM    5  O1  UNL     1      27.337   2.182   5.302  1.00  0.00    -0.331 OA
ENDROOT
BRANCH   4   6
HETATM    6  C9  UNL     1      26.046   4.172   4.988  1.00  0.00     0.116 C 
BRANCH   6   7
HETATM    7  N3  UNL     1      25.707   5.312   4.234  1.00  0.00    -0.293 N 
HETATM    8  C10 UNL     1      26.490   6.293   3.737  1.00  0.00     0.206 A 
HETATM    9  N4  UNL     1      25.768   7.179   3.050  1.00  0.00    -0.293 N 
HETATM   10  N5  UNL     1      24.535   6.765   3.109  1.00  0.00    -0.274 N 
ATOM     11  H4  UNL     1      26.112   8.014   2.574  1.00  0.00     0.187 HD
HETATM   12  C11 UNL     1      24.474   5.629   3.828  1.00  0.00     0.201 A 
ATOM     13  H5  UNL     1      23.737   7.230   2.677  1.00  0.00     0.189 HD
HETATM   14 CL1  UNL     1      22.921   4.838   4.131  1.00  0.00    -0.043 Cl
ENDBRANCH   6   7
ENDBRANCH   4   6
BRANCH   4  15
HETATM   15  C12 UNL     1      25.953   2.359   3.486  1.00  0.00    -0.017 A 
HETATM   16  C13 UNL     1      24.785   1.891   4.012  1.00  0.00     0.012 A 
HETATM   17  C14 UNL     1      23.875   1.183   3.210  1.00  0.00     0.026 A 
HETATM   18  C15 UNL     1      24.179   0.966   1.881  1.00  0.00     0.055 A 
HETATM   19 CL2  UNL     1      23.066   0.078   0.833  1.00  0.00    -0.083 Cl
HETATM   20  C16 UNL     1      25.377   1.454   1.370  1.00  0.00     0.056 A 
HETATM   21 CL3  UNL     1      25.798   1.198  -0.306  1.00  0.00    -0.083 Cl
HETATM   22  C17 UNL     1      26.279   2.160   2.175  1.00  0.00     0.036 A 
ENDBRANCH   4  15
BRANCH   1  23
HETATM   23  C4  UNL     1      29.418   1.380   6.168  1.00  0.00     0.300 C 
BRANCH  23  24
HETATM   24  N1  UNL     1      29.415   2.442   7.153  1.00  0.00    -0.067 N 
ATOM     25  H12 UNL     1      28.521   2.931   7.192  1.00  0.00     0.277 HD
ATOM     26  H11 UNL     1      29.998   3.230   6.873  1.00  0.00     0.277 HD
BRANCH  24  27
HETATM   27  C2  UNL     1      29.797   1.907   8.421  1.00  0.00     0.178 C 
HETATM   28  C1  UNL     1      30.393   0.522   8.361  1.00  0.00     0.039 C 
HETATM   29  C3  UNL     1      28.608   1.848   9.377  1.00  0.00     0.039 C 
ENDBRANCH  24  27
ENDBRANCH  23  24
ENDBRANCH   1  23
BRANCH   1  30
HETATM   30  N2  UNL     1      28.650   0.706   4.009  1.00  0.00    -0.045 N 
ATOM     31  H23 UNL     1      29.586   0.312   3.916  1.00  0.00     0.278 HD
ATOM     32  H22 UNL     1      28.182  -0.138   4.340  1.00  0.00     0.278 HD
ATOM     33  H21 UNL     1      28.274   1.047   3.125  1.00  0.00     0.278 HD
ENDBRANCH   1  30
TORSDOF 7
ENDMDL
MODEL 4
REMARK VINA RESULT: -5.958851632      2.355      5.058
REMARK  7 active torsions:
REMARK  status: ('A' for Active; 'I' for Inactive)
REMARK    1  A    between atoms: C2_2  and  N1_4 
REMARK    2  A    between atoms: N1_4  and  C4_7 
REMARK    3  A    between atoms: C4_7  and  C5_8 
REMARK    4  A    between atoms: C5_8  and  N2_9 
REMARK    5  A    between atoms: C8_15  and  C9_16 
REMARK    6  A    between atoms: C8_15  and  C12_25 
REMARK    7  A    between atoms: C9_16  and  N3_17 
ROOT
HETATM    1  C5  UNL     1      29.269   0.913   5.644  1.00  0.00     0.249 C 
HETATM    2  C6  UNL     1      30.405   1.495   4.804  1.00  0.00     0.074 C 
HETATM    3  C7  UNL     1      29.553   2.306   3.807  1.00  0.00     0.054 C 
HETATM    4  C8  UNL     1      28.338   2.643   4.570  1.00  0.00     0.124 C 
HETATM    5  O1  UNL     1      28.324   1.889   5.745  1.00  0.00    -0.331 OA
ENDROOT
BRANCH   4   6
HETATM    6  C9  UNL     1      28.055   4.086   4.840  1.00  0.00     0.116 C 
BRANCH   6   7
HETATM    7  N3  UNL     1      27.567   4.895   3.795  1.00  0.00    -0.293 N 
HETATM    8  C10 UNL     1      28.167   5.305   2.657  1.00  0.00     0.206 A 
HETATM    9  N4  UNL     1      27.336   6.041   1.917  1.00  0.00    -0.293 N 
HETATM   10  N5  UNL     1      26.216   6.098   2.579  1.00  0.00    -0.274 N 
ATOM     11  H4  UNL     1      27.538   6.473   1.015  1.00  0.00     0.187 HD
HETATM   12  C11 UNL     1      26.334   5.408   3.728  1.00  0.00     0.201 A 
ATOM     13  H5  UNL     1      25.378   6.591   2.274  1.00  0.00     0.189 HD
HETATM   14 CL1  UNL     1      24.991   5.334   4.877  1.00  0.00    -0.043 Cl
ENDBRANCH   6   7
ENDBRANCH   4   6
BRANCH   4  15
HETATM   15  C12 UNL     1      27.167   2.174   3.790  1.00  0.00    -0.017 A 
HETATM   16  C13 UNL     1      27.366   1.618   2.560  1.00  0.00     0.012 A 
HETATM   17  C14 UNL     1      26.278   1.159   1.800  1.00  0.00     0.026 A 
HETATM   18  C15 UNL     1      25.002   1.280   2.314  1.00  0.00     0.055 A 
HETATM   19 CL2  UNL     1      23.601   0.718   1.393  1.00  0.00    -0.083 Cl
HETATM   20  C16 UNL     1      24.826   1.850   3.570  1.00  0.00     0.056 A 
HETATM   21 CL3  UNL     1      23.227   2.021   4.253  1.00  0.00    -0.083 Cl
HETATM   22  C17 UNL     1      25.917   2.304   4.322  1.00  0.00     0.036 A 
ENDBRANCH   4  15
BRANCH   1  23
HETATM   23  C4  UNL     1      29.829   0.519   7.003  1.00  0.00     0.300 C 
BRANCH  23  24
HETATM   24  N1  UNL     1      29.718   1.625   7.933  1.00  0.00    -0.067 N 
ATOM     25  H12 UNL     1      28.882   2.186   7.770  1.00  0.00     0.277 HD
ATOM     26  H11 UNL     1      30.414   2.349   7.758  1.00  0.00     0.277 HD
BRANCH  24  27
HETATM   27  C2  UNL     1      29.782   1.123   9.269  1.00  0.00     0.178 C 
HETATM   28  C1  UNL     1      30.024  -0.364   9.368  1.00  0.00     0.039 C 
HETATM   29  C3  UNL     1      28.495   1.425  10.035  1.00  0.00     0.039 C 
ENDBRANCH  24  27
ENDBRANCH  23  24
ENDBRANCH   1  23
BRANCH   1  30
HETATM   30  N2  UNL     1      28.844  -0.285   4.982  1.00  0.00    -0.045 N 
ATOM     31  H23 UNL     1      29.504  -0.600   4.271  1.00  0.00     0.278 HD
ATOM     32  H22 UNL     1      28.891  -1.108   5.583  1.00  0.00     0.278 HD
ATOM     33  H21 UNL     1      27.910  -0.119   4.609  1.00  0.00     0.278 HD
ENDBRANCH   1  30
TORSDOF 7
ENDMDL
MODEL 5
REMARK VINA RESULT: -5.536114921      1.160      1.343
REMARK  7 active torsions:
REMARK  status: ('A' for Active; 'I' for Inactive)
REMARK    1  A    between atoms: C2_2  and  N1_4 
REMARK    2  A    between atoms: N1_4  and  C4_7 
REMARK    3  A    between atoms: C4_7  and  C5_8 
REMARK    4  A    between atoms: C5_8  and  N2_9 
REMARK    5  A    between atoms: C8_15  and  C9_16 
REMARK    6  A    between atoms: C8_15  and  C12_25 
REMARK    7  A    between atoms: C9_16  and  N3_17 
ROOT
HETATM    1  C5  UNL     1      27.802   0.990   3.662  1.00  0.00     0.249 C 
HETATM    2  C6  UNL     1      29.160   1.321   3.048  1.00  0.00     0.074 C 
HETATM    3  C7  UNL     1      29.222   2.813   3.434  1.00  0.00     0.054 C 
HETATM    4  C8  UNL     1      28.414   2.895   4.665  1.00  0.00     0.124 C 
HETATM    5  O1  UNL     1      27.720   1.694   4.824  1.00  0.00    -0.331 OA
ENDROOT
BRANCH   4   6
HETATM    6  C9  UNL     1      29.100   3.305   5.929  1.00  0.00     0.116 C 
BRANCH   6   7
HETATM    7  N3  UNL     1      29.284   2.352   6.949  1.00  0.00    -0.293 N 
HETATM    8  C10 UNL     1      28.797   2.318   8.209  1.00  0.00     0.206 A 
HETATM    9  N4  UNL     1      29.192   1.214   8.844  1.00  0.00    -0.293 N 
HETATM   10  N5  UNL     1      29.923   0.550   7.995  1.00  0.00    -0.274 N 
ATOM     11  H4  UNL     1      28.966   0.944   9.802  1.00  0.00     0.187 HD
HETATM   12  C11 UNL     1      29.994   1.226   6.834  1.00  0.00     0.201 A 
ATOM     13  H5  UNL     1      30.374  -0.345   8.182  1.00  0.00     0.189 HD
HETATM   14 CL1  UNL     1      30.959   0.605   5.488  1.00  0.00    -0.043 Cl
ENDBRANCH   6   7
ENDBRANCH   4   6
BRANCH   4  15
HETATM   15  C12 UNL     1      27.370   3.927   4.456  1.00  0.00    -0.017 A 
HETATM   16  C13 UNL     1      27.730   5.148   3.965  1.00  0.00     0.012 A 
HETATM   17  C14 UNL     1      26.764   6.144   3.751  1.00  0.00     0.026 A 
HETATM   18  C15 UNL     1      25.443   5.871   4.044  1.00  0.00     0.055 A 
HETATM   19 CL2  UNL     1      24.191   7.095   3.793  1.00  0.00    -0.083 Cl
HETATM   20  C16 UNL     1      25.102   4.618   4.543  1.00  0.00     0.056 A 
HETATM   21 CL3  UNL     1      23.441   4.237   4.928  1.00  0.00    -0.083 Cl
HETATM   22  C17 UNL     1      26.071   3.630   4.754  1.00  0.00     0.036 A 
ENDBRANCH   4  15
BRANCH   1  23
HETATM   23  C4  UNL     1      27.736  -0.513   3.901  1.00  0.00     0.300 C 
BRANCH  23  24
HETATM   24  N1  UNL     1      29.046  -1.026   4.244  1.00  0.00    -0.067 N 
ATOM     25  H12 UNL     1      29.055  -1.490   5.152  1.00  0.00     0.277 HD
ATOM     26  H11 UNL     1      29.710  -0.282   4.456  1.00  0.00     0.277 HD
BRANCH  24  27
HETATM   27  C2  UNL     1      29.506  -1.879   3.194  1.00  0.00     0.178 C 
HETATM   28  C1  UNL     1      30.923  -2.371   3.365  1.00  0.00     0.039 C 
HETATM   29  C3  UNL     1      29.429  -1.180   1.839  1.00  0.00     0.039 C 
ENDBRANCH  24  27
ENDBRANCH  23  24
ENDBRANCH   1  23
BRANCH   1  30
HETATM   30  N2  UNL     1      26.817   1.319   2.675  1.00  0.00    -0.045 N 
ATOM     31  H23 UNL     1      25.878   1.403   3.064  1.00  0.00     0.278 HD
ATOM     32  H22 UNL     1      26.905   2.275   2.330  1.00  0.00     0.278 HD
ATOM     33  H21 UNL     1      26.876   0.623   1.932  1.00  0.00     0.278 HD
ENDBRANCH   1  30
TORSDOF 7
ENDMDL
