MODEL 1
REMARK VINA RESULT: -8.601730999      0.000      0.000
REMARK  8 active torsions:
REMARK  status: ('A' for Active; 'I' for Inactive)
REMARK    1  A    between atoms: N1_1  and  N2_4 
REMARK    2  A    between atoms: N3_6  and  C1_8 
REMARK    3  A    between atoms: C6_16  and  C7_17 
REMARK    4  A    between atoms: C7_17  and  O2_19 
REMARK    5  A    between atoms: O2_19  and  C8_20 
REMARK    6  A    between atoms: C8_20  and  C9_21 
REMARK       I    between atoms: C9_21  and  N4_23 
REMARK    7  A    between atoms: N4_23  and  C10_25 
REMARK    8  A    between atoms: C10_25  and  C11_26 
ROOT
HETATM    1  C1  UNL     1      26.375   4.644   4.143  1.00  0.00     0.090 A 
HETATM    2  C2  UNL     1      25.068   5.027   4.019  1.00  0.00     0.085 A 
HETATM    3 CL1  UNL     1      24.640   6.744   3.992  1.00  0.00    -0.080 Cl
HETATM    4  C3  UNL     1      24.099   4.053   3.916  1.00  0.00     0.059 A 
HETATM    5 CL2  UNL     1      22.415   4.496   3.758  1.00  0.00    -0.082 Cl
HETATM    6  C4  UNL     1      24.425   2.710   3.937  1.00  0.00     0.050 A 
HETATM    7  C5  UNL     1      25.765   2.364   4.064  1.00  0.00     0.054 A 
HETATM    8 CL3  UNL     1      26.272   0.684   4.098  1.00  0.00    -0.083 Cl
HETATM    9  C6  UNL     1      26.737   3.337   4.166  1.00  0.00     0.091 A 
ENDROOT
BRANCH   9  10
HETATM   10  C7  UNL     1      28.151   2.928   4.300  1.00  0.00     0.297 C 
HETATM   11  O1  UNL     1      28.792   3.435   5.252  1.00  0.00    -0.259 OA
BRANCH  10  12
HETATM   12  O2  UNL     1      28.775   2.049   3.460  1.00  0.00    -0.308 OA
BRANCH  12  13
HETATM   13  C8  UNL     1      29.993   1.394   3.751  1.00  0.00     0.281 C 
BRANCH  13  14
HETATM   14  C9  UNL     1      29.836   0.490   4.937  1.00  0.00     0.241 C 
HETATM   15  O3  UNL     1      29.365  -0.653   4.801  1.00  0.00    -0.271 OA
HETATM   16  N4  UNL     1      30.228   0.952   6.210  1.00  0.00    -0.357 N 
ATOM     17  H4  UNL     1      30.607   1.895   6.293  1.00  0.00     0.162 HD
BRANCH  16  18
HETATM   18  C10 UNL     1      30.118   0.153   7.392  1.00  0.00     0.154 C 
BRANCH  18  19
HETATM   19  C11 UNL     1      30.525   0.910   8.606  1.00  0.00     0.139 C 
HETATM   20  C12 UNL     1      30.193   0.099   9.847  1.00  0.00     0.035 C 
HETATM   21  C13 UNL     1      29.109   0.922  10.494  1.00  0.00     0.029 C 
HETATM   22  C14 UNL     1      28.575   1.723   9.327  1.00  0.00     0.168 C 
HETATM   23  O4  UNL     1      29.750   2.065   8.679  1.00  0.00    -0.384 OA
ENDBRANCH  18  19
ENDBRANCH  16  18
ENDBRANCH  13  14
ENDBRANCH  12  13
ENDBRANCH  10  12
ENDBRANCH   9  10
BRANCH   1  24
HETATM   24  N3  UNL     1      27.381   5.651   4.249  1.00  0.00    -0.284 N 
HETATM   25  N2  UNL     1      28.048   5.900   3.202  1.00  0.00    -0.249 N 
ATOM     26  H2  UNL     1      28.770   6.619   3.262  1.00  0.00     0.207 HD
ATOM     27  H3  UNL     1      27.554   6.145   5.125  1.00  0.00     0.188 HD
BRANCH  25  28
HETATM   28  N1  UNL     1      27.871   5.272   1.985  1.00  0.00    -0.331 N 
ATOM     29  H12 UNL     1      27.379   5.802   1.266  1.00  0.00     0.178 HD
ATOM     30  H11 UNL     1      28.195   4.331   1.764  1.00  0.00     0.178 HD
ENDBRANCH  25  28
ENDBRANCH   1  24
TORSDOF 8
ENDMDL
MODEL 2
REMARK VINA RESULT: -8.471340476      1.339      1.754
REMARK  8 active torsions:
REMARK  status: ('A' for Active; 'I' for Inactive)
REMARK    1  A    between atoms: N1_1  and  N2_4 
REMARK    2  A    between atoms: N3_6  and  C1_8 
REMARK    3  A    between atoms: C6_16  and  C7_17 
REMARK    4  A    between atoms: C7_17  and  O2_19 
REMARK    5  A    between atoms: O2_19  and  C8_20 
REMARK    6  A    between atoms: C8_20  and  C9_21 
REMARK       I    between atoms: C9_21  and  N4_23 
REMARK    7  A    between atoms: N4_23  and  C10_25 
REMARK    8  A    between atoms: C10_25  and  C11_26 
ROOT
HETATM    1  C1  UNL     1      26.444   4.400   4.140  1.00  0.00     0.090 A 
HETATM    2  C2  UNL     1      25.199   4.963   4.082  1.00  0.00     0.085 A 
HETATM    3 CL1  UNL     1      25.013   6.723   4.106  1.00  0.00    -0.080 Cl
HETATM    4  C3  UNL     1      24.101   4.134   4.004  1.00  0.00     0.059 A 
HETATM    5 CL2  UNL     1      22.490   4.809   3.928  1.00  0.00    -0.082 Cl
HETATM    6  C4  UNL     1      24.238   2.759   3.985  1.00  0.00     0.050 A 
HETATM    7  C5  UNL     1      25.521   2.228   4.046  1.00  0.00     0.054 A 
HETATM    8 CL3  UNL     1      25.790   0.494   4.026  1.00  0.00    -0.083 Cl
HETATM    9  C6  UNL     1      26.622   3.055   4.123  1.00  0.00     0.091 A 
ENDROOT
BRANCH   9  10
HETATM   10  C7  UNL     1      27.970   2.452   4.187  1.00  0.00     0.297 C 
HETATM   11  O1  UNL     1      28.694   2.591   3.172  1.00  0.00    -0.259 OA
BRANCH  10  12
HETATM   12  O2  UNL     1      28.451   1.770   5.269  1.00  0.00    -0.308 OA
BRANCH  12  13
HETATM   13  C8  UNL     1      29.412   2.279   6.172  1.00  0.00     0.281 C 
BRANCH  13  14
HETATM   14  C9  UNL     1      29.815   1.226   7.162  1.00  0.00     0.241 C 
HETATM   15  O3  UNL     1      29.960   0.045   6.802  1.00  0.00    -0.271 OA
HETATM   16  N4  UNL     1      30.027   1.593   8.507  1.00  0.00    -0.357 N 
ATOM     17  H4  UNL     1      29.896   2.568   8.775  1.00  0.00     0.162 HD
BRANCH  16  18
HETATM   18  C10 UNL     1      30.419   0.654   9.513  1.00  0.00     0.154 C 
BRANCH  18  19
HETATM   19  C11 UNL     1      29.239   0.009  10.150  1.00  0.00     0.139 C 
HETATM   20  C12 UNL     1      28.218   1.072  10.522  1.00  0.00     0.035 C 
HETATM   21  C13 UNL     1      28.236   1.027  12.029  1.00  0.00     0.029 C 
HETATM   22  C14 UNL     1      29.593   0.421  12.315  1.00  0.00     0.168 C 
HETATM   23  O4  UNL     1      29.653  -0.568  11.349  1.00  0.00    -0.384 OA
ENDBRANCH  18  19
ENDBRANCH  16  18
ENDBRANCH  13  14
ENDBRANCH  12  13
ENDBRANCH  10  12
ENDBRANCH   9  10
BRANCH   1  24
HETATM   24  N3  UNL     1      27.584   5.255   4.220  1.00  0.00    -0.284 N 
HETATM   25  N2  UNL     1      28.113   5.601   3.123  1.00  0.00    -0.249 N 
ATOM     26  H2  UNL     1      28.928   6.214   3.164  1.00  0.00     0.207 HD
ATOM     27  H3  UNL     1      27.954   5.572   5.117  1.00  0.00     0.188 HD
BRANCH  25  28
HETATM   28  N1  UNL     1      27.670   5.210   1.875  1.00  0.00    -0.331 N 
ATOM     29  H12 UNL     1      26.680   4.977   1.797  1.00  0.00     0.178 HD
ATOM     30  H11 UNL     1      28.256   5.142   1.044  1.00  0.00     0.178 HD
ENDBRANCH  25  28
ENDBRANCH   1  24
TORSDOF 8
ENDMDL
MODEL 3
REMARK VINA RESULT: -8.118742764      1.837      2.460
REMARK  8 active torsions:
REMARK  status: ('A' for Active; 'I' for Inactive)
REMARK    1  A    between atoms: N1_1  and  N2_4 
REMARK    2  A    between atoms: N3_6  and  C1_8 
REMARK    3  A    between atoms: C6_16  and  C7_17 
REMARK    4  A    between atoms: C7_17  and  O2_19 
REMARK    5  A    between atoms: O2_19  and  C8_20 
REMARK    6  A    between atoms: C8_20  and  C9_21 
REMARK       I    between atoms: C9_21  and  N4_23 
REMARK    7  A    between atoms: N4_23  and  C10_25 
REMARK    8  A    between atoms: C10_25  and  C11_26 
ROOT
HETATM    1  C1  UNL     1      25.862   2.826   4.147  1.00  0.00     0.090 A 
HETATM    2  C2  UNL     1      24.550   3.208   4.084  1.00  0.00     0.085 A 
HETATM    3 CL1  UNL     1      23.262   1.998   4.181  1.00  0.00    -0.080 Cl
HETATM    4  C3  UNL     1      24.257   4.548   3.948  1.00  0.00     0.059 A 
HETATM    5 CL2  UNL     1      22.593   5.082   3.863  1.00  0.00    -0.082 Cl
HETATM    6  C4  UNL     1      25.256   5.499   3.872  1.00  0.00     0.050 A 
HETATM    7  C5  UNL     1      26.575   5.068   3.939  1.00  0.00     0.054 A 
HETATM    8 CL3  UNL     1      27.910   6.204   3.851  1.00  0.00    -0.083 Cl
HETATM    9  C6  UNL     1      26.873   3.728   4.077  1.00  0.00     0.091 A 
ENDROOT
BRANCH   9  10
HETATM   10  C7  UNL     1      28.289   3.309   4.143  1.00  0.00     0.297 C 
HETATM   11  O1  UNL     1      28.994   3.859   5.023  1.00  0.00    -0.259 OA
BRANCH  10  12
HETATM   12  O2  UNL     1      28.850   2.378   3.315  1.00  0.00    -0.308 OA
BRANCH  12  13
HETATM   13  C8  UNL     1      29.897   1.505   3.688  1.00  0.00     0.281 C 
BRANCH  13  14
HETATM   14  C9  UNL     1      29.519   0.717   4.906  1.00  0.00     0.241 C 
HETATM   15  O3  UNL     1      28.752  -0.258   4.814  1.00  0.00    -0.271 OA
HETATM   16  N4  UNL     1      30.044   1.095   6.160  1.00  0.00    -0.357 N 
ATOM     17  H4  UNL     1      30.666   1.901   6.206  1.00  0.00     0.162 HD
BRANCH  16  18
HETATM   18  C10 UNL     1      29.739   0.394   7.370  1.00  0.00     0.154 C 
BRANCH  18  19
HETATM   19  C11 UNL     1      30.313   1.080   8.559  1.00  0.00     0.139 C 
HETATM   20  C12 UNL     1      30.457   0.085   9.699  1.00  0.00     0.035 C 
HETATM   21  C13 UNL     1      29.454   0.594  10.703  1.00  0.00     0.029 C 
HETATM   22  C14 UNL     1      28.508   1.394   9.834  1.00  0.00     0.168 C 
HETATM   23  O4  UNL     1      29.399   2.037   8.993  1.00  0.00    -0.384 OA
ENDBRANCH  18  19
ENDBRANCH  16  18
ENDBRANCH  13  14
ENDBRANCH  12  13
ENDBRANCH  10  12
ENDBRANCH   9  10
BRANCH   1  24
HETATM   24  N3  UNL     1      26.169   1.440   4.289  1.00  0.00    -0.284 N 
HETATM   25  N2  UNL     1      26.341   0.783   3.220  1.00  0.00    -0.249 N 
ATOM     26  H2  UNL     1      26.563  -0.209   3.306  1.00  0.00     0.207 HD
ATOM     27  H3  UNL     1      26.247   1.000   5.207  1.00  0.00     0.188 HD
BRANCH  25  28
HETATM   28  N1  UNL     1      26.249   1.310   1.947  1.00  0.00    -0.331 N 
ATOM     29  H12 UNL     1      27.082   1.773   1.586  1.00  0.00     0.178 HD
ATOM     30  H11 UNL     1      25.418   1.265   1.357  1.00  0.00     0.178 HD
ENDBRANCH  25  28
ENDBRANCH   1  24
TORSDOF 8
ENDMDL
MODEL 4
REMARK VINA RESULT: -7.972859623      2.046      2.592
REMARK  8 active torsions:
REMARK  status: ('A' for Active; 'I' for Inactive)
REMARK    1  A    between atoms: N1_1  and  N2_4 
REMARK    2  A    between atoms: N3_6  and  C1_8 
REMARK    3  A    between atoms: C6_16  and  C7_17 
REMARK    4  A    between atoms: C7_17  and  O2_19 
REMARK    5  A    between atoms: O2_19  and  C8_20 
REMARK    6  A    between atoms: C8_20  and  C9_21 
REMARK       I    between atoms: C9_21  and  N4_23 
REMARK    7  A    between atoms: N4_23  and  C10_25 
REMARK    8  A    between atoms: C10_25  and  C11_26 
ROOT
HETATM    1  C1  UNL     1      25.681   3.298   4.032  1.00  0.00     0.090 A 
HETATM    2  C2  UNL     1      24.693   4.224   4.228  1.00  0.00     0.085 A 
HETATM    3 CL1  UNL     1      23.159   3.749   4.972  1.00  0.00    -0.080 Cl
HETATM    4  C3  UNL     1      24.920   5.526   3.837  1.00  0.00     0.059 A 
HETATM    5 CL2  UNL     1      23.686   6.744   4.068  1.00  0.00    -0.082 Cl
HETATM    6  C4  UNL     1      26.115   5.904   3.256  1.00  0.00     0.050 A 
HETATM    7  C5  UNL     1      27.091   4.933   3.075  1.00  0.00     0.054 A 
HETATM    8 CL3  UNL     1      28.639   5.322   2.346  1.00  0.00    -0.083 Cl
HETATM    9  C6  UNL     1      26.869   3.628   3.466  1.00  0.00     0.091 A 
ENDROOT
BRANCH   9  10
HETATM   10  C7  UNL     1      27.932   2.623   3.255  1.00  0.00     0.297 C 
HETATM   11  O1  UNL     1      27.696   1.728   2.410  1.00  0.00    -0.259 OA
BRANCH  10  12
HETATM   12  O2  UNL     1      29.126   2.625   3.920  1.00  0.00    -0.308 OA
BRANCH  12  13
HETATM   13  C8  UNL     1      29.996   1.514   4.002  1.00  0.00     0.281 C 
BRANCH  13  14
HETATM   14  C9  UNL     1      29.643   0.654   5.179  1.00  0.00     0.241 C 
HETATM   15  O3  UNL     1      28.869  -0.311   5.046  1.00  0.00    -0.271 OA
HETATM   16  N4  UNL     1      30.201   0.951   6.440  1.00  0.00    -0.357 N 
ATOM     17  H4  UNL     1      30.829   1.751   6.520  1.00  0.00     0.162 HD
BRANCH  16  18
HETATM   18  C10 UNL     1      29.923   0.179   7.611  1.00  0.00     0.154 C 
BRANCH  18  19
HETATM   19  C11 UNL     1      30.315   0.902   8.850  1.00  0.00     0.139 C 
HETATM   20  C12 UNL     1      29.880   0.101  10.066  1.00  0.00     0.035 C 
HETATM   21  C13 UNL     1      28.815   0.979  10.672  1.00  0.00     0.029 C 
HETATM   22  C14 UNL     1      28.382   1.819   9.489  1.00  0.00     0.168 C 
HETATM   23  O4  UNL     1      29.603   2.098   8.900  1.00  0.00    -0.384 OA
ENDBRANCH  18  19
ENDBRANCH  16  18
ENDBRANCH  13  14
ENDBRANCH  12  13
ENDBRANCH  10  12
ENDBRANCH   9  10
BRANCH   1  24
HETATM   24  N3  UNL     1      25.450   1.949   4.436  1.00  0.00    -0.284 N 
HETATM   25  N2  UNL     1      24.956   1.171   3.567  1.00  0.00    -0.249 N 
ATOM     26  H2  UNL     1      24.787   0.203   3.841  1.00  0.00     0.207 HD
ATOM     27  H3  UNL     1      25.671   1.627   5.379  1.00  0.00     0.188 HD
BRANCH  25  28
HETATM   28  N1  UNL     1      24.630   1.537   2.276  1.00  0.00    -0.331 N 
ATOM     29  H12 UNL     1      25.162   1.091   1.529  1.00  0.00     0.178 HD
ATOM     30  H11 UNL     1      23.906   2.211   2.027  1.00  0.00     0.178 HD
ENDBRANCH  25  28
ENDBRANCH   1  24
TORSDOF 8
ENDMDL
MODEL 5
REMARK VINA RESULT: -7.913793364      1.689      2.249
REMARK  8 active torsions:
REMARK  status: ('A' for Active; 'I' for Inactive)
REMARK    1  A    between atoms: N1_1  and  N2_4 
REMARK    2  A    between atoms: N3_6  and  C1_8 
REMARK    3  A    between atoms: C6_16  and  C7_17 
REMARK    4  A    between atoms: C7_17  and  O2_19 
REMARK    5  A    between atoms: O2_19  and  C8_20 
REMARK    6  A    between atoms: C8_20  and  C9_21 
REMARK       I    between atoms: C9_21  and  N4_23 
REMARK    7  A    between atoms: N4_23  and  C10_25 
REMARK    8  A    between atoms: C10_25  and  C11_26 
ROOT
HETATM    1  C1  UNL     1      26.990   4.139   3.506  1.00  0.00     0.090 A 
HETATM    2  C2  UNL     1      26.488   5.392   3.727  1.00  0.00     0.085 A 
HETATM    3 CL1  UNL     1      27.573   6.789   3.793  1.00  0.00    -0.080 Cl
HETATM    4  C3  UNL     1      25.128   5.541   3.895  1.00  0.00     0.059 A 
HETATM    5 CL2  UNL     1      24.442   7.124   4.180  1.00  0.00    -0.082 Cl
HETATM    6  C4  UNL     1      24.275   4.455   3.844  1.00  0.00     0.050 A 
HETATM    7  C5  UNL     1      24.826   3.200   3.619  1.00  0.00     0.054 A 
HETATM    8 CL3  UNL     1      23.819   1.765   3.538  1.00  0.00    -0.083 Cl
HETATM    9  C6  UNL     1      26.187   3.047   3.449  1.00  0.00     0.091 A 
ENDROOT
BRANCH   9  10
HETATM   10  C7  UNL     1      26.734   1.695   3.211  1.00  0.00     0.297 C 
HETATM   11  O1  UNL     1      26.736   1.293   2.024  1.00  0.00    -0.259 OA
BRANCH  10  12
HETATM   12  O2  UNL     1      27.226   0.886   4.197  1.00  0.00    -0.308 OA
BRANCH  12  13
HETATM   13  C8  UNL     1      28.299  -0.018   4.028  1.00  0.00     0.281 C 
BRANCH  13  14
HETATM   14  C9  UNL     1      29.455   0.366   4.903  1.00  0.00     0.241 C 
HETATM   15  O3  UNL     1      30.426   0.983   4.431  1.00  0.00    -0.271 OA
HETATM   16  N4  UNL     1      29.428   0.018   6.269  1.00  0.00    -0.357 N 
ATOM     17  H4  UNL     1      28.621  -0.493   6.628  1.00  0.00     0.162 HD
BRANCH  16  18
HETATM   18  C10 UNL     1      30.485   0.350   7.174  1.00  0.00     0.154 C 
BRANCH  18  19
HETATM   19  C11 UNL     1      29.958   0.866   8.466  1.00  0.00     0.139 C 
HETATM   20  C12 UNL     1      31.052   0.811   9.520  1.00  0.00     0.035 C 
HETATM   21  C13 UNL     1      30.533  -0.234  10.474  1.00  0.00     0.029 C 
HETATM   22  C14 UNL     1      29.577  -1.018   9.602  1.00  0.00     0.168 C 
HETATM   23  O4  UNL     1      28.956   0.003   8.903  1.00  0.00    -0.384 OA
ENDBRANCH  18  19
ENDBRANCH  16  18
ENDBRANCH  13  14
ENDBRANCH  12  13
ENDBRANCH  10  12
ENDBRANCH   9  10
BRANCH   1  24
HETATM   24  N3  UNL     1      28.397   3.982   3.332  1.00  0.00    -0.284 N 
HETATM   25  N2  UNL     1      29.061   3.629   4.351  1.00  0.00    -0.249 N 
ATOM     26  H2  UNL     1      30.068   3.511   4.241  1.00  0.00     0.207 HD
ATOM     27  H3  UNL     1      28.847   4.146   2.430  1.00  0.00     0.188 HD
BRANCH  25  28
HETATM   28  N1  UNL     1      28.522   3.393   5.600  1.00  0.00    -0.331 N 
ATOM     29  H12 UNL     1      27.611   3.812   5.789  1.00  0.00     0.178 HD
ATOM     30  H11 UNL     1      28.967   2.838   6.331  1.00  0.00     0.178 HD
ENDBRANCH  25  28
ENDBRANCH   1  24
TORSDOF 8
ENDMDL
