MODEL 1
REMARK VINA RESULT: -7.859923106      0.000      0.000
REMARK  9 active torsions:
REMARK  status: ('A' for Active; 'I' for Inactive)
REMARK    1  A    between atoms: N1_1  and  C1_4 
REMARK    2  A    between atoms: C3_8  and  C4_9 
REMARK    3  A    between atoms: C6_11  and  C7_12 
REMARK    4  A    between atoms: C8_17  and  N4_18 
REMARK    5  A    between atoms: N4_18  and  C9_19 
REMARK    6  A    between atoms: N4_18  and  C14_26 
REMARK    7  A    between atoms: C9_19  and  C10_20 
REMARK    8  A    between atoms: C14_26  and  C15_27 
REMARK    9  A    between atoms: C15_27  and  C16_30 
ROOT
HETATM    1  C4  UNL     1      28.659   1.344   5.645  1.00  0.00    -0.003 A 
HETATM    2  C5  UNL     1      28.806   1.650   7.001  1.00  0.00     0.044 A 
HETATM    3  C6  UNL     1      28.047   2.620   7.600  1.00  0.00     0.076 A 
HETATM    4  N3  UNL     1      27.158   3.270   6.851  1.00  0.00    -0.341 N 
ATOM      5  H3  UNL     1      26.597   3.992   7.303  1.00  0.00     0.167 HD
HETATM    6  C8  UNL     1      26.944   3.042   5.528  1.00  0.00     0.104 A 
HETATM    7  C17 UNL     1      27.705   2.070   4.933  1.00  0.00     0.062 A 
ENDROOT
BRANCH   6   8
HETATM    8  N4  UNL     1      25.947   3.825   4.825  1.00  0.00    -0.358 N 
BRANCH   8   9
HETATM    9  C9  UNL     1      25.434   5.007   5.425  1.00  0.00     0.170 C 
BRANCH   9  10
HETATM   10  C10 UNL     1      24.692   5.929   4.502  1.00  0.00     0.142 C 
HETATM   11  F3  UNL     1      23.587   5.409   3.909  1.00  0.00    -0.239 F 
HETATM   12  C11 UNL     1      25.649   6.334   3.368  1.00  0.00     0.074 C 
HETATM   13  C12 UNL     1      24.852   7.538   2.858  1.00  0.00     0.171 C 
HETATM   14  O1  UNL     1      24.340   8.161   3.965  1.00  0.00    -0.388 OA
HETATM   15  C13 UNL     1      24.440   7.305   5.063  1.00  0.00     0.213 C 
ENDBRANCH   9  10
ENDBRANCH   8   9
BRANCH   8  16
HETATM   16  C14 UNL     1      25.533   3.329   3.553  1.00  0.00     0.213 C 
BRANCH  16  17
HETATM   17  C15 UNL     1      24.514   2.257   3.519  1.00  0.00     0.354 C 
HETATM   18  F4  UNL     1      24.182   1.670   4.701  1.00  0.00    -0.194 F 
HETATM   19  F5  UNL     1      23.322   2.643   2.927  1.00  0.00    -0.194 F 
BRANCH  17  20
HETATM   20  C16 UNL     1      25.098   1.133   2.647  1.00  0.00     0.456 C 
HETATM   21  F6  UNL     1      25.662   0.144   3.426  1.00  0.00    -0.165 F 
HETATM   22  F7  UNL     1      26.027   1.601   1.772  1.00  0.00    -0.165 F 
HETATM   23  F8  UNL     1      24.038   0.623   1.899  1.00  0.00    -0.165 F 
ENDBRANCH  17  20
ENDBRANCH  16  17
ENDBRANCH   8  16
ENDBRANCH   6   8
BRANCH   3  24
HETATM   24  C7  UNL     1      28.247   2.905   9.055  1.00  0.00     0.403 C 
HETATM   25  F1  UNL     1      28.524   1.775   9.775  1.00  0.00    -0.208 F 
HETATM   26  F2  UNL     1      27.063   3.518   9.482  1.00  0.00    -0.208 F 
ENDBRANCH   3  24
BRANCH   1  27
HETATM   27  C3  UNL     1      29.482   0.308   5.031  1.00  0.00     0.058 A 
HETATM   28  N2  UNL     1      29.002  -0.321   3.944  1.00  0.00    -0.361 N 
HETATM   29  C2  UNL     1      29.672  -1.284   3.301  1.00  0.00     0.136 A 
ATOM     30  H2  UNL     1      28.083  -0.051   3.593  1.00  0.00     0.165 HD
HETATM   31  C1  UNL     1      30.917  -1.646   3.784  1.00  0.00     0.114 A 
HETATM   32  N5  UNL     1      31.408  -1.029   4.864  1.00  0.00    -0.349 N 
HETATM   33  C18 UNL     1      30.716  -0.054   5.505  1.00  0.00     0.120 A 
ATOM     34  H5  UNL     1      32.326  -1.300   5.215  1.00  0.00     0.167 HD
BRANCH  31  35
HETATM   35  N1  UNL     1      31.625  -2.580   3.204  1.00  0.00    -0.384 N 
ATOM     36  H12 UNL     1      31.962  -3.367   3.759  1.00  0.00     0.157 HD
ATOM     37  H11 UNL     1      31.845  -2.537   2.209  1.00  0.00     0.157 HD
ENDBRANCH  31  35
ENDBRANCH   1  27
TORSDOF 9
ENDMDL
MODEL 2
REMARK VINA RESULT: -7.659615953      3.118      4.929
REMARK  9 active torsions:
REMARK  status: ('A' for Active; 'I' for Inactive)
REMARK    1  A    between atoms: N1_1  and  C1_4 
REMARK    2  A    between atoms: C3_8  and  C4_9 
REMARK    3  A    between atoms: C6_11  and  C7_12 
REMARK    4  A    between atoms: C8_17  and  N4_18 
REMARK    5  A    between atoms: N4_18  and  C9_19 
REMARK    6  A    between atoms: N4_18  and  C14_26 
REMARK    7  A    between atoms: C9_19  and  C10_20 
REMARK    8  A    between atoms: C14_26  and  C15_27 
REMARK    9  A    between atoms: C15_27  and  C16_30 
ROOT
HETATM    1  C4  UNL     1      29.308   1.073   7.992  1.00  0.00    -0.003 A 
HETATM    2  C5  UNL     1      30.377   0.396   7.398  1.00  0.00     0.044 A 
HETATM    3  C6  UNL     1      30.631   0.501   6.056  1.00  0.00     0.076 A 
HETATM    4  N3  UNL     1      29.826   1.271   5.325  1.00  0.00    -0.341 N 
ATOM      5  H3  UNL     1      30.020   1.344   4.327  1.00  0.00     0.167 HD
HETATM    6  C8  UNL     1      28.764   1.966   5.813  1.00  0.00     0.104 A 
HETATM    7  C17 UNL     1      28.515   1.858   7.156  1.00  0.00     0.062 A 
ENDROOT
BRANCH   6   8
HETATM    8  N4  UNL     1      27.962   2.764   4.907  1.00  0.00    -0.358 N 
BRANCH   8   9
HETATM    9  C9  UNL     1      27.178   3.832   5.422  1.00  0.00     0.170 C 
BRANCH   9  10
HETATM   10  C10 UNL     1      25.856   4.046   4.744  1.00  0.00     0.142 C 
HETATM   11  F3  UNL     1      25.861   3.940   3.391  1.00  0.00    -0.239 F 
HETATM   12  C11 UNL     1      25.381   5.473   5.070  1.00  0.00     0.074 C 
HETATM   13  C12 UNL     1      23.915   5.290   4.667  1.00  0.00     0.171 C 
HETATM   14  O1  UNL     1      23.557   4.031   5.071  1.00  0.00    -0.388 OA
HETATM   15  C13 UNL     1      24.706   3.297   5.367  1.00  0.00     0.213 C 
ENDBRANCH   9  10
ENDBRANCH   8   9
BRANCH   8  16
HETATM   16  C14 UNL     1      28.010   2.399   3.529  1.00  0.00     0.213 C 
BRANCH  16  17
HETATM   17  C15 UNL     1      27.401   1.112   3.126  1.00  0.00     0.354 C 
HETATM   18  F4  UNL     1      26.701   0.427   4.070  1.00  0.00    -0.194 F 
HETATM   19  F5  UNL     1      26.571   1.213   2.022  1.00  0.00    -0.194 F 
BRANCH  17  20
HETATM   20  C16 UNL     1      28.565   0.191   2.722  1.00  0.00     0.456 C 
HETATM   21  F6  UNL     1      29.774   0.848   2.821  1.00  0.00    -0.165 F 
HETATM   22  F7  UNL     1      28.415  -0.289   1.459  1.00  0.00    -0.165 F 
HETATM   23  F8  UNL     1      28.526  -0.898   3.592  1.00  0.00    -0.165 F 
ENDBRANCH  17  20
ENDBRANCH  16  17
ENDBRANCH   8  16
ENDBRANCH   6   8
BRANCH   3  24
HETATM   24  C7  UNL     1      31.790  -0.245   5.474  1.00  0.00     0.403 C 
HETATM   25  F1  UNL     1      31.395  -1.300   4.697  1.00  0.00    -0.208 F 
HETATM   26  F2  UNL     1      32.554  -0.664   6.570  1.00  0.00    -0.208 F 
ENDBRANCH   3  24
BRANCH   1  27
HETATM   27  C3  UNL     1      29.058   0.941   9.423  1.00  0.00     0.058 A 
HETATM   28  N2  UNL     1      29.872   0.144  10.137  1.00  0.00    -0.361 N 
HETATM   29  C2  UNL     1      29.734  -0.049  11.454  1.00  0.00     0.136 A 
ATOM     30  H2  UNL     1      30.629  -0.337   9.651  1.00  0.00     0.165 HD
HETATM   31  C1  UNL     1      28.705   0.606  12.105  1.00  0.00     0.114 A 
HETATM   32  N5  UNL     1      27.888   1.402  11.408  1.00  0.00    -0.349 N 
HETATM   33  C18 UNL     1      28.040   1.588  10.073  1.00  0.00     0.120 A 
ATOM     34  H5  UNL     1      27.130   1.883  11.893  1.00  0.00     0.167 HD
BRANCH  31  35
HETATM   35  N1  UNL     1      28.514   0.461  13.390  1.00  0.00    -0.384 N 
ATOM     36  H12 UNL     1      29.223  -0.014  13.949  1.00  0.00     0.157 HD
ATOM     37  H11 UNL     1      27.671   0.814  13.843  1.00  0.00     0.157 HD
ENDBRANCH  31  35
ENDBRANCH   1  27
TORSDOF 9
ENDMDL
MODEL 3
REMARK VINA RESULT: -7.306321507      2.892      4.629
REMARK  9 active torsions:
REMARK  status: ('A' for Active; 'I' for Inactive)
REMARK    1  A    between atoms: N1_1  and  C1_4 
REMARK    2  A    between atoms: C3_8  and  C4_9 
REMARK    3  A    between atoms: C6_11  and  C7_12 
REMARK    4  A    between atoms: C8_17  and  N4_18 
REMARK    5  A    between atoms: N4_18  and  C9_19 
REMARK    6  A    between atoms: N4_18  and  C14_26 
REMARK    7  A    between atoms: C9_19  and  C10_20 
REMARK    8  A    between atoms: C14_26  and  C15_27 
REMARK    9  A    between atoms: C15_27  and  C16_30 
ROOT
HETATM    1  C4  UNL     1      29.180   1.003   8.088  1.00  0.00    -0.003 A 
HETATM    2  C5  UNL     1      30.176   0.377   7.333  1.00  0.00     0.044 A 
HETATM    3  C6  UNL     1      30.254   0.544   5.976  1.00  0.00     0.076 A 
HETATM    4  N3  UNL     1      29.348   1.325   5.389  1.00  0.00    -0.341 N 
ATOM      5  H3  UNL     1      29.412   1.445   4.378  1.00  0.00     0.167 HD
HETATM    6  C8  UNL     1      28.346   1.974   6.040  1.00  0.00     0.104 A 
HETATM    7  C17 UNL     1      28.272   1.803   7.397  1.00  0.00     0.062 A 
ENDROOT
BRANCH   6   8
HETATM    8  N4  UNL     1      27.420   2.791   5.279  1.00  0.00    -0.358 N 
BRANCH   8   9
HETATM    9  C9  UNL     1      27.812   4.093   4.866  1.00  0.00     0.170 C 
BRANCH   9  10
HETATM   10  C10 UNL     1      26.867   4.782   3.925  1.00  0.00     0.142 C 
HETATM   11  F3  UNL     1      26.509   4.076   2.823  1.00  0.00    -0.239 F 
HETATM   12  C11 UNL     1      27.552   6.064   3.421  1.00  0.00     0.074 C 
HETATM   13  C12 UNL     1      26.299   6.757   2.878  1.00  0.00     0.171 C 
HETATM   14  O1  UNL     1      25.290   6.479   3.760  1.00  0.00    -0.388 OA
HETATM   15  C13 UNL     1      25.682   5.430   4.594  1.00  0.00     0.213 C 
ENDBRANCH   9  10
ENDBRANCH   8   9
BRANCH   8  16
HETATM   16  C14 UNL     1      26.143   2.215   5.008  1.00  0.00     0.213 C 
BRANCH  16  17
HETATM   17  C15 UNL     1      26.070   1.108   4.031  1.00  0.00     0.354 C 
HETATM   18  F4  UNL     1      27.170   0.873   3.266  1.00  0.00    -0.194 F 
HETATM   19  F5  UNL     1      25.720  -0.108   4.595  1.00  0.00    -0.194 F 
BRANCH  17  20
HETATM   20  C16 UNL     1      24.949   1.475   3.044  1.00  0.00     0.456 C 
HETATM   21  F6  UNL     1      24.332   2.654   3.411  1.00  0.00    -0.165 F 
HETATM   22  F7  UNL     1      24.016   0.491   2.947  1.00  0.00    -0.165 F 
HETATM   23  F8  UNL     1      25.551   1.606   1.794  1.00  0.00    -0.165 F 
ENDBRANCH  17  20
ENDBRANCH  16  17
ENDBRANCH   8  16
ENDBRANCH   6   8
BRANCH   3  24
HETATM   24  C7  UNL     1      31.342  -0.149   5.219  1.00  0.00     0.403 C 
HETATM   25  F1  UNL     1      30.863  -1.149   4.416  1.00  0.00    -0.208 F 
HETATM   26  F2  UNL     1      32.222  -0.639   6.191  1.00  0.00    -0.208 F 
ENDBRANCH   3  24
BRANCH   1  27
HETATM   27  C3  UNL     1      29.118   0.804   9.532  1.00  0.00     0.058 A 
HETATM   28  N2  UNL     1      28.086   1.348  10.201  1.00  0.00    -0.361 N 
HETATM   29  C2  UNL     1      27.929   1.228  11.525  1.00  0.00     0.136 A 
ATOM     30  H2  UNL     1      27.390   1.876   9.675  1.00  0.00     0.165 HD
HETATM   31  C1  UNL     1      28.877   0.511  12.231  1.00  0.00     0.114 A 
HETATM   32  N5  UNL     1      29.909  -0.036  11.580  1.00  0.00    -0.349 N 
HETATM   33  C18 UNL     1      30.053   0.094  10.237  1.00  0.00     0.120 A 
ATOM     34  H5  UNL     1      30.605  -0.564  12.106  1.00  0.00     0.167 HD
BRANCH  31  35
HETATM   35  N1  UNL     1      28.784   0.356  13.527  1.00  0.00    -0.384 N 
ATOM     36  H12 UNL     1      28.649   1.176  14.118  1.00  0.00     0.157 HD
ATOM     37  H11 UNL     1      28.844  -0.568  13.955  1.00  0.00     0.157 HD
ENDBRANCH  31  35
ENDBRANCH   1  27
TORSDOF 9
ENDMDL
MODEL 4
REMARK VINA RESULT: -7.282921795      3.067      5.384
REMARK  9 active torsions:
REMARK  status: ('A' for Active; 'I' for Inactive)
REMARK    1  A    between atoms: N1_1  and  C1_4 
REMARK    2  A    between atoms: C3_8  and  C4_9 
REMARK    3  A    between atoms: C6_11  and  C7_12 
REMARK    4  A    between atoms: C8_17  and  N4_18 
REMARK    5  A    between atoms: N4_18  and  C9_19 
REMARK    6  A    between atoms: N4_18  and  C14_26 
REMARK    7  A    between atoms: C9_19  and  C10_20 
REMARK    8  A    between atoms: C14_26  and  C15_27 
REMARK    9  A    between atoms: C15_27  and  C16_30 
ROOT
HETATM    1  C4  UNL     1      28.789   1.722   7.760  1.00  0.00    -0.003 A 
HETATM    2  C5  UNL     1      29.786   1.334   6.860  1.00  0.00     0.044 A 
HETATM    3  C6  UNL     1      29.749   1.719   5.546  1.00  0.00     0.076 A 
HETATM    4  N3  UNL     1      28.731   2.478   5.145  1.00  0.00    -0.341 N 
ATOM      5  H3  UNL     1      28.710   2.760   4.165  1.00  0.00     0.167 HD
HETATM    6  C8  UNL     1      27.718   2.903   5.946  1.00  0.00     0.104 A 
HETATM    7  C17 UNL     1      27.759   2.516   7.259  1.00  0.00     0.062 A 
ENDROOT
BRANCH   6   8
HETATM    8  N4  UNL     1      26.664   3.723   5.380  1.00  0.00    -0.358 N 
BRANCH   8   9
HETATM    9  C9  UNL     1      25.345   3.200   5.286  1.00  0.00     0.170 C 
BRANCH   9  10
HETATM   10  C10 UNL     1      25.194   1.990   4.411  1.00  0.00     0.142 C 
HETATM   11  F3  UNL     1      25.421   0.794   5.011  1.00  0.00    -0.239 F 
HETATM   12  C11 UNL     1      26.212   2.105   3.263  1.00  0.00     0.074 C 
HETATM   13  C12 UNL     1      25.587   1.057   2.339  1.00  0.00     0.171 C 
HETATM   14  O1  UNL     1      24.230   1.202   2.451  1.00  0.00    -0.388 OA
HETATM   15  C13 UNL     1      23.940   1.977   3.576  1.00  0.00     0.213 C 
ENDBRANCH   9  10
ENDBRANCH   8   9
BRANCH   8  16
HETATM   16  C14 UNL     1      27.043   5.024   4.936  1.00  0.00     0.213 C 
BRANCH  16  17
HETATM   17  C15 UNL     1      26.604   5.459   3.592  1.00  0.00     0.354 C 
HETATM   18  F4  UNL     1      27.409   6.323   2.918  1.00  0.00    -0.194 F 
HETATM   19  F5  UNL     1      26.347   4.409   2.726  1.00  0.00    -0.194 F 
BRANCH  17  20
HETATM   20  C16 UNL     1      25.272   6.203   3.792  1.00  0.00     0.456 C 
HETATM   21  F6  UNL     1      25.126   6.613   5.102  1.00  0.00    -0.165 F 
HETATM   22  F7  UNL     1      24.206   5.437   3.439  1.00  0.00    -0.165 F 
HETATM   23  F8  UNL     1      25.301   7.301   2.935  1.00  0.00    -0.165 F 
ENDBRANCH  17  20
ENDBRANCH  16  17
ENDBRANCH   8  16
ENDBRANCH   6   8
BRANCH   3  24
HETATM   24  C7  UNL     1      30.844   1.275   4.628  1.00  0.00     0.403 C 
HETATM   25  F1  UNL     1      30.468   1.310   3.312  1.00  0.00    -0.208 F 
HETATM   26  F2  UNL     1      31.175  -0.021   5.039  1.00  0.00    -0.208 F 
ENDBRANCH   3  24
BRANCH   1  27
HETATM   27  C3  UNL     1      28.850   1.295   9.154  1.00  0.00     0.058 A 
HETATM   28  N2  UNL     1      27.920   1.769  10.002  1.00  0.00    -0.361 N 
HETATM   29  C2  UNL     1      27.881   1.444  11.299  1.00  0.00     0.136 A 
ATOM     30  H2  UNL     1      27.212   2.407   9.639  1.00  0.00     0.165 HD
HETATM   31  C1  UNL     1      28.845   0.579  11.784  1.00  0.00     0.114 A 
HETATM   32  N5  UNL     1      29.776   0.099  10.953  1.00  0.00    -0.349 N 
HETATM   33  C18 UNL     1      29.802   0.438   9.639  1.00  0.00     0.120 A 
ATOM     34  H5  UNL     1      30.484  -0.539  11.316  1.00  0.00     0.167 HD
BRANCH  31  35
HETATM   35  N1  UNL     1      28.864   0.220  13.042  1.00  0.00    -0.384 N 
ATOM     36  H12 UNL     1      28.345   0.771  13.725  1.00  0.00     0.157 HD
ATOM     37  H11 UNL     1      29.389  -0.598  13.350  1.00  0.00     0.157 HD
ENDBRANCH  31  35
ENDBRANCH   1  27
TORSDOF 9
ENDMDL
MODEL 5
REMARK VINA RESULT: -7.172209793      3.576      5.888
REMARK  9 active torsions:
REMARK  status: ('A' for Active; 'I' for Inactive)
REMARK    1  A    between atoms: N1_1  and  C1_4 
REMARK    2  A    between atoms: C3_8  and  C4_9 
REMARK    3  A    between atoms: C6_11  and  C7_12 
REMARK    4  A    between atoms: C8_17  and  N4_18 
REMARK    5  A    between atoms: N4_18  and  C9_19 
REMARK    6  A    between atoms: N4_18  and  C14_26 
REMARK    7  A    between atoms: C9_19  and  C10_20 
REMARK    8  A    between atoms: C14_26  and  C15_27 
REMARK    9  A    between atoms: C15_27  and  C16_30 
ROOT
HETATM    1  C4  UNL     1      29.223   1.056   8.189  1.00  0.00    -0.003 A 
HETATM    2  C5  UNL     1      30.228   0.436   7.439  1.00  0.00     0.044 A 
HETATM    3  C6  UNL     1      30.329   0.625   6.087  1.00  0.00     0.076 A 
HETATM    4  N3  UNL     1      29.438   1.422   5.498  1.00  0.00    -0.341 N 
ATOM      5  H3  UNL     1      29.519   1.558   4.491  1.00  0.00     0.167 HD
HETATM    6  C8  UNL     1      28.429   2.067   6.143  1.00  0.00     0.104 A 
HETATM    7  C17 UNL     1      28.332   1.874   7.496  1.00  0.00     0.062 A 
ENDROOT
BRANCH   6   8
HETATM    8  N4  UNL     1      27.521   2.903   5.382  1.00  0.00    -0.358 N 
BRANCH   8   9
HETATM    9  C9  UNL     1      26.330   2.339   4.849  1.00  0.00     0.170 C 
BRANCH   9  10
HETATM   10  C10 UNL     1      26.530   1.194   3.898  1.00  0.00     0.142 C 
HETATM   11  F3  UNL     1      25.486   0.921   3.074  1.00  0.00    -0.239 F 
HETATM   12  C11 UNL     1      26.775  -0.076   4.731  1.00  0.00     0.074 C 
HETATM   13  C12 UNL     1      27.355  -0.940   3.607  1.00  0.00     0.171 C 
HETATM   14  O1  UNL     1      28.136  -0.112   2.846  1.00  0.00    -0.388 OA
HETATM   15  C13 UNL     1      27.844   1.217   3.161  1.00  0.00     0.213 C 
ENDBRANCH   9  10
ENDBRANCH   8   9
BRANCH   8  16
HETATM   16  C14 UNL     1      27.910   4.264   5.208  1.00  0.00     0.213 C 
BRANCH  16  17
HETATM   17  C15 UNL     1      27.757   4.868   3.866  1.00  0.00     0.354 C 
HETATM   18  F4  UNL     1      28.517   5.959   3.579  1.00  0.00    -0.194 F 
HETATM   19  F5  UNL     1      27.954   3.972   2.828  1.00  0.00    -0.194 F 
BRANCH  17  20
HETATM   20  C16 UNL     1      26.297   5.343   3.770  1.00  0.00     0.456 C 
HETATM   21  F6  UNL     1      25.787   5.632   5.019  1.00  0.00    -0.165 F 
HETATM   22  F7  UNL     1      25.504   4.421   3.162  1.00  0.00    -0.165 F 
HETATM   23  F8  UNL     1      26.305   6.482   2.967  1.00  0.00    -0.165 F 
ENDBRANCH  17  20
ENDBRANCH  16  17
ENDBRANCH   8  16
ENDBRANCH   6   8
BRANCH   3  24
HETATM   24  C7  UNL     1      31.425  -0.063   5.336  1.00  0.00     0.403 C 
HETATM   25  F1  UNL     1      30.956  -1.065   4.530  1.00  0.00    -0.208 F 
HETATM   26  F2  UNL     1      32.301  -0.548   6.314  1.00  0.00    -0.208 F 
ENDBRANCH   3  24
BRANCH   1  27
HETATM   27  C3  UNL     1      29.136   0.834   9.628  1.00  0.00     0.058 A 
HETATM   28  N2  UNL     1      28.092   1.367  10.288  1.00  0.00    -0.361 N 
HETATM   29  C2  UNL     1      27.912   1.226  11.606  1.00  0.00     0.136 A 
ATOM     30  H2  UNL     1      27.406   1.904   9.758  1.00  0.00     0.165 HD
HETATM   31  C1  UNL     1      28.847   0.496  12.317  1.00  0.00     0.114 A 
HETATM   32  N5  UNL     1      29.891  -0.040  11.675  1.00  0.00    -0.349 N 
HETATM   33  C18 UNL     1      30.059   0.112  10.337  1.00  0.00     0.120 A 
ATOM     34  H5  UNL     1      30.577  -0.577  12.204  1.00  0.00     0.167 HD
BRANCH  31  35
HETATM   35  N1  UNL     1      28.732   0.320  13.608  1.00  0.00    -0.384 N 
ATOM     36  H12 UNL     1      27.936   0.728  14.098  1.00  0.00     0.157 HD
ATOM     37  H11 UNL     1      29.423  -0.217  14.133  1.00  0.00     0.157 HD
ENDBRANCH  31  35
ENDBRANCH   1  27
TORSDOF 9
ENDMDL
