MODEL 1
REMARK VINA RESULT: -8.565442832      0.000      0.000
REMARK  7 active torsions:
REMARK  status: ('A' for Active; 'I' for Inactive)
REMARK    1  A    between atoms: C2_2  and  C3_3 
REMARK    2  A    between atoms: C3_3  and  C4_5 
REMARK    3  A    between atoms: C3_3  and  C15_31 
REMARK    4  A    between atoms: N1_7  and  C6_9 
REMARK    5  A    between atoms: C6_9  and  C7_10 
REMARK    6  A    between atoms: C6_9  and  C14_27 
REMARK    7  A    between atoms: C10_15  and  C11_16 
ROOT
HETATM    1  C7  UNL     1      28.601   1.173   5.710  1.00  0.00     0.109 A 
HETATM    2  N2  UNL     1      29.663   0.856   5.027  1.00  0.00    -0.354 N 
ATOM      3  H2  UNL     1      29.609   1.000   4.019  1.00  0.00     0.166 HD
HETATM    4  C8  UNL     1      30.816   0.365   5.493  1.00  0.00     0.092 A 
HETATM    5  C9  UNL     1      30.831   0.186   6.880  1.00  0.00     0.050 A 
HETATM    6  C10 UNL     1      29.727   0.510   7.655  1.00  0.00     0.080 A 
HETATM    7  N6  UNL     1      28.631   0.999   7.049  1.00  0.00    -0.341 N 
ATOM      8  H6  UNL     1      27.813   1.242   7.608  1.00  0.00     0.167 HD
ENDROOT
BRANCH   1   9
HETATM    9  C6  UNL     1      27.357   1.690   5.014  1.00  0.00     0.204 C 
BRANCH   9  10
HETATM   10  N1  UNL     1      27.435   3.049   4.840  1.00  0.00    -0.379 N 
HETATM   11  C4  UNL     1      26.822   4.112   5.378  1.00  0.00     0.028 C 
HETATM   12  C5  UNL     1      26.265   3.946   6.782  1.00  0.00     0.067 C 
ATOM     13  H1  UNL     1      28.122   3.312   4.134  1.00  0.00     0.160 HD
BRANCH  11  14
HETATM   14  C3  UNL     1      25.874   4.980   4.583  1.00  0.00     0.237 C 
HETATM   15  F1  UNL     1      25.430   6.124   5.156  1.00  0.00    -0.227 F 
BRANCH  14  16
HETATM   16  C2  UNL     1      24.704   4.182   4.073  1.00  0.00     0.055 C 
HETATM   17  C1  UNL     1      23.343   4.736   4.397  1.00  0.00     0.009 C 
ENDBRANCH  14  16
BRANCH  14  18
HETATM   18  C15 UNL     1      26.655   5.432   3.301  1.00  0.00     0.428 C 
HETATM   19  F2  UNL     1      27.953   5.710   3.573  1.00  0.00    -0.167 F 
HETATM   20  F3  UNL     1      26.649   4.382   2.423  1.00  0.00    -0.167 F 
HETATM   21  F4  UNL     1      26.069   6.561   2.765  1.00  0.00    -0.167 F 
ENDBRANCH  14  18
ENDBRANCH  11  14
ENDBRANCH   9  10
BRANCH   9  22
HETATM   22  C14 UNL     1      27.059   0.738   3.923  1.00  0.00     0.215 C 
HETATM   23 CL1  UNL     1      25.406   1.142   3.236  1.00  0.00    -0.081 Cl
HETATM   24 CL2  UNL     1      26.796  -0.931   4.587  1.00  0.00    -0.081 Cl
HETATM   25 CL3  UNL     1      28.195   0.575   2.605  1.00  0.00    -0.081 Cl
ENDBRANCH   9  22
ENDBRANCH   1   9
BRANCH   6  26
HETATM   26  C11 UNL     1      29.818   0.344   9.113  1.00  0.00     0.148 A 
HETATM   27  N3  UNL     1      28.872   0.554  10.009  1.00  0.00    -0.328 N 
HETATM   28  C12 UNL     1      29.300   0.317  11.252  1.00  0.00     0.093 A 
ATOM     29  H3  UNL     1      27.926   0.860   9.780  1.00  0.00     0.169 HD
HETATM   30  C13 UNL     1      28.601   0.420  12.544  1.00  0.00     0.090 C 
HETATM   31  N4  UNL     1      30.596  -0.065  11.108  1.00  0.00    -0.288 N 
HETATM   32  N5  UNL     1      30.891  -0.040   9.791  1.00  0.00    -0.282 N 
ATOM     33  H4  UNL     1      31.233  -0.324  11.862  1.00  0.00     0.188 HD
ATOM     34  H5  UNL     1      31.794  -0.278   9.383  1.00  0.00     0.188 HD
ENDBRANCH   6  26
TORSDOF 7
ENDMDL
MODEL 2
REMARK VINA RESULT: -7.611336667      1.668      2.724
REMARK  7 active torsions:
REMARK  status: ('A' for Active; 'I' for Inactive)
REMARK    1  A    between atoms: C2_2  and  C3_3 
REMARK    2  A    between atoms: C3_3  and  C4_5 
REMARK    3  A    between atoms: C3_3  and  C15_31 
REMARK    4  A    between atoms: N1_7  and  C6_9 
REMARK    5  A    between atoms: C6_9  and  C7_10 
REMARK    6  A    between atoms: C6_9  and  C14_27 
REMARK    7  A    between atoms: C10_15  and  C11_16 
ROOT
HETATM    1  C7  UNL     1      29.252   0.734   6.695  1.00  0.00     0.109 A 
HETATM    2  N2  UNL     1      30.519   0.453   6.594  1.00  0.00    -0.354 N 
ATOM      3  H2  UNL     1      30.897   0.411   5.648  1.00  0.00     0.166 HD
HETATM    4  C8  UNL     1      31.383   0.213   7.586  1.00  0.00     0.092 A 
HETATM    5  C9  UNL     1      30.809   0.282   8.859  1.00  0.00     0.050 A 
HETATM    6  C10 UNL     1      29.464   0.580   9.023  1.00  0.00     0.080 A 
HETATM    7  N6  UNL     1      28.712   0.802   7.931  1.00  0.00    -0.341 N 
ATOM      8  H6  UNL     1      27.722   1.024   8.038  1.00  0.00     0.167 HD
ENDROOT
BRANCH   1   9
HETATM    9  C6  UNL     1      28.404   0.947   5.455  1.00  0.00     0.204 C 
BRANCH   9  10
HETATM   10  N1  UNL     1      27.552   2.007   5.634  1.00  0.00    -0.379 N 
HETATM   11  C4  UNL     1      26.401   2.406   5.073  1.00  0.00     0.028 C 
HETATM   12  C5  UNL     1      25.531   1.327   4.449  1.00  0.00     0.067 C 
ATOM     13  H1  UNL     1      27.868   2.643   6.365  1.00  0.00     0.160 HD
BRANCH  11  14
HETATM   14  C3  UNL     1      26.311   3.650   4.220  1.00  0.00     0.237 C 
HETATM   15  F1  UNL     1      26.036   3.498   2.903  1.00  0.00    -0.227 F 
BRANCH  14  16
HETATM   16  C2  UNL     1      27.534   4.512   4.386  1.00  0.00     0.055 C 
HETATM   17  C1  UNL     1      27.936   5.316   3.180  1.00  0.00     0.009 C 
ENDBRANCH  14  16
BRANCH  14  18
HETATM   18  C15 UNL     1      25.126   4.500   4.798  1.00  0.00     0.428 C 
HETATM   19  F2  UNL     1      25.525   5.745   5.151  1.00  0.00    -0.167 F 
HETATM   20  F3  UNL     1      24.200   4.647   3.801  1.00  0.00    -0.167 F 
HETATM   21  F4  UNL     1      24.598   3.877   5.910  1.00  0.00    -0.167 F 
ENDBRANCH  14  18
ENDBRANCH  11  14
ENDBRANCH   9  10
BRANCH   9  22
HETATM   22  C14 UNL     1      29.311   0.808   4.296  1.00  0.00     0.215 C 
HETATM   23 CL1  UNL     1      30.595   2.114   4.404  1.00  0.00    -0.081 Cl
HETATM   24 CL2  UNL     1      28.453   1.246   2.758  1.00  0.00    -0.081 Cl
HETATM   25 CL3  UNL     1      30.091  -0.729   4.009  1.00  0.00    -0.081 Cl
ENDBRANCH   9  22
ENDBRANCH   1   9
BRANCH   6  26
HETATM   26  C11 UNL     1      28.928   0.684  10.388  1.00  0.00     0.148 A 
HETATM   27  N3  UNL     1      29.349   0.056  11.470  1.00  0.00    -0.328 N 
HETATM   28  C12 UNL     1      28.624   0.374  12.546  1.00  0.00     0.093 A 
ATOM     29  H3  UNL     1      30.136  -0.593  11.483  1.00  0.00     0.169 HD
HETATM   30  C13 UNL     1      28.731  -0.079  13.942  1.00  0.00     0.090 C 
HETATM   31  N4  UNL     1      27.695   1.257  12.093  1.00  0.00    -0.288 N 
HETATM   32  N5  UNL     1      27.901   1.430  10.770  1.00  0.00    -0.282 N 
ATOM     33  H4  UNL     1      26.972   1.708  12.653  1.00  0.00     0.188 HD
ATOM     34  H5  UNL     1      27.353   2.038  10.161  1.00  0.00     0.188 HD
ENDBRANCH   6  26
TORSDOF 7
ENDMDL
MODEL 3
REMARK VINA RESULT: -7.554500400      0.873      1.381
REMARK  7 active torsions:
REMARK  status: ('A' for Active; 'I' for Inactive)
REMARK    1  A    between atoms: C2_2  and  C3_3 
REMARK    2  A    between atoms: C3_3  and  C4_5 
REMARK    3  A    between atoms: C3_3  and  C15_31 
REMARK    4  A    between atoms: N1_7  and  C6_9 
REMARK    5  A    between atoms: C6_9  and  C7_10 
REMARK    6  A    between atoms: C6_9  and  C14_27 
REMARK    7  A    between atoms: C10_15  and  C11_16 
ROOT
HETATM    1  C7  UNL     1      28.793   1.370   6.044  1.00  0.00     0.109 A 
HETATM    2  N2  UNL     1      30.007   0.995   5.760  1.00  0.00    -0.354 N 
ATOM      3  H2  UNL     1      30.270   1.026   4.776  1.00  0.00     0.166 HD
HETATM    4  C8  UNL     1      30.950   0.572   6.610  1.00  0.00     0.092 A 
HETATM    5  C9  UNL     1      30.533   0.547   7.944  1.00  0.00     0.050 A 
HETATM    6  C10 UNL     1      29.251   0.939   8.301  1.00  0.00     0.080 A 
HETATM    7  N6  UNL     1      28.406   1.344   7.338  1.00  0.00    -0.341 N 
ATOM      8  H6  UNL     1      27.461   1.636   7.587  1.00  0.00     0.167 HD
ENDROOT
BRANCH   1   9
HETATM    9  C6  UNL     1      27.836   1.792   4.946  1.00  0.00     0.204 C 
BRANCH   9  10
HETATM   10  N1  UNL     1      27.784   3.159   4.855  1.00  0.00    -0.379 N 
HETATM   11  C4  UNL     1      26.998   4.117   5.368  1.00  0.00     0.028 C 
HETATM   12  C5  UNL     1      26.302   3.803   6.682  1.00  0.00     0.067 C 
ATOM     13  H1  UNL     1      28.516   3.538   4.254  1.00  0.00     0.160 HD
BRANCH  11  14
HETATM   14  C3  UNL     1      26.060   4.933   4.509  1.00  0.00     0.237 C 
HETATM   15  F1  UNL     1      25.495   6.035   5.057  1.00  0.00    -0.227 F 
BRANCH  14  16
HETATM   16  C2  UNL     1      24.992   4.067   3.897  1.00  0.00     0.055 C 
HETATM   17  C1  UNL     1      23.580   4.568   4.042  1.00  0.00     0.009 C 
ENDBRANCH  14  16
BRANCH  14  18
HETATM   18  C15 UNL     1      26.909   5.457   3.299  1.00  0.00     0.428 C 
HETATM   19  F2  UNL     1      27.000   4.536   2.311  1.00  0.00    -0.167 F 
HETATM   20  F3  UNL     1      26.255   6.539   2.775  1.00  0.00    -0.167 F 
HETATM   21  F4  UNL     1      28.183   5.775   3.721  1.00  0.00    -0.167 F 
ENDBRANCH  14  18
ENDBRANCH  11  14
ENDBRANCH   9  10
BRANCH   9  22
HETATM   22  C14 UNL     1      28.096   0.900   3.795  1.00  0.00     0.215 C 
HETATM   23 CL1  UNL     1      26.880   1.285   2.477  1.00  0.00    -0.081 Cl
HETATM   24 CL2  UNL     1      27.676  -0.816   4.210  1.00  0.00    -0.081 Cl
HETATM   25 CL3  UNL     1      29.697   0.865   3.096  1.00  0.00    -0.081 Cl
ENDBRANCH   9  22
ENDBRANCH   1   9
BRANCH   6  26
HETATM   26  C11 UNL     1      28.885   0.934   9.725  1.00  0.00     0.148 A 
HETATM   27  N3  UNL     1      29.425   0.220  10.694  1.00  0.00    -0.328 N 
HETATM   28  C12 UNL     1      28.840   0.453  11.873  1.00  0.00     0.093 A 
ATOM     29  H3  UNL     1      30.198  -0.433  10.560  1.00  0.00     0.169 HD
HETATM   30  C13 UNL     1      29.108  -0.112  13.205  1.00  0.00     0.090 C 
HETATM   31  N4  UNL     1      27.877   1.374  11.608  1.00  0.00    -0.288 N 
HETATM   32  N5  UNL     1      27.923   1.652  10.287  1.00  0.00    -0.282 N 
ATOM     33  H4  UNL     1      27.233   1.782  12.286  1.00  0.00     0.188 HD
ATOM     34  H5  UNL     1      27.314   2.310   9.800  1.00  0.00     0.188 HD
ENDBRANCH   6  26
TORSDOF 7
ENDMDL
MODEL 4
REMARK VINA RESULT: -7.522261730      1.075      1.701
REMARK  7 active torsions:
REMARK  status: ('A' for Active; 'I' for Inactive)
REMARK    1  A    between atoms: C2_2  and  C3_3 
REMARK    2  A    between atoms: C3_3  and  C4_5 
REMARK    3  A    between atoms: C3_3  and  C15_31 
REMARK    4  A    between atoms: N1_7  and  C6_9 
REMARK    5  A    between atoms: C6_9  and  C7_10 
REMARK    6  A    between atoms: C6_9  and  C14_27 
REMARK    7  A    between atoms: C10_15  and  C11_16 
ROOT
HETATM    1  C7  UNL     1      28.306   1.500   5.697  1.00  0.00     0.109 A 
HETATM    2  N2  UNL     1      29.387   1.442   4.974  1.00  0.00    -0.354 N 
ATOM      3  H2  UNL     1      29.283   1.682   3.989  1.00  0.00     0.166 HD
HETATM    4  C8  UNL     1      30.618   1.105   5.373  1.00  0.00     0.092 A 
HETATM    5  C9  UNL     1      30.699   0.783   6.732  1.00  0.00     0.050 A 
HETATM    6  C10 UNL     1      29.578   0.831   7.547  1.00  0.00     0.080 A 
HETATM    7  N6  UNL     1      28.400   1.191   7.009  1.00  0.00    -0.341 N 
ATOM      8  H6  UNL     1      27.568   1.232   7.597  1.00  0.00     0.167 HD
ENDROOT
BRANCH   1   9
HETATM    9  C6  UNL     1      26.975   1.873   5.072  1.00  0.00     0.204 C 
BRANCH   9  10
HETATM   10  N1  UNL     1      26.880   3.233   4.921  1.00  0.00    -0.379 N 
HETATM   11  C4  UNL     1      25.892   4.133   5.019  1.00  0.00     0.028 C 
HETATM   12  C5  UNL     1      24.724   3.775   5.923  1.00  0.00     0.067 C 
ATOM     13  H1  UNL     1      27.773   3.660   4.675  1.00  0.00     0.160 HD
BRANCH  11  14
HETATM   14  C3  UNL     1      25.360   4.877   3.816  1.00  0.00     0.237 C 
HETATM   15  F1  UNL     1      24.325   4.327   3.137  1.00  0.00    -0.227 F 
BRANCH  14  16
HETATM   16  C2  UNL     1      26.467   5.222   2.857  1.00  0.00     0.055 C 
HETATM   17  C1  UNL     1      27.825   5.427   3.471  1.00  0.00     0.009 C 
ENDBRANCH  14  16
BRANCH  14  18
HETATM   18  C15 UNL     1      24.828   6.254   4.344  1.00  0.00     0.428 C 
HETATM   19  F2  UNL     1      25.507   6.669   5.440  1.00  0.00    -0.167 F 
HETATM   20  F3  UNL     1      25.047   7.184   3.365  1.00  0.00    -0.167 F 
HETATM   21  F4  UNL     1      23.491   6.149   4.671  1.00  0.00    -0.167 F 
ENDBRANCH  14  18
ENDBRANCH  11  14
ENDBRANCH   9  10
BRANCH   9  22
HETATM   22  C14 UNL     1      26.737   0.906   3.979  1.00  0.00     0.215 C 
HETATM   23 CL1  UNL     1      25.022   1.129   3.370  1.00  0.00    -0.081 Cl
HETATM   24 CL2  UNL     1      26.693  -0.790   4.626  1.00  0.00    -0.081 Cl
HETATM   25 CL3  UNL     1      27.826   0.888   2.612  1.00  0.00    -0.081 Cl
ENDBRANCH   9  22
ENDBRANCH   1   9
BRANCH   6  26
HETATM   26  C11 UNL     1      29.734   0.527   8.977  1.00  0.00     0.148 A 
HETATM   27  N3  UNL     1      28.854   0.715   9.942  1.00  0.00    -0.328 N 
HETATM   28  C12 UNL     1      29.329   0.338  11.133  1.00  0.00     0.093 A 
ATOM     29  H3  UNL     1      27.921   1.101   9.797  1.00  0.00     0.169 HD
HETATM   30  C13 UNL     1      28.709   0.368  12.467  1.00  0.00     0.090 C 
HETATM   31  N4  UNL     1      30.586  -0.113  10.880  1.00  0.00    -0.288 N 
HETATM   32  N5  UNL     1      30.811   0.014   9.554  1.00  0.00    -0.282 N 
ATOM     33  H4  UNL     1      31.243  -0.481  11.569  1.00  0.00     0.188 HD
ATOM     34  H5  UNL     1      31.673  -0.245   9.074  1.00  0.00     0.188 HD
ENDBRANCH   6  26
TORSDOF 7
ENDMDL
MODEL 5
REMARK VINA RESULT: -7.467318049      1.264      1.839
REMARK  7 active torsions:
REMARK  status: ('A' for Active; 'I' for Inactive)
REMARK    1  A    between atoms: C2_2  and  C3_3 
REMARK    2  A    between atoms: C3_3  and  C4_5 
REMARK    3  A    between atoms: C3_3  and  C15_31 
REMARK    4  A    between atoms: N1_7  and  C6_9 
REMARK    5  A    between atoms: C6_9  and  C7_10 
REMARK    6  A    between atoms: C6_9  and  C14_27 
REMARK    7  A    between atoms: C10_15  and  C11_16 
ROOT
HETATM    1  C7  UNL     1      28.469   1.349   5.582  1.00  0.00     0.109 A 
HETATM    2  N2  UNL     1      29.588   1.299   4.918  1.00  0.00    -0.354 N 
ATOM      3  H2  UNL     1      29.532   1.518   3.923  1.00  0.00     0.166 HD
HETATM    4  C8  UNL     1      30.802   0.995   5.388  1.00  0.00     0.092 A 
HETATM    5  C9  UNL     1      30.818   0.701   6.755  1.00  0.00     0.050 A 
HETATM    6  C10 UNL     1      29.654   0.742   7.509  1.00  0.00     0.080 A 
HETATM    7  N6  UNL     1      28.500   1.068   6.902  1.00  0.00    -0.341 N 
ATOM      8  H6  UNL     1      27.637   1.103   7.446  1.00  0.00     0.167 HD
ENDROOT
BRANCH   1   9
HETATM    9  C6  UNL     1      27.166   1.683   4.881  1.00  0.00     0.204 C 
BRANCH   9  10
HETATM   10  N1  UNL     1      27.090   3.028   4.624  1.00  0.00    -0.379 N 
HETATM   11  C4  UNL     1      26.344   4.043   5.084  1.00  0.00     0.028 C 
HETATM   12  C5  UNL     1      25.774   3.897   6.485  1.00  0.00     0.067 C 
ATOM     13  H1  UNL     1      27.760   3.328   3.916  1.00  0.00     0.160 HD
BRANCH  11  14
HETATM   14  C3  UNL     1      25.322   4.745   4.219  1.00  0.00     0.237 C 
HETATM   15  F1  UNL     1      25.513   4.736   2.879  1.00  0.00    -0.227 F 
BRANCH  14  16
HETATM   16  C2  UNL     1      25.092   6.156   4.688  1.00  0.00     0.055 C 
HETATM   17  C1  UNL     1      24.763   7.158   3.614  1.00  0.00     0.009 C 
ENDBRANCH  14  16
BRANCH  14  18
HETATM   18  C15 UNL     1      23.960   4.005   4.453  1.00  0.00     0.428 C 
HETATM   19  F2  UNL     1      24.117   2.879   5.189  1.00  0.00    -0.167 F 
HETATM   20  F3  UNL     1      23.154   4.843   5.176  1.00  0.00    -0.167 F 
HETATM   21  F4  UNL     1      23.397   3.661   3.241  1.00  0.00    -0.167 F 
ENDBRANCH  14  18
ENDBRANCH  11  14
ENDBRANCH   9  10
BRANCH   9  22
HETATM   22  C14 UNL     1      26.960   0.638   3.855  1.00  0.00     0.215 C 
HETATM   23 CL1  UNL     1      25.348   0.940   3.034  1.00  0.00    -0.081 Cl
HETATM   24 CL2  UNL     1      26.692  -0.979   4.636  1.00  0.00    -0.081 Cl
HETATM   25 CL3  UNL     1      28.183   0.401   2.629  1.00  0.00    -0.081 Cl
ENDBRANCH   9  22
ENDBRANCH   1   9
BRANCH   6  26
HETATM   26  C11 UNL     1      29.741   0.469   8.951  1.00  0.00     0.148 A 
HETATM   27  N3  UNL     1      28.841   0.739   9.878  1.00  0.00    -0.328 N 
HETATM   28  C12 UNL     1      29.249   0.367  11.095  1.00  0.00     0.093 A 
ATOM     29  H3  UNL     1      27.941   1.179   9.689  1.00  0.00     0.169 HD
HETATM   30  C13 UNL     1      28.586   0.473  12.404  1.00  0.00     0.090 C 
HETATM   31  N4  UNL     1      30.483  -0.170  10.899  1.00  0.00    -0.288 N 
HETATM   32  N5  UNL     1      30.762  -0.095   9.581  1.00  0.00    -0.282 N 
ATOM     33  H4  UNL     1      31.090  -0.559  11.621  1.00  0.00     0.188 HD
ATOM     34  H5  UNL     1      31.622  -0.420   9.139  1.00  0.00     0.188 HD
ENDBRANCH   6  26
TORSDOF 7
ENDMDL
