MODEL 1
REMARK VINA RESULT: -9.484163984      0.000      0.000
REMARK  9 active torsions:
REMARK  status: ('A' for Active; 'I' for Inactive)
REMARK    1  A    between atoms: N1_1  and  C1_4 
REMARK    2  A    between atoms: C2_9  and  S1_10 
REMARK    3  A    between atoms: S1_10  and  C3_11 
REMARK    4  A    between atoms: C3_11  and  C4_12 
REMARK    5  A    between atoms: C4_12  and  O1_13 
REMARK    6  A    between atoms: C4_12  and  C5_15 
REMARK    7  A    between atoms: C5_15  and  N4_16 
REMARK    8  A    between atoms: C8_19  and  C9_20 
REMARK    9  A    between atoms: C9_20  and  C10_21 
ROOT
HETATM    1  N4  UNL     1      29.102   1.394   5.621  1.00  0.00    -0.410 N 
HETATM    2  C6  UNL     1      28.635   0.606   4.529  1.00  0.00     0.117 C 
HETATM    3  C7  UNL     1      28.804   1.316   3.209  1.00  0.00     0.024 C 
HETATM    4  C8  UNL     1      28.183   2.678   3.178  1.00  0.00    -0.007 C 
HETATM    5  C16 UNL     1      28.418   3.369   4.515  1.00  0.00     0.024 C 
HETATM    6  C17 UNL     1      29.576   2.688   5.265  1.00  0.00     0.117 C 
ENDROOT
BRANCH   1   7
HETATM    7  C5  UNL     1      29.832   0.684   6.611  1.00  0.00     0.149 C 
BRANCH   7   8
HETATM    8  C4  UNL     1      30.237   1.464   7.819  1.00  0.00     0.145 C 
BRANCH   8   9
HETATM    9  C3  UNL     1      30.969   0.552   8.767  1.00  0.00     0.114 C 
BRANCH   9  10
HETATM   10  S1  UNL     1      29.826  -0.680   9.494  1.00  0.00    -0.101 SA
BRANCH  10  11
HETATM   11  C2  UNL     1      29.695  -0.247  11.240  1.00  0.00     0.130 A 
HETATM   12  N3  UNL     1      28.649   0.182  11.922  1.00  0.00    -0.286 N 
HETATM   13  N2  UNL     1      28.744   0.442  13.159  1.00  0.00    -0.279 N 
ATOM     14  H3  UNL     1      27.754   0.305  11.448  1.00  0.00     0.188 HD
HETATM   15  C1  UNL     1      29.926   0.273  13.762  1.00  0.00     0.159 A 
ATOM     16  H2  UNL     1      27.934   0.773  13.683  1.00  0.00     0.189 HD
HETATM   17  S2  UNL     1      30.902  -0.278  12.470  1.00  0.00    -0.027 SA
BRANCH  15  18
HETATM   18  N1  UNL     1      30.220   0.488  15.026  1.00  0.00    -0.379 N 
ATOM     19  H12 UNL     1      29.758   1.069  15.726  1.00  0.00     0.158 HD
ATOM     20  H11 UNL     1      30.995   0.096  15.560  1.00  0.00     0.158 HD
ENDBRANCH  15  18
ENDBRANCH  10  11
ENDBRANCH   9  10
ENDBRANCH   8   9
BRANCH   8  21
HETATM   21  O1  UNL     1      29.121   1.979   8.465  1.00  0.00    -0.393 OA
ATOM     22  H1  UNL     1      29.350   2.814   8.855  1.00  0.00     0.210 HD
ENDBRANCH   8  21
ENDBRANCH   7   8
ENDBRANCH   1   7
BRANCH   4  23
HETATM   23  C9  UNL     1      26.683   2.629   2.948  1.00  0.00     0.045 C 
BRANCH  23  24
HETATM   24  C10 UNL     1      26.027   3.926   3.239  1.00  0.00    -0.033 A 
HETATM   25  C11 UNL     1      26.733   5.095   3.056  1.00  0.00     0.012 A 
HETATM   26  C12 UNL     1      26.150   6.338   3.320  1.00  0.00     0.046 A 
HETATM   27  C13 UNL     1      24.845   6.395   3.772  1.00  0.00     0.156 A 
HETATM   28  F1  UNL     1      24.251   7.581   4.037  1.00  0.00    -0.203 F 
HETATM   29  C14 UNL     1      24.127   5.234   3.960  1.00  0.00     0.176 A 
HETATM   30  F2  UNL     1      22.836   5.262   4.405  1.00  0.00    -0.201 F 
HETATM   31  C15 UNL     1      24.729   4.003   3.691  1.00  0.00     0.082 A 
HETATM   32 CL1  UNL     1      23.773   2.562   3.946  1.00  0.00    -0.080 Cl
ENDBRANCH  23  24
ENDBRANCH   4  23
TORSDOF 9
ENDMDL
MODEL 2
REMARK VINA RESULT: -9.375214657      1.238      1.272
REMARK  9 active torsions:
REMARK  status: ('A' for Active; 'I' for Inactive)
REMARK    1  A    between atoms: N1_1  and  C1_4 
REMARK    2  A    between atoms: C2_9  and  S1_10 
REMARK    3  A    between atoms: S1_10  and  C3_11 
REMARK    4  A    between atoms: C3_11  and  C4_12 
REMARK    5  A    between atoms: C4_12  and  O1_13 
REMARK    6  A    between atoms: C4_12  and  C5_15 
REMARK    7  A    between atoms: C5_15  and  N4_16 
REMARK    8  A    between atoms: C8_19  and  C9_20 
REMARK    9  A    between atoms: C9_20  and  C10_21 
ROOT
HETATM    1  N4  UNL     1      29.416   1.324   5.421  1.00  0.00    -0.410 N 
HETATM    2  C6  UNL     1      28.792   0.558   4.394  1.00  0.00     0.117 C 
HETATM    3  C7  UNL     1      28.719   1.316   3.092  1.00  0.00     0.024 C 
HETATM    4  C8  UNL     1      28.066   2.658   3.216  1.00  0.00    -0.007 C 
HETATM    5  C16 UNL     1      28.504   3.311   4.520  1.00  0.00     0.024 C 
HETATM    6  C17 UNL     1      29.789   2.644   5.041  1.00  0.00     0.117 C 
ENDROOT
BRANCH   1   7
HETATM    7  C5  UNL     1      30.320   0.606   6.248  1.00  0.00     0.149 C 
BRANCH   7   8
HETATM    8  C4  UNL     1      29.955   0.504   7.692  1.00  0.00     0.145 C 
BRANCH   8   9
HETATM    9  C3  UNL     1      29.746   1.890   8.242  1.00  0.00     0.114 C 
BRANCH   9  10
HETATM   10  S1  UNL     1      28.310   1.927   9.378  1.00  0.00    -0.101 SA
BRANCH  10  11
HETATM   11  C2  UNL     1      28.845   1.052  10.862  1.00  0.00     0.130 A 
HETATM   12  N3  UNL     1      29.943   0.350  11.073  1.00  0.00    -0.286 N 
HETATM   13  N2  UNL     1      30.154  -0.204  12.192  1.00  0.00    -0.279 N 
ATOM     14  H3  UNL     1      30.630   0.251  10.325  1.00  0.00     0.188 HD
HETATM   15  C1  UNL     1      29.241  -0.064  13.161  1.00  0.00     0.159 A 
ATOM     16  H2  UNL     1      31.003  -0.747  12.352  1.00  0.00     0.189 HD
HETATM   17  S2  UNL     1      28.060   0.904  12.389  1.00  0.00    -0.027 SA
BRANCH  15  18
HETATM   18  N1  UNL     1      29.281  -0.558  14.379  1.00  0.00    -0.379 N 
ATOM     19  H12 UNL     1      28.578  -1.072  14.910  1.00  0.00     0.158 HD
ATOM     20  H11 UNL     1      30.054  -0.517  15.043  1.00  0.00     0.158 HD
ENDBRANCH  15  18
ENDBRANCH  10  11
ENDBRANCH   9  10
ENDBRANCH   8   9
BRANCH   8  21
HETATM   21  O1  UNL     1      30.968  -0.116   8.411  1.00  0.00    -0.393 OA
ATOM     22  H1  UNL     1      30.962  -1.045   8.212  1.00  0.00     0.210 HD
ENDBRANCH   8  21
ENDBRANCH   7   8
ENDBRANCH   1   7
BRANCH   4  23
HETATM   23  C9  UNL     1      26.550   2.569   3.237  1.00  0.00     0.045 C 
BRANCH  23  24
HETATM   24  C10 UNL     1      25.912   3.894   3.412  1.00  0.00    -0.033 A 
HETATM   25  C11 UNL     1      26.660   5.034   3.216  1.00  0.00     0.012 A 
HETATM   26  C12 UNL     1      26.094   6.304   3.371  1.00  0.00     0.046 A 
HETATM   27  C13 UNL     1      24.764   6.416   3.729  1.00  0.00     0.156 A 
HETATM   28  F1  UNL     1      24.185   7.628   3.887  1.00  0.00    -0.203 F 
HETATM   29  C14 UNL     1      24.003   5.285   3.929  1.00  0.00     0.176 A 
HETATM   30  F2  UNL     1      22.687   5.367   4.282  1.00  0.00    -0.201 F 
HETATM   31  C15 UNL     1      24.588   4.026   3.768  1.00  0.00     0.082 A 
HETATM   32 CL1  UNL     1      23.579   2.625   4.035  1.00  0.00    -0.080 Cl
ENDBRANCH  23  24
ENDBRANCH   4  23
TORSDOF 9
ENDMDL
MODEL 3
REMARK VINA RESULT: -8.972448801      1.329      1.680
REMARK  9 active torsions:
REMARK  status: ('A' for Active; 'I' for Inactive)
REMARK    1  A    between atoms: N1_1  and  C1_4 
REMARK    2  A    between atoms: C2_9  and  S1_10 
REMARK    3  A    between atoms: S1_10  and  C3_11 
REMARK    4  A    between atoms: C3_11  and  C4_12 
REMARK    5  A    between atoms: C4_12  and  O1_13 
REMARK    6  A    between atoms: C4_12  and  C5_15 
REMARK    7  A    between atoms: C5_15  and  N4_16 
REMARK    8  A    between atoms: C8_19  and  C9_20 
REMARK    9  A    between atoms: C9_20  and  C10_21 
ROOT
HETATM    1  N4  UNL     1      29.379   1.250   5.093  1.00  0.00    -0.410 N 
HETATM    2  C6  UNL     1      28.712   2.482   5.351  1.00  0.00     0.117 C 
HETATM    3  C7  UNL     1      27.216   2.352   5.217  1.00  0.00     0.024 C 
HETATM    4  C8  UNL     1      26.779   1.784   3.902  1.00  0.00    -0.007 C 
HETATM    5  C16 UNL     1      27.738   0.675   3.491  1.00  0.00     0.024 C 
HETATM    6  C17 UNL     1      28.526   0.175   4.714  1.00  0.00     0.117 C 
ENDROOT
BRANCH   1   7
HETATM    7  C5  UNL     1      30.454   0.947   5.970  1.00  0.00     0.149 C 
BRANCH   7   8
HETATM    8  C4  UNL     1      30.088   0.667   7.391  1.00  0.00     0.145 C 
BRANCH   8   9
HETATM    9  C3  UNL     1      29.873   1.975   8.106  1.00  0.00     0.114 C 
BRANCH   9  10
HETATM   10  S1  UNL     1      28.407   1.881   9.200  1.00  0.00    -0.101 SA
BRANCH  10  11
HETATM   11  C2  UNL     1      28.969   1.032  10.690  1.00  0.00     0.130 A 
HETATM   12  N3  UNL     1      30.071   0.334  10.892  1.00  0.00    -0.286 N 
HETATM   13  N2  UNL     1      30.303  -0.199  12.018  1.00  0.00    -0.279 N 
ATOM     14  H3  UNL     1      30.745   0.224  10.134  1.00  0.00     0.188 HD
HETATM   15  C1  UNL     1      29.408  -0.042  13.000  1.00  0.00     0.159 A 
ATOM     16  H2  UNL     1      31.154  -0.738  12.172  1.00  0.00     0.189 HD
HETATM   17  S2  UNL     1      28.212   0.911  12.233  1.00  0.00    -0.027 SA
BRANCH  15  18
HETATM   18  N1  UNL     1      29.469  -0.516  14.226  1.00  0.00    -0.379 N 
ATOM     19  H12 UNL     1      29.869  -1.383  14.583  1.00  0.00     0.158 HD
ATOM     20  H11 UNL     1      29.114  -0.083  15.078  1.00  0.00     0.158 HD
ENDBRANCH  15  18
ENDBRANCH  10  11
ENDBRANCH   9  10
ENDBRANCH   8   9
BRANCH   8  21
HETATM   21  O1  UNL     1      31.104  -0.031   8.030  1.00  0.00    -0.393 OA
ATOM     22  H1  UNL     1      31.599  -0.515   7.379  1.00  0.00     0.210 HD
ENDBRANCH   8  21
ENDBRANCH   7   8
ENDBRANCH   1   7
BRANCH   4  23
HETATM   23  C9  UNL     1      26.778   2.821   2.792  1.00  0.00     0.045 C 
BRANCH  23  24
HETATM   24  C10 UNL     1      26.058   4.057   3.179  1.00  0.00    -0.033 A 
HETATM   25  C11 UNL     1      26.730   5.260   3.169  1.00  0.00     0.012 A 
HETATM   26  C12 UNL     1      26.085   6.448   3.528  1.00  0.00     0.046 A 
HETATM   27  C13 UNL     1      24.755   6.415   3.900  1.00  0.00     0.156 A 
HETATM   28  F1  UNL     1      24.102   7.546   4.252  1.00  0.00    -0.203 F 
HETATM   29  C14 UNL     1      24.070   5.220   3.915  1.00  0.00     0.176 A 
HETATM   30  F2  UNL     1      22.755   5.158   4.277  1.00  0.00    -0.201 F 
HETATM   31  C15 UNL     1      24.733   4.044   3.553  1.00  0.00     0.082 A 
HETATM   32 CL1  UNL     1      23.818   2.556   3.590  1.00  0.00    -0.080 Cl
ENDBRANCH  23  24
ENDBRANCH   4  23
TORSDOF 9
ENDMDL
MODEL 4
REMARK VINA RESULT: -8.969746946      1.858      2.470
REMARK  9 active torsions:
REMARK  status: ('A' for Active; 'I' for Inactive)
REMARK    1  A    between atoms: N1_1  and  C1_4 
REMARK    2  A    between atoms: C2_9  and  S1_10 
REMARK    3  A    between atoms: S1_10  and  C3_11 
REMARK    4  A    between atoms: C3_11  and  C4_12 
REMARK    5  A    between atoms: C4_12  and  O1_13 
REMARK    6  A    between atoms: C4_12  and  C5_15 
REMARK    7  A    between atoms: C5_15  and  N4_16 
REMARK    8  A    between atoms: C8_19  and  C9_20 
REMARK    9  A    between atoms: C9_20  and  C10_21 
ROOT
HETATM    1  N4  UNL     1      29.696   0.916   5.008  1.00  0.00    -0.410 N 
HETATM    2  C6  UNL     1      28.406   1.469   5.253  1.00  0.00     0.117 C 
HETATM    3  C7  UNL     1      27.318   0.695   4.552  1.00  0.00     0.024 C 
HETATM    4  C8  UNL     1      27.550   0.534   3.081  1.00  0.00    -0.007 C 
HETATM    5  C16 UNL     1      29.030   0.276   2.831  1.00  0.00     0.024 C 
HETATM    6  C17 UNL     1      29.711  -0.201   4.126  1.00  0.00     0.117 C 
ENDROOT
BRANCH   1   7
HETATM    7  C5  UNL     1      30.556   0.864   6.137  1.00  0.00     0.149 C 
BRANCH   7   8
HETATM    8  C4  UNL     1      29.901   0.611   7.455  1.00  0.00     0.145 C 
BRANCH   8   9
HETATM    9  C3  UNL     1      29.863   1.898   8.236  1.00  0.00     0.114 C 
BRANCH   9  10
HETATM   10  S1  UNL     1      28.394   1.949   9.329  1.00  0.00    -0.101 SA
BRANCH  10  11
HETATM   11  C2  UNL     1      28.865   1.040  10.814  1.00  0.00     0.130 A 
HETATM   12  N3  UNL     1      29.911   0.264  11.027  1.00  0.00    -0.286 N 
HETATM   13  N2  UNL     1      30.081  -0.302  12.148  1.00  0.00    -0.279 N 
ATOM     14  H3  UNL     1      30.591   0.118  10.280  1.00  0.00     0.188 HD
HETATM   15  C1  UNL     1      29.179  -0.098  13.114  1.00  0.00     0.159 A 
ATOM     16  H2  UNL     1      30.890  -0.901  12.309  1.00  0.00     0.189 HD
HETATM   17  S2  UNL     1      28.068   0.947  12.340  1.00  0.00    -0.027 SA
BRANCH  15  18
HETATM   18  N1  UNL     1      29.182  -0.594  14.333  1.00  0.00    -0.379 N 
ATOM     19  H12 UNL     1      29.896  -1.123  14.833  1.00  0.00     0.158 HD
ATOM     20  H11 UNL     1      28.440  -0.537  15.029  1.00  0.00     0.158 HD
ENDBRANCH  15  18
ENDBRANCH  10  11
ENDBRANCH   9  10
ENDBRANCH   8   9
BRANCH   8  21
HETATM   21  O1  UNL     1      30.613  -0.333   8.182  1.00  0.00    -0.393 OA
ATOM     22  H1  UNL     1      30.301  -1.200   7.948  1.00  0.00     0.210 HD
ENDBRANCH   8  21
ENDBRANCH   7   8
ENDBRANCH   1   7
BRANCH   4  23
HETATM   23  C9  UNL     1      27.163   1.772   2.291  1.00  0.00     0.045 C 
BRANCH  23  24
HETATM   24  C10 UNL     1      26.045   2.513   2.921  1.00  0.00    -0.033 A 
HETATM   25  C11 UNL     1      24.831   1.884   3.092  1.00  0.00     0.012 A 
HETATM   26  C12 UNL     1      23.751   2.550   3.682  1.00  0.00     0.046 A 
HETATM   27  C13 UNL     1      23.905   3.858   4.100  1.00  0.00     0.156 A 
HETATM   28  F1  UNL     1      22.882   4.530   4.674  1.00  0.00    -0.203 F 
HETATM   29  C14 UNL     1      25.113   4.500   3.936  1.00  0.00     0.176 A 
HETATM   30  F2  UNL     1      25.292   5.791   4.340  1.00  0.00    -0.201 F 
HETATM   31  C15 UNL     1      26.179   3.817   3.344  1.00  0.00     0.082 A 
HETATM   32 CL1  UNL     1      27.688   4.677   3.159  1.00  0.00    -0.080 Cl
ENDBRANCH  23  24
ENDBRANCH   4  23
TORSDOF 9
ENDMDL
MODEL 5
REMARK VINA RESULT: -8.599515260      1.770      2.362
REMARK  9 active torsions:
REMARK  status: ('A' for Active; 'I' for Inactive)
REMARK    1  A    between atoms: N1_1  and  C1_4 
REMARK    2  A    between atoms: C2_9  and  S1_10 
REMARK    3  A    between atoms: S1_10  and  C3_11 
REMARK    4  A    between atoms: C3_11  and  C4_12 
REMARK    5  A    between atoms: C4_12  and  O1_13 
REMARK    6  A    between atoms: C4_12  and  C5_15 
REMARK    7  A    between atoms: C5_15  and  N4_16 
REMARK    8  A    between atoms: C8_19  and  C9_20 
REMARK    9  A    between atoms: C9_20  and  C10_21 
ROOT
HETATM    1  N4  UNL     1      29.145   1.169   5.013  1.00  0.00    -0.410 N 
HETATM    2  C6  UNL     1      28.419   2.372   5.250  1.00  0.00     0.117 C 
HETATM    3  C7  UNL     1      26.928   2.152   5.185  1.00  0.00     0.024 C 
HETATM    4  C8  UNL     1      26.473   1.505   3.913  1.00  0.00    -0.007 C 
HETATM    5  C16 UNL     1      27.477   0.435   3.507  1.00  0.00     0.024 C 
HETATM    6  C17 UNL     1      28.341   0.033   4.716  1.00  0.00     0.117 C 
ENDROOT
BRANCH   1   7
HETATM    7  C5  UNL     1      30.270   0.966   5.856  1.00  0.00     0.149 C 
BRANCH   7   8
HETATM    8  C4  UNL     1      29.977   0.694   7.295  1.00  0.00     0.145 C 
BRANCH   8   9
HETATM    9  C3  UNL     1      29.825   2.006   8.019  1.00  0.00     0.114 C 
BRANCH   9  10
HETATM   10  S1  UNL     1      28.380   1.962   9.144  1.00  0.00    -0.101 SA
BRANCH  10  11
HETATM   11  C2  UNL     1      28.941   1.084  10.616  1.00  0.00     0.130 A 
HETATM   12  N3  UNL     1      30.034   0.368  10.801  1.00  0.00    -0.286 N 
HETATM   13  N2  UNL     1      30.267  -0.185  11.917  1.00  0.00    -0.279 N 
ATOM     14  H3  UNL     1      30.700   0.258  10.036  1.00  0.00     0.188 HD
HETATM   15  C1  UNL     1      29.382  -0.029  12.908  1.00  0.00     0.159 A 
ATOM     16  H2  UNL     1      31.112  -0.739  12.057  1.00  0.00     0.189 HD
HETATM   17  S2  UNL     1      28.194   0.952  12.164  1.00  0.00    -0.027 SA
BRANCH  15  18
HETATM   18  N1  UNL     1      29.446  -0.520  14.127  1.00  0.00    -0.379 N 
ATOM     19  H12 UNL     1      30.248  -0.820  14.680  1.00  0.00     0.158 HD
ATOM     20  H11 UNL     1      28.673  -0.698  14.767  1.00  0.00     0.158 HD
ENDBRANCH  15  18
ENDBRANCH  10  11
ENDBRANCH   9  10
ENDBRANCH   8   9
BRANCH   8  21
HETATM   21  O1  UNL     1      31.013  -0.022   7.879  1.00  0.00    -0.393 OA
ATOM     22  H1  UNL     1      31.839   0.308   7.547  1.00  0.00     0.210 HD
ENDBRANCH   8  21
ENDBRANCH   7   8
ENDBRANCH   1   7
BRANCH   4  23
HETATM   23  C9  UNL     1      26.367   2.491   2.763  1.00  0.00     0.045 C 
BRANCH  23  24
HETATM   24  C10 UNL     1      25.722   3.761   3.171  1.00  0.00    -0.033 A 
HETATM   25  C11 UNL     1      24.394   3.757   3.537  1.00  0.00     0.012 A 
HETATM   26  C12 UNL     1      23.750   4.935   3.927  1.00  0.00     0.046 A 
HETATM   27  C13 UNL     1      24.456   6.123   3.945  1.00  0.00     0.156 A 
HETATM   28  F1  UNL     1      23.863   7.279   4.318  1.00  0.00    -0.203 F 
HETATM   29  C14 UNL     1      25.785   6.143   3.581  1.00  0.00     0.176 A 
HETATM   30  F2  UNL     1      26.506   7.302   3.590  1.00  0.00    -0.201 F 
HETATM   31  C15 UNL     1      26.409   4.954   3.194  1.00  0.00     0.082 A 
HETATM   32 CL1  UNL     1      28.095   5.037   2.742  1.00  0.00    -0.080 Cl
ENDBRANCH  23  24
ENDBRANCH   4  23
TORSDOF 9
ENDMDL
