MODEL 1
REMARK VINA RESULT: -9.283010150      0.000      0.000
REMARK  9 active torsions:
REMARK  status: ('A' for Active; 'I' for Inactive)
REMARK    1  A    between atoms: N1_1  and  C1_4 
REMARK    2  A    between atoms: C2_7  and  C3_8 
REMARK    3  A    between atoms: C3_8  and  C4_9 
REMARK    4  A    between atoms: C6_13  and  N4_14 
REMARK    5  A    between atoms: N4_14  and  C7_16 
REMARK    6  A    between atoms: C7_16  and  C8_17 
REMARK    7  A    between atoms: C12_25  and  C13_26 
REMARK    8  A    between atoms: C18_32  and  O1_33 
REMARK    9  A    between atoms: O1_33  and  C19_34 
ROOT
HETATM    1  C1  UNL     1      29.841   0.953   2.707  1.00  0.00     0.222 A 
HETATM    2  N2  UNL     1      30.279   1.607   3.787  1.00  0.00    -0.323 N 
ATOM      3  H2  UNL     1      31.234   1.602   4.143  1.00  0.00     0.169 HD
HETATM    4  C2  UNL     1      29.215   2.289   4.333  1.00  0.00     0.053 A 
HETATM    5  C12 UNL     1      28.131   2.034   3.556  1.00  0.00     0.115 A 
HETATM    6  O2  UNL     1      28.588   1.205   2.578  1.00  0.00    -0.277 OA
ENDROOT
BRANCH   4   7
HETATM    7  C3  UNL     1      29.348   3.027   5.588  1.00  0.00     0.120 C 
BRANCH   7   8
HETATM    8  C4  UNL     1      29.555   2.039   6.718  1.00  0.00     0.048 A 
HETATM    9  C5  UNL     1      29.523   2.458   8.020  1.00  0.00     0.133 A 
HETATM   10  N3  UNL     1      29.713   1.547   9.023  1.00  0.00    -0.199 N 
HETATM   11  C6  UNL     1      29.929   0.253   8.750  1.00  0.00     0.692 A 
ATOM     12  H3  UNL     1      29.690   1.857   9.995  1.00  0.00     0.183 HD
HETATM   13  N5  UNL     1      29.955  -0.124   7.458  1.00  0.00    -0.132 N 
HETATM   14  N6  UNL     1      29.774   0.735   6.461  1.00  0.00    -0.289 N 
ATOM     15  H5  UNL     1      30.121  -1.106   7.237  1.00  0.00     0.205 HD
ATOM     16  H6  UNL     1      29.801   0.406   5.497  1.00  0.00     0.187 HD
BRANCH  11  17
HETATM   17  N4  UNL     1      30.110  -0.658   9.675  1.00  0.00    -0.224 N 
ATOM     18  H4  UNL     1      30.844  -1.362   9.596  1.00  0.00     0.177 HD
BRANCH  17  19
HETATM   19  C7  UNL     1      29.223  -0.618  10.808  1.00  0.00     0.142 C 
BRANCH  19  20
HETATM   20  C8  UNL     1      29.677   0.210  11.952  1.00  0.00     0.004 C 
HETATM   21  C9  UNL     1      28.980  -0.050  13.274  1.00  0.00     0.006 C 
HETATM   22  C10 UNL     1      30.273  -0.630  13.792  1.00  0.00     0.001 C 
HETATM   23  C11 UNL     1      30.996  -0.070  12.582  1.00  0.00     0.006 C 
ENDBRANCH  19  20
ENDBRANCH  17  19
ENDBRANCH  11  17
ENDBRANCH   7   8
ENDBRANCH   4   7
BRANCH   5  24
HETATM   24  C13 UNL     1      26.736   2.434   3.596  1.00  0.00     0.035 A 
HETATM   25  C14 UNL     1      26.460   3.819   3.628  1.00  0.00     0.041 A 
HETATM   26  C15 UNL     1      25.220   4.345   3.750  1.00  0.00     0.035 A 
HETATM   27 CL1  UNL     1      24.993   6.093   3.785  1.00  0.00    -0.084 Cl
HETATM   28  C16 UNL     1      24.137   3.515   3.848  1.00  0.00     0.026 A 
HETATM   29  C17 UNL     1      24.345   2.171   3.822  1.00  0.00     0.039 A 
HETATM   30  C18 UNL     1      25.654   1.633   3.697  1.00  0.00     0.088 A 
BRANCH  30  31
HETATM   31  O1  UNL     1      25.793   0.284   3.692  1.00  0.00    -0.289 OA
BRANCH  31  32
HETATM   32  C19 UNL     1      26.737  -0.532   4.263  1.00  0.00     0.505 C 
HETATM   33  F1  UNL     1      27.409  -1.215   3.232  1.00  0.00    -0.184 F 
HETATM   34  F2  UNL     1      26.094  -1.482   5.052  1.00  0.00    -0.184 F 
ENDBRANCH  31  32
ENDBRANCH  30  31
ENDBRANCH   5  24
BRANCH   1  35
HETATM   35  N1  UNL     1      30.612   0.202   1.958  1.00  0.00    -0.365 N 
ATOM     36  H12 UNL     1      31.488  -0.259   2.199  1.00  0.00     0.159 HD
ATOM     37  H11 UNL     1      30.404  -0.018   0.983  1.00  0.00     0.159 HD
ENDBRANCH   1  35
TORSDOF 9
ENDMDL
MODEL 2
REMARK VINA RESULT: -9.248225778      1.042      1.444
REMARK  9 active torsions:
REMARK  status: ('A' for Active; 'I' for Inactive)
REMARK    1  A    between atoms: N1_1  and  C1_4 
REMARK    2  A    between atoms: C2_7  and  C3_8 
REMARK    3  A    between atoms: C3_8  and  C4_9 
REMARK    4  A    between atoms: C6_13  and  N4_14 
REMARK    5  A    between atoms: N4_14  and  C7_16 
REMARK    6  A    between atoms: C7_16  and  C8_17 
REMARK    7  A    between atoms: C12_25  and  C13_26 
REMARK    8  A    between atoms: C18_32  and  O1_33 
REMARK    9  A    between atoms: O1_33  and  C19_34 
ROOT
HETATM    1  C1  UNL     1      29.771   1.157   3.190  1.00  0.00     0.222 A 
HETATM    2  N2  UNL     1      30.280   1.692   4.304  1.00  0.00    -0.323 N 
ATOM      3  H2  UNL     1      31.191   1.479   4.708  1.00  0.00     0.169 HD
HETATM    4  C2  UNL     1      29.360   2.583   4.809  1.00  0.00     0.053 A 
HETATM    5  C12 UNL     1      28.290   2.573   3.973  1.00  0.00     0.115 A 
HETATM    6  O2  UNL     1      28.610   1.674   3.002  1.00  0.00    -0.277 OA
ENDROOT
BRANCH   4   7
HETATM    7  C3  UNL     1      29.579   3.264   6.083  1.00  0.00     0.120 C 
BRANCH   7   8
HETATM    8  C4  UNL     1      29.570   2.236   7.197  1.00  0.00     0.048 A 
HETATM    9  C5  UNL     1      30.027   0.967   6.972  1.00  0.00     0.133 A 
HETATM   10  N3  UNL     1      30.008   0.057   7.994  1.00  0.00    -0.199 N 
HETATM   11  C6  UNL     1      29.551   0.390   9.208  1.00  0.00     0.692 A 
ATOM     12  H3  UNL     1      30.347  -0.891   7.829  1.00  0.00     0.183 HD
HETATM   13  N5  UNL     1      29.108   1.648   9.393  1.00  0.00    -0.132 N 
HETATM   14  N6  UNL     1      29.113   2.555   8.423  1.00  0.00    -0.289 N 
ATOM     15  H5  UNL     1      28.755   1.914  10.313  1.00  0.00     0.205 HD
ATOM     16  H6  UNL     1      28.769   3.497   8.607  1.00  0.00     0.187 HD
BRANCH  11  17
HETATM   17  N4  UNL     1      29.518  -0.443  10.220  1.00  0.00    -0.224 N 
ATOM     18  H4  UNL     1      28.810  -1.175  10.287  1.00  0.00     0.177 HD
BRANCH  17  19
HETATM   19  C7  UNL     1      30.529  -0.277  11.231  1.00  0.00     0.142 C 
BRANCH  19  20
HETATM   20  C8  UNL     1      30.073   0.335  12.503  1.00  0.00     0.004 C 
HETATM   21  C9  UNL     1      28.582   0.273  12.769  1.00  0.00     0.006 C 
HETATM   22  C10 UNL     1      28.866  -0.699  13.889  1.00  0.00     0.001 C 
HETATM   23  C11 UNL     1      30.342  -0.364  13.789  1.00  0.00     0.006 C 
ENDBRANCH  19  20
ENDBRANCH  17  19
ENDBRANCH  11  17
ENDBRANCH   7   8
ENDBRANCH   4   7
BRANCH   5  24
HETATM   24  C13 UNL     1      27.013   3.265   3.949  1.00  0.00     0.035 A 
HETATM   25  C14 UNL     1      27.020   4.626   3.571  1.00  0.00     0.041 A 
HETATM   26  C15 UNL     1      25.927   5.423   3.581  1.00  0.00     0.035 A 
HETATM   27 CL1  UNL     1      26.054   7.113   3.093  1.00  0.00    -0.084 Cl
HETATM   28  C16 UNL     1      24.719   4.916   3.973  1.00  0.00     0.026 A 
HETATM   29  C17 UNL     1      24.655   3.610   4.348  1.00  0.00     0.039 A 
HETATM   30  C18 UNL     1      25.811   2.784   4.335  1.00  0.00     0.088 A 
BRANCH  30  31
HETATM   31  O1  UNL     1      25.681   1.495   4.734  1.00  0.00    -0.289 OA
BRANCH  31  32
HETATM   32  C19 UNL     1      25.700   0.320   4.023  1.00  0.00     0.505 C 
HETATM   33  F1  UNL     1      26.841  -0.407   4.410  1.00  0.00    -0.184 F 
HETATM   34  F2  UNL     1      25.825   0.616   2.669  1.00  0.00    -0.184 F 
ENDBRANCH  31  32
ENDBRANCH  30  31
ENDBRANCH   5  24
BRANCH   1  35
HETATM   35  N1  UNL     1      30.402   0.264   2.466  1.00  0.00    -0.365 N 
ATOM     36  H12 UNL     1      30.990  -0.511   2.773  1.00  0.00     0.159 HD
ATOM     37  H11 UNL     1      30.372   0.246   1.447  1.00  0.00     0.159 HD
ENDBRANCH   1  35
TORSDOF 9
ENDMDL
MODEL 3
REMARK VINA RESULT: -9.066189014      2.561      3.207
REMARK  9 active torsions:
REMARK  status: ('A' for Active; 'I' for Inactive)
REMARK    1  A    between atoms: N1_1  and  C1_4 
REMARK    2  A    between atoms: C2_7  and  C3_8 
REMARK    3  A    between atoms: C3_8  and  C4_9 
REMARK    4  A    between atoms: C6_13  and  N4_14 
REMARK    5  A    between atoms: N4_14  and  C7_16 
REMARK    6  A    between atoms: C7_16  and  C8_17 
REMARK    7  A    between atoms: C12_25  and  C13_26 
REMARK    8  A    between atoms: C18_32  and  O1_33 
REMARK    9  A    between atoms: O1_33  and  C19_34 
ROOT
HETATM    1  C1  UNL     1      26.794  -0.311   4.226  1.00  0.00     0.222 A 
HETATM    2  N2  UNL     1      27.951   0.245   4.599  1.00  0.00    -0.323 N 
ATOM      3  H2  UNL     1      28.818  -0.255   4.798  1.00  0.00     0.169 HD
HETATM    4  C2  UNL     1      27.769   1.607   4.666  1.00  0.00     0.053 A 
HETATM    5  C12 UNL     1      26.480   1.858   4.321  1.00  0.00     0.115 A 
HETATM    6  O2  UNL     1      25.940   0.636   4.067  1.00  0.00    -0.277 OA
ENDROOT
BRANCH   4   7
HETATM    7  C3  UNL     1      28.828   2.494   5.142  1.00  0.00     0.120 C 
BRANCH   7   8
HETATM    8  C4  UNL     1      29.417   1.916   6.414  1.00  0.00     0.048 A 
HETATM    9  C5  UNL     1      29.150   2.492   7.625  1.00  0.00     0.133 A 
HETATM   10  N3  UNL     1      29.693   1.952   8.760  1.00  0.00    -0.199 N 
HETATM   11  C6  UNL     1      30.480   0.869   8.701  1.00  0.00     0.692 A 
ATOM     12  H3  UNL     1      29.497   2.380   9.664  1.00  0.00     0.183 HD
HETATM   13  N5  UNL     1      30.722   0.329   7.492  1.00  0.00    -0.132 N 
HETATM   14  N6  UNL     1      30.210   0.829   6.373  1.00  0.00    -0.289 N 
ATOM     15  H5  UNL     1      31.321  -0.495   7.433  1.00  0.00     0.205 HD
ATOM     16  H6  UNL     1      30.419   0.387   5.478  1.00  0.00     0.187 HD
BRANCH  11  17
HETATM   17  N4  UNL     1      31.017   0.311   9.758  1.00  0.00    -0.224 N 
ATOM     18  H4  UNL     1      32.026   0.319   9.912  1.00  0.00     0.177 HD
BRANCH  17  19
HETATM   19  C7  UNL     1      30.117  -0.313  10.692  1.00  0.00     0.142 C 
BRANCH  19  20
HETATM   20  C8  UNL     1      29.975   0.367  12.002  1.00  0.00     0.004 C 
HETATM   21  C9  UNL     1      28.562   0.469  12.544  1.00  0.00     0.006 C 
HETATM   22  C10 UNL     1      28.955  -0.507  13.628  1.00  0.00     0.001 C 
HETATM   23  C11 UNL     1      30.411  -0.331  13.241  1.00  0.00     0.006 C 
ENDBRANCH  19  20
ENDBRANCH  17  19
ENDBRANCH  11  17
ENDBRANCH   7   8
ENDBRANCH   4   7
BRANCH   5  24
HETATM   24  C13 UNL     1      25.675   3.061   4.207  1.00  0.00     0.035 A 
HETATM   25  C14 UNL     1      24.271   2.905   4.212  1.00  0.00     0.041 A 
HETATM   26  C15 UNL     1      23.393   3.918   4.031  1.00  0.00     0.035 A 
HETATM   27 CL1  UNL     1      21.658   3.605   4.051  1.00  0.00    -0.084 Cl
HETATM   28  C16 UNL     1      23.854   5.190   3.828  1.00  0.00     0.026 A 
HETATM   29  C17 UNL     1      25.198   5.398   3.814  1.00  0.00     0.039 A 
HETATM   30  C18 UNL     1      26.110   4.324   4.003  1.00  0.00     0.088 A 
BRANCH  30  31
HETATM   31  O1  UNL     1      27.437   4.598   3.964  1.00  0.00    -0.289 OA
BRANCH  31  32
HETATM   32  C19 UNL     1      28.146   5.551   3.275  1.00  0.00     0.505 C 
HETATM   33  F1  UNL     1      27.896   6.801   3.872  1.00  0.00    -0.184 F 
HETATM   34  F2  UNL     1      27.673   5.605   1.966  1.00  0.00    -0.184 F 
ENDBRANCH  31  32
ENDBRANCH  30  31
ENDBRANCH   5  24
BRANCH   1  35
HETATM   35  N1  UNL     1      26.631  -1.602   4.072  1.00  0.00    -0.365 N 
ATOM     36  H12 UNL     1      27.206  -2.368   4.425  1.00  0.00     0.159 HD
ATOM     37  H11 UNL     1      25.859  -2.011   3.546  1.00  0.00     0.159 HD
ENDBRANCH   1  35
TORSDOF 9
ENDMDL
MODEL 4
REMARK VINA RESULT: -8.962775660      1.855      2.154
REMARK  9 active torsions:
REMARK  status: ('A' for Active; 'I' for Inactive)
REMARK    1  A    between atoms: N1_1  and  C1_4 
REMARK    2  A    between atoms: C2_7  and  C3_8 
REMARK    3  A    between atoms: C3_8  and  C4_9 
REMARK    4  A    between atoms: C6_13  and  N4_14 
REMARK    5  A    between atoms: N4_14  and  C7_16 
REMARK    6  A    between atoms: C7_16  and  C8_17 
REMARK    7  A    between atoms: C12_25  and  C13_26 
REMARK    8  A    between atoms: C18_32  and  O1_33 
REMARK    9  A    between atoms: O1_33  and  C19_34 
ROOT
HETATM    1  C1  UNL     1      28.484   0.008   3.966  1.00  0.00     0.222 A 
HETATM    2  N2  UNL     1      29.282   0.512   4.912  1.00  0.00    -0.323 N 
ATOM      3  H2  UNL     1      30.047   0.021   5.374  1.00  0.00     0.169 HD
HETATM    4  C2  UNL     1      28.890   1.809   5.155  1.00  0.00     0.053 A 
HETATM    5  C12 UNL     1      27.843   2.074   4.332  1.00  0.00     0.115 A 
HETATM    6  O2  UNL     1      27.647   0.923   3.632  1.00  0.00    -0.277 OA
ENDROOT
BRANCH   4   7
HETATM    7  C3  UNL     1      29.507   2.605   6.213  1.00  0.00     0.120 C 
BRANCH   7   8
HETATM    8  C4  UNL     1      29.584   1.769   7.475  1.00  0.00     0.048 A 
HETATM    9  C5  UNL     1      28.838   2.101   8.573  1.00  0.00     0.133 A 
HETATM   10  N3  UNL     1      28.925   1.330   9.701  1.00  0.00    -0.199 N 
HETATM   11  C6  UNL     1      29.725   0.257   9.745  1.00  0.00     0.692 A 
ATOM     12  H3  UNL     1      28.371   1.576  10.521  1.00  0.00     0.183 HD
HETATM   13  N5  UNL     1      30.445  -0.040   8.647  1.00  0.00    -0.132 N 
HETATM   14  N6  UNL     1      30.384   0.688   7.537  1.00  0.00    -0.289 N 
ATOM     15  H5  UNL     1      31.060  -0.853   8.668  1.00  0.00     0.205 HD
ATOM     16  H6  UNL     1      30.946   0.426   6.727  1.00  0.00     0.187 HD
BRANCH  11  17
HETATM   17  N4  UNL     1      29.838  -0.516  10.798  1.00  0.00    -0.224 N 
ATOM     18  H4  UNL     1      29.327  -1.396  10.871  1.00  0.00     0.177 HD
BRANCH  17  19
HETATM   19  C7  UNL     1      30.715  -0.063  11.845  1.00  0.00     0.142 C 
BRANCH  19  20
HETATM   20  C8  UNL     1      30.055   0.320  13.117  1.00  0.00     0.004 C 
HETATM   21  C9  UNL     1      28.560   0.076  13.186  1.00  0.00     0.006 C 
HETATM   22  C10 UNL     1      28.829  -1.008  14.203  1.00  0.00     0.001 C 
HETATM   23  C11 UNL     1      30.259  -0.518  14.329  1.00  0.00     0.006 C 
ENDBRANCH  19  20
ENDBRANCH  17  19
ENDBRANCH  11  17
ENDBRANCH   7   8
ENDBRANCH   4   7
BRANCH   5  24
HETATM   24  C13 UNL     1      26.994   3.229   4.109  1.00  0.00     0.035 A 
HETATM   25  C14 UNL     1      27.626   4.488   4.003  1.00  0.00     0.041 A 
HETATM   26  C15 UNL     1      26.966   5.663   3.879  1.00  0.00     0.035 A 
HETATM   27 CL1  UNL     1      27.861   7.178   3.760  1.00  0.00    -0.084 Cl
HETATM   28  C16 UNL     1      25.599   5.674   3.847  1.00  0.00     0.026 A 
HETATM   29  C17 UNL     1      24.938   4.489   3.945  1.00  0.00     0.039 A 
HETATM   30  C18 UNL     1      25.643   3.263   4.078  1.00  0.00     0.088 A 
BRANCH  30  31
HETATM   31  O1  UNL     1      24.923   2.120   4.185  1.00  0.00    -0.289 OA
BRANCH  31  32
HETATM   32  C19 UNL     1      23.867   1.641   3.449  1.00  0.00     0.505 C 
HETATM   33  F1  UNL     1      24.248   1.626   2.094  1.00  0.00    -0.184 F 
HETATM   34  F2  UNL     1      22.795   2.518   3.579  1.00  0.00    -0.184 F 
ENDBRANCH  31  32
ENDBRANCH  30  31
ENDBRANCH   5  24
BRANCH   1  35
HETATM   35  N1  UNL     1      28.594  -1.216   3.508  1.00  0.00    -0.365 N 
ATOM     36  H12 UNL     1      28.424  -2.099   3.990  1.00  0.00     0.159 HD
ATOM     37  H11 UNL     1      28.882  -1.434   2.554  1.00  0.00     0.159 HD
ENDBRANCH   1  35
TORSDOF 9
ENDMDL
MODEL 5
REMARK VINA RESULT: -8.834843301      2.413      2.917
REMARK  9 active torsions:
REMARK  status: ('A' for Active; 'I' for Inactive)
REMARK    1  A    between atoms: N1_1  and  C1_4 
REMARK    2  A    between atoms: C2_7  and  C3_8 
REMARK    3  A    between atoms: C3_8  and  C4_9 
REMARK    4  A    between atoms: C6_13  and  N4_14 
REMARK    5  A    between atoms: N4_14  and  C7_16 
REMARK    6  A    between atoms: C7_16  and  C8_17 
REMARK    7  A    between atoms: C12_25  and  C13_26 
REMARK    8  A    between atoms: C18_32  and  O1_33 
REMARK    9  A    between atoms: O1_33  and  C19_34 
ROOT
HETATM    1  C1  UNL     1      29.731   0.583   3.087  1.00  0.00     0.222 A 
HETATM    2  N2  UNL     1      30.241   1.259   4.121  1.00  0.00    -0.323 N 
ATOM      3  H2  UNL     1      31.181   1.153   4.501  1.00  0.00     0.169 HD
HETATM    4  C2  UNL     1      29.275   2.125   4.583  1.00  0.00     0.053 A 
HETATM    5  C12 UNL     1      28.178   1.957   3.801  1.00  0.00     0.115 A 
HETATM    6  O2  UNL     1      28.528   0.994   2.906  1.00  0.00    -0.277 OA
ENDROOT
BRANCH   4   7
HETATM    7  C3  UNL     1      29.492   2.941   5.776  1.00  0.00     0.120 C 
BRANCH   7   8
HETATM    8  C4  UNL     1      29.508   2.036   6.992  1.00  0.00     0.048 A 
HETATM    9  C5  UNL     1      29.080   2.499   8.206  1.00  0.00     0.133 A 
HETATM   10  N3  UNL     1      29.104   1.663   9.289  1.00  0.00    -0.199 N 
HETATM   11  C6  UNL     1      29.539   0.401   9.178  1.00  0.00     0.692 A 
ATOM     12  H3  UNL     1      28.786   2.006  10.196  1.00  0.00     0.183 HD
HETATM   13  N5  UNL     1      29.954  -0.020   7.969  1.00  0.00    -0.132 N 
HETATM   14  N6  UNL     1      29.943   0.765   6.898  1.00  0.00    -0.289 N 
ATOM     15  H5  UNL     1      30.289  -0.979   7.872  1.00  0.00     0.205 HD
ATOM     16  H6  UNL     1      30.265   0.404   6.001  1.00  0.00     0.187 HD
BRANCH  11  17
HETATM   17  N4  UNL     1      29.575  -0.439  10.184  1.00  0.00    -0.224 N 
ATOM     18  H4  UNL     1      28.905  -1.205  10.266  1.00  0.00     0.177 HD
BRANCH  17  19
HETATM   19  C7  UNL     1      30.605  -0.231  11.168  1.00  0.00     0.142 C 
BRANCH  19  20
HETATM   20  C8  UNL     1      30.155   0.344  12.459  1.00  0.00     0.004 C 
HETATM   21  C9  UNL     1      28.663   0.288  12.724  1.00  0.00     0.006 C 
HETATM   22  C10 UNL     1      28.938  -0.722  13.811  1.00  0.00     0.001 C 
HETATM   23  C11 UNL     1      30.417  -0.398  13.722  1.00  0.00     0.006 C 
ENDBRANCH  19  20
ENDBRANCH  17  19
ENDBRANCH  11  17
ENDBRANCH   7   8
ENDBRANCH   4   7
BRANCH   5  24
HETATM   24  C13 UNL     1      26.852   2.548   3.772  1.00  0.00     0.035 A 
HETATM   25  C14 UNL     1      25.775   1.707   3.413  1.00  0.00     0.041 A 
HETATM   26  C15 UNL     1      24.499   2.129   3.261  1.00  0.00     0.035 A 
HETATM   27 CL1  UNL     1      23.233   0.990   2.804  1.00  0.00    -0.084 Cl
HETATM   28  C16 UNL     1      24.190   3.447   3.461  1.00  0.00     0.026 A 
HETATM   29  C17 UNL     1      25.190   4.302   3.809  1.00  0.00     0.039 A 
HETATM   30  C18 UNL     1      26.526   3.845   3.962  1.00  0.00     0.088 A 
BRANCH  30  31
HETATM   31  O1  UNL     1      27.477   4.752   4.297  1.00  0.00    -0.289 OA
BRANCH  31  32
HETATM   32  C19 UNL     1      27.977   5.834   3.616  1.00  0.00     0.505 C 
HETATM   33  F1  UNL     1      27.098   6.916   3.803  1.00  0.00    -0.184 F 
HETATM   34  F2  UNL     1      28.001   5.538   2.256  1.00  0.00    -0.184 F 
ENDBRANCH  31  32
ENDBRANCH  30  31
ENDBRANCH   5  24
BRANCH   1  35
HETATM   35  N1  UNL     1      30.400  -0.327   2.422  1.00  0.00    -0.365 N 
ATOM     36  H12 UNL     1      30.662  -0.339   1.437  1.00  0.00     0.159 HD
ATOM     37  H11 UNL     1      30.756  -1.183   2.847  1.00  0.00     0.159 HD
ENDBRANCH   1  35
TORSDOF 9
ENDMDL
