MODEL 1
REMARK VINA RESULT: -7.243179645      0.000      0.000
REMARK  9 active torsions:
REMARK  status: ('A' for Active; 'I' for Inactive)
REMARK    1  A    between atoms: C2_2  and  O1_3 
REMARK    2  A    between atoms: O1_3  and  C3_4 
REMARK    3  A    between atoms: C3_4  and  C4_5 
REMARK    4  A    between atoms: C6_8  and  C7_9 
REMARK    5  A    between atoms: C6_8  and  C8_12 
REMARK    6  A    between atoms: C7_9  and  O2_10 
REMARK    7  A    between atoms: C11_16  and  C12_17 
REMARK    8  A    between atoms: C14_19  and  C15_20 
REMARK    9  A    between atoms: C19_31  and  N5_32 
ROOT
HETATM    1  C8  UNL     1      29.914   0.795   9.054  1.00  0.00     0.016 A 
HETATM    2  C9  UNL     1      30.585   0.418   7.875  1.00  0.00     0.126 A 
HETATM    3  F2  UNL     1      31.760  -0.312   7.932  1.00  0.00    -0.205 F 
HETATM    4  C10 UNL     1      30.193   0.872   6.662  1.00  0.00     0.055 A 
HETATM    5  C11 UNL     1      29.133   1.726   6.475  1.00  0.00    -0.018 A 
HETATM    6  C20 UNL     1      28.473   2.109   7.596  1.00  0.00     0.037 A 
HETATM    7  C21 UNL     1      28.849   1.654   8.867  1.00  0.00     0.045 A 
HETATM    8 CL1  UNL     1      27.894   2.171  10.236  1.00  0.00    -0.084 Cl
ENDROOT
BRANCH   5   9
HETATM    9  C12 UNL     1      28.744   2.201   5.133  1.00  0.00     0.019 A 
HETATM   10  C13 UNL     1      27.871   3.258   5.032  1.00  0.00     0.031 A 
HETATM   11  C14 UNL     1      27.423   3.761   3.801  1.00  0.00     0.010 A 
HETATM   12  C18 UNL     1      27.894   3.147   2.675  1.00  0.00     0.103 A 
HETATM   13  N4  UNL     1      28.746   2.114   2.764  1.00  0.00    -0.351 N 
HETATM   14  C19 UNL     1      29.176   1.636   3.964  1.00  0.00     0.109 A 
ATOM     15  H4  UNL     1      29.081   1.674   1.907  1.00  0.00     0.166 HD
BRANCH  11  16
HETATM   16  C15 UNL     1      26.481   4.878   3.806  1.00  0.00     0.080 A 
HETATM   17  C16 UNL     1      26.849   6.180   3.443  1.00  0.00     0.140 A 
HETATM   18  N1  UNL     1      25.768   6.963   3.529  1.00  0.00    -0.295 N 
HETATM   19  N2  UNL     1      24.770   6.249   3.913  1.00  0.00    -0.241 N 
ATOM     20  H1  UNL     1      25.739   7.962   3.323  1.00  0.00     0.187 HD
HETATM   21  N3  UNL     1      25.190   4.980   4.085  1.00  0.00    -0.280 N 
ATOM     22  H2  UNL     1      23.820   6.586   4.064  1.00  0.00     0.208 HD
HETATM   23  C17 UNL     1      24.311   3.914   4.498  1.00  0.00     0.179 C 
ENDBRANCH  11  16
BRANCH  14  24
HETATM   24  N5  UNL     1      30.004   0.672   3.977  1.00  0.00    -0.385 N 
ATOM     25  H52 UNL     1      29.697  -0.234   4.331  1.00  0.00     0.157 HD
ATOM     26  H51 UNL     1      30.952   0.794   3.620  1.00  0.00     0.157 HD
ENDBRANCH  14  24
ENDBRANCH   5   9
BRANCH   1  27
HETATM   27  C6  UNL     1      30.304   0.119  10.272  1.00  0.00     0.052 A 
HETATM   28  C4  UNL     1      29.895   0.584  11.634  1.00  0.00     0.063 A 
HETATM   29  C5  UNL     1      31.384   0.584  11.173  1.00  0.00     0.193 A 
HETATM   30  F1  UNL     1      32.230  -0.335  11.771  1.00  0.00    -0.248 F 
BRANCH  28  31
HETATM   31  C3  UNL     1      29.687  -0.347  12.778  1.00  0.00     0.183 C 
BRANCH  31  32
HETATM   32  O1  UNL     1      28.429  -0.353  13.364  1.00  0.00    -0.363 OA
BRANCH  32  33
HETATM   33  C2  UNL     1      28.080  -0.944  14.542  1.00  0.00     0.124 C 
HETATM   34  C1  UNL     1      28.901  -0.893  15.566  1.00  0.00     0.037 C 
ENDBRANCH  32  33
ENDBRANCH  31  32
ENDBRANCH  28  31
BRANCH  27  35
HETATM   35  C7  UNL     1      30.122  -1.430  10.159  1.00  0.00     0.182 C 
BRANCH  35  36
HETATM   36  O2  UNL     1      28.946  -1.896   9.709  1.00  0.00    -0.400 OA
ATOM     37  H2  UNL     1      28.218  -1.931  10.318  1.00  0.00     0.209 HD
ENDBRANCH  35  36
ENDBRANCH  27  35
ENDBRANCH   1  27
TORSDOF 9
ENDMDL
MODEL 2
REMARK VINA RESULT: -7.211748197      0.708      1.279
REMARK  9 active torsions:
REMARK  status: ('A' for Active; 'I' for Inactive)
REMARK    1  A    between atoms: C2_2  and  O1_3 
REMARK    2  A    between atoms: O1_3  and  C3_4 
REMARK    3  A    between atoms: C3_4  and  C4_5 
REMARK    4  A    between atoms: C6_8  and  C7_9 
REMARK    5  A    between atoms: C6_8  and  C8_12 
REMARK    6  A    between atoms: C7_9  and  O2_10 
REMARK    7  A    between atoms: C11_16  and  C12_17 
REMARK    8  A    between atoms: C14_19  and  C15_20 
REMARK    9  A    between atoms: C19_31  and  N5_32 
ROOT
HETATM    1  C8  UNL     1      29.901   0.826   9.075  1.00  0.00     0.016 A 
HETATM    2  C9  UNL     1      30.519   0.490   7.856  1.00  0.00     0.126 A 
HETATM    3  F2  UNL     1      31.717  -0.204   7.837  1.00  0.00    -0.205 F 
HETATM    4  C10 UNL     1      30.049   0.952   6.674  1.00  0.00     0.055 A 
HETATM    5  C11 UNL     1      28.955   1.776   6.559  1.00  0.00    -0.018 A 
HETATM    6  C20 UNL     1      28.345   2.119   7.721  1.00  0.00     0.037 A 
HETATM    7  C21 UNL     1      28.802   1.655   8.961  1.00  0.00     0.045 A 
HETATM    8 CL1  UNL     1      27.906   2.119  10.388  1.00  0.00    -0.084 Cl
ENDROOT
BRANCH   5   9
HETATM    9  C12 UNL     1      28.480   2.260   5.248  1.00  0.00     0.019 A 
HETATM   10  C13 UNL     1      27.238   2.842   5.168  1.00  0.00     0.031 A 
HETATM   11  C14 UNL     1      26.691   3.307   3.963  1.00  0.00     0.010 A 
HETATM   12  C18 UNL     1      27.455   3.158   2.840  1.00  0.00     0.103 A 
HETATM   13  N4  UNL     1      28.669   2.591   2.909  1.00  0.00    -0.351 N 
HETATM   14  C19 UNL     1      29.191   2.145   4.084  1.00  0.00     0.109 A 
ATOM     15  H4  UNL     1      29.218   2.491   2.054  1.00  0.00     0.166 HD
BRANCH  11  16
HETATM   16  C15 UNL     1      25.353   3.894   3.985  1.00  0.00     0.080 A 
HETATM   17  C16 UNL     1      24.194   3.130   4.181  1.00  0.00     0.140 A 
HETATM   18  N1  UNL     1      23.140   3.954   4.170  1.00  0.00    -0.295 N 
HETATM   19  N2  UNL     1      23.557   5.156   3.986  1.00  0.00    -0.241 N 
ATOM     20  H1  UNL     1      22.166   3.674   4.290  1.00  0.00     0.187 HD
HETATM   21  N3  UNL     1      24.900   5.133   3.872  1.00  0.00    -0.280 N 
ATOM     22  H2  UNL     1      22.970   5.988   3.933  1.00  0.00     0.208 HD
HETATM   23  C17 UNL     1      25.688   6.324   3.673  1.00  0.00     0.179 C 
ENDBRANCH  11  16
BRANCH  14  24
HETATM   24  N5  UNL     1      30.358   1.642   4.084  1.00  0.00    -0.385 N 
ATOM     25  H52 UNL     1      30.892   1.643   4.953  1.00  0.00     0.157 HD
ATOM     26  H51 UNL     1      30.747   1.228   3.237  1.00  0.00     0.157 HD
ENDBRANCH  14  24
ENDBRANCH   5   9
BRANCH   1  27
HETATM   27  C6  UNL     1      30.376   0.142  10.258  1.00  0.00     0.052 A 
HETATM   28  C4  UNL     1      30.069   0.601  11.649  1.00  0.00     0.063 A 
HETATM   29  C5  UNL     1      31.520   0.599  11.082  1.00  0.00     0.193 A 
HETATM   30  F1  UNL     1      32.403  -0.326  11.612  1.00  0.00    -0.248 F 
BRANCH  28  31
HETATM   31  C3  UNL     1      29.940  -0.335  12.800  1.00  0.00     0.183 C 
BRANCH  31  32
HETATM   32  O1  UNL     1      28.671  -0.505  13.335  1.00  0.00    -0.363 OA
BRANCH  32  33
HETATM   33  C2  UNL     1      28.335  -1.271  14.412  1.00  0.00     0.124 C 
HETATM   34  C1  UNL     1      28.746  -0.927  15.611  1.00  0.00     0.037 C 
ENDBRANCH  32  33
ENDBRANCH  31  32
ENDBRANCH  28  31
BRANCH  27  35
HETATM   35  C7  UNL     1      30.180  -1.405  10.151  1.00  0.00     0.182 C 
BRANCH  35  36
HETATM   36  O2  UNL     1      28.994  -1.863   9.719  1.00  0.00    -0.400 OA
ATOM     37  H2  UNL     1      28.993  -2.561   9.075  1.00  0.00     0.209 HD
ENDBRANCH  35  36
ENDBRANCH  27  35
ENDBRANCH   1  27
TORSDOF 9
ENDMDL
MODEL 3
REMARK VINA RESULT: -5.882500969      0.898      1.298
REMARK  9 active torsions:
REMARK  status: ('A' for Active; 'I' for Inactive)
REMARK    1  A    between atoms: C2_2  and  O1_3 
REMARK    2  A    between atoms: O1_3  and  C3_4 
REMARK    3  A    between atoms: C3_4  and  C4_5 
REMARK    4  A    between atoms: C6_8  and  C7_9 
REMARK    5  A    between atoms: C6_8  and  C8_12 
REMARK    6  A    between atoms: C7_9  and  O2_10 
REMARK    7  A    between atoms: C11_16  and  C12_17 
REMARK    8  A    between atoms: C14_19  and  C15_20 
REMARK    9  A    between atoms: C19_31  and  N5_32 
ROOT
HETATM    1  C8  UNL     1      29.812   0.847   8.473  1.00  0.00     0.016 A 
HETATM    2  C9  UNL     1      30.256   0.406   7.212  1.00  0.00     0.126 A 
HETATM    3  F2  UNL     1      31.421  -0.335   7.092  1.00  0.00    -0.205 F 
HETATM    4  C10 UNL     1      29.652   0.804   6.070  1.00  0.00     0.055 A 
HETATM    5  C11 UNL     1      28.578   1.661   6.035  1.00  0.00    -0.018 A 
HETATM    6  C20 UNL     1      28.133   2.105   7.237  1.00  0.00     0.037 A 
HETATM    7  C21 UNL     1      28.732   1.708   8.440  1.00  0.00     0.045 A 
HETATM    8 CL1  UNL     1      28.043   2.302   9.931  1.00  0.00    -0.084 Cl
ENDROOT
BRANCH   5   9
HETATM    9  C12 UNL     1      27.952   2.074   4.764  1.00  0.00     0.019 A 
HETATM   10  C13 UNL     1      27.221   3.237   4.733  1.00  0.00     0.031 A 
HETATM   11  C14 UNL     1      26.568   3.696   3.580  1.00  0.00     0.010 A 
HETATM   12  C18 UNL     1      26.685   2.926   2.456  1.00  0.00     0.103 A 
HETATM   13  N4  UNL     1      27.397   1.790   2.477  1.00  0.00    -0.351 N 
HETATM   14  C19 UNL     1      28.028   1.354   3.602  1.00  0.00     0.109 A 
ATOM     15  H4  UNL     1      27.467   1.234   1.624  1.00  0.00     0.166 HD
BRANCH  11  16
HETATM   16  C15 UNL     1      25.801   4.937   3.660  1.00  0.00     0.080 A 
HETATM   17  C16 UNL     1      24.401   4.961   3.713  1.00  0.00     0.140 A 
HETATM   18  N1  UNL     1      24.005   6.235   3.803  1.00  0.00    -0.295 N 
HETATM   19  N2  UNL     1      25.044   6.992   3.809  1.00  0.00    -0.241 N 
ATOM     20  H1  UNL     1      23.037   6.554   3.858  1.00  0.00     0.187 HD
HETATM   21  N3  UNL     1      26.142   6.215   3.723  1.00  0.00    -0.280 N 
ATOM     22  H2  UNL     1      25.039   8.010   3.869  1.00  0.00     0.208 HD
HETATM   23  C17 UNL     1      27.480   6.752   3.722  1.00  0.00     0.179 C 
ENDBRANCH  11  16
BRANCH  14  24
HETATM   24  N5  UNL     1      28.708   0.283   3.546  1.00  0.00    -0.385 N 
ATOM     25  H52 UNL     1      28.556  -0.433   4.257  1.00  0.00     0.157 HD
ATOM     26  H51 UNL     1      29.380   0.130   2.793  1.00  0.00     0.157 HD
ENDBRANCH  14  24
ENDBRANCH   5   9
BRANCH   1  27
HETATM   27  C6  UNL     1      30.414   0.226   9.632  1.00  0.00     0.052 A 
HETATM   28  C4  UNL     1      30.240   0.747  11.025  1.00  0.00     0.063 A 
HETATM   29  C5  UNL     1      31.627   0.736  10.314  1.00  0.00     0.193 A 
HETATM   30  F1  UNL     1      32.576  -0.151  10.794  1.00  0.00    -0.248 F 
BRANCH  28  31
HETATM   31  C3  UNL     1      30.244  -0.135  12.225  1.00  0.00     0.183 C 
BRANCH  31  32
HETATM   32  O1  UNL     1      29.010  -0.473  12.762  1.00  0.00    -0.363 OA
BRANCH  32  33
HETATM   33  C2  UNL     1      28.783  -1.257  13.853  1.00  0.00     0.124 C 
HETATM   34  C1  UNL     1      28.822  -0.731  15.055  1.00  0.00     0.037 C 
ENDBRANCH  32  33
ENDBRANCH  31  32
ENDBRANCH  28  31
BRANCH  27  35
HETATM   35  C7  UNL     1      30.236  -1.327   9.617  1.00  0.00     0.182 C 
BRANCH  35  36
HETATM   36  O2  UNL     1      29.001  -1.822   9.796  1.00  0.00    -0.400 OA
ATOM     37  H2  UNL     1      28.400  -1.797   9.060  1.00  0.00     0.209 HD
ENDBRANCH  35  36
ENDBRANCH  27  35
ENDBRANCH   1  27
TORSDOF 9
ENDMDL
MODEL 4
REMARK VINA RESULT: -5.604246031      1.570      2.079
REMARK  9 active torsions:
REMARK  status: ('A' for Active; 'I' for Inactive)
REMARK    1  A    between atoms: C2_2  and  O1_3 
REMARK    2  A    between atoms: O1_3  and  C3_4 
REMARK    3  A    between atoms: C3_4  and  C4_5 
REMARK    4  A    between atoms: C6_8  and  C7_9 
REMARK    5  A    between atoms: C6_8  and  C8_12 
REMARK    6  A    between atoms: C7_9  and  O2_10 
REMARK    7  A    between atoms: C11_16  and  C12_17 
REMARK    8  A    between atoms: C14_19  and  C15_20 
REMARK    9  A    between atoms: C19_31  and  N5_32 
ROOT
HETATM    1  C8  UNL     1      29.750   0.562   8.915  1.00  0.00     0.016 A 
HETATM    2  C9  UNL     1      28.676   1.471   8.898  1.00  0.00     0.126 A 
HETATM    3  F2  UNL     1      27.910   1.683  10.033  1.00  0.00    -0.205 F 
HETATM    4  C10 UNL     1      28.264   2.059   7.752  1.00  0.00     0.055 A 
HETATM    5  C11 UNL     1      28.838   1.822   6.526  1.00  0.00    -0.018 A 
HETATM    6  C20 UNL     1      29.873   0.945   6.514  1.00  0.00     0.037 A 
HETATM    7  C21 UNL     1      30.328   0.322   7.683  1.00  0.00     0.045 A 
HETATM    8 CL1  UNL     1      31.702  -0.750   7.557  1.00  0.00    -0.084 Cl
ENDROOT
BRANCH   5   9
HETATM    9  C12 UNL     1      28.353   2.482   5.298  1.00  0.00     0.019 A 
HETATM   10  C13 UNL     1      27.075   2.987   5.279  1.00  0.00     0.031 A 
HETATM   11  C14 UNL     1      26.517   3.605   4.150  1.00  0.00     0.010 A 
HETATM   12  C18 UNL     1      27.308   3.690   3.038  1.00  0.00     0.103 A 
HETATM   13  N4  UNL     1      28.557   3.200   3.048  1.00  0.00    -0.351 N 
HETATM   14  C19 UNL     1      29.088   2.603   4.151  1.00  0.00     0.109 A 
ATOM     15  H4  UNL     1      29.125   3.277   2.205  1.00  0.00     0.166 HD
BRANCH  11  16
HETATM   16  C15 UNL     1      25.141   4.091   4.229  1.00  0.00     0.080 A 
HETATM   17  C16 UNL     1      24.056   3.251   4.510  1.00  0.00     0.140 A 
HETATM   18  N1  UNL     1      22.944   3.994   4.535  1.00  0.00    -0.295 N 
HETATM   19  N2  UNL     1      23.258   5.217   4.294  1.00  0.00    -0.241 N 
ATOM     20  H1  UNL     1      22.001   3.647   4.716  1.00  0.00     0.187 HD
HETATM   21  N3  UNL     1      24.591   5.290   4.107  1.00  0.00    -0.280 N 
ATOM     22  H2  UNL     1      22.608   6.001   4.251  1.00  0.00     0.208 HD
HETATM   23  C17 UNL     1      25.275   6.529   3.833  1.00  0.00     0.179 C 
ENDBRANCH  11  16
BRANCH  14  24
HETATM   24  N5  UNL     1      30.287   2.185   4.101  1.00  0.00    -0.385 N 
ATOM     25  H52 UNL     1      30.598   1.503   4.793  1.00  0.00     0.157 HD
ATOM     26  H51 UNL     1      30.923   2.508   3.372  1.00  0.00     0.157 HD
ENDBRANCH  14  24
ENDBRANCH   5   9
BRANCH   1  27
HETATM   27  C6  UNL     1      30.219   0.128  10.213  1.00  0.00     0.052 A 
HETATM   28  C4  UNL     1      29.926   0.868  11.480  1.00  0.00     0.063 A 
HETATM   29  C5  UNL     1      31.374   0.725  10.923  1.00  0.00     0.193 A 
HETATM   30  F1  UNL     1      32.245  -0.085  11.631  1.00  0.00    -0.248 F 
BRANCH  28  31
HETATM   31  C3  UNL     1      29.787   0.191  12.799  1.00  0.00     0.183 C 
BRANCH  31  32
HETATM   32  O1  UNL     1      28.509  -0.188  13.182  1.00  0.00    -0.363 OA
BRANCH  32  33
HETATM   33  C2  UNL     1      28.174  -0.977  14.242  1.00  0.00     0.124 C 
HETATM   34  C1  UNL     1      28.893  -0.935  15.340  1.00  0.00     0.037 C 
ENDBRANCH  32  33
ENDBRANCH  31  32
ENDBRANCH  28  31
BRANCH  27  35
HETATM   35  C7  UNL     1      29.999  -1.405  10.427  1.00  0.00     0.182 C 
BRANCH  35  36
HETATM   36  O2  UNL     1      29.036  -2.010   9.712  1.00  0.00    -0.400 OA
ATOM     37  H2  UNL     1      28.309  -1.481   9.406  1.00  0.00     0.209 HD
ENDBRANCH  35  36
ENDBRANCH  27  35
ENDBRANCH   1  27
TORSDOF 9
ENDMDL
MODEL 5
REMARK VINA RESULT: -5.446129460      1.541      1.780
REMARK  9 active torsions:
REMARK  status: ('A' for Active; 'I' for Inactive)
REMARK    1  A    between atoms: C2_2  and  O1_3 
REMARK    2  A    between atoms: O1_3  and  C3_4 
REMARK    3  A    between atoms: C3_4  and  C4_5 
REMARK    4  A    between atoms: C6_8  and  C7_9 
REMARK    5  A    between atoms: C6_8  and  C8_12 
REMARK    6  A    between atoms: C7_9  and  O2_10 
REMARK    7  A    between atoms: C11_16  and  C12_17 
REMARK    8  A    between atoms: C14_19  and  C15_20 
REMARK    9  A    between atoms: C19_31  and  N5_32 
ROOT
HETATM    1  C8  UNL     1      29.736   0.587   8.581  1.00  0.00     0.016 A 
HETATM    2  C9  UNL     1      28.661   1.495   8.564  1.00  0.00     0.126 A 
HETATM    3  F2  UNL     1      27.897   1.708   9.700  1.00  0.00    -0.205 F 
HETATM    4  C10 UNL     1      28.246   2.078   7.417  1.00  0.00     0.055 A 
HETATM    5  C11 UNL     1      28.818   1.840   6.191  1.00  0.00    -0.018 A 
HETATM    6  C20 UNL     1      29.854   0.963   6.179  1.00  0.00     0.037 A 
HETATM    7  C21 UNL     1      30.312   0.345   7.349  1.00  0.00     0.045 A 
HETATM    8 CL1  UNL     1      31.687  -0.726   7.223  1.00  0.00    -0.084 Cl
ENDROOT
BRANCH   5   9
HETATM    9  C12 UNL     1      28.329   2.495   4.962  1.00  0.00     0.019 A 
HETATM   10  C13 UNL     1      27.178   3.243   5.023  1.00  0.00     0.031 A 
HETATM   11  C14 UNL     1      26.622   3.879   3.904  1.00  0.00     0.010 A 
HETATM   12  C18 UNL     1      27.281   3.726   2.716  1.00  0.00     0.103 A 
HETATM   13  N4  UNL     1      28.406   2.998   2.647  1.00  0.00    -0.351 N 
HETATM   14  C19 UNL     1      28.937   2.386   3.741  1.00  0.00     0.109 A 
ATOM     15  H4  UNL     1      28.877   2.900   1.747  1.00  0.00     0.166 HD
BRANCH  11  16
HETATM   16  C15 UNL     1      25.384   4.636   4.075  1.00  0.00     0.080 A 
HETATM   17  C16 UNL     1      25.331   6.033   3.985  1.00  0.00     0.140 A 
HETATM   18  N1  UNL     1      24.064   6.420   4.165  1.00  0.00    -0.295 N 
HETATM   19  N2  UNL     1      23.337   5.376   4.357  1.00  0.00    -0.241 N 
ATOM     20  H1  UNL     1      23.729   7.383   4.152  1.00  0.00     0.187 HD
HETATM   21  N3  UNL     1      24.127   4.286   4.304  1.00  0.00    -0.280 N 
ATOM     22  H2  UNL     1      22.331   5.374   4.522  1.00  0.00     0.208 HD
HETATM   23  C17 UNL     1      23.621   2.945   4.463  1.00  0.00     0.179 C 
ENDBRANCH  11  16
BRANCH  14  24
HETATM   24  N5  UNL     1      30.020   1.733   3.611  1.00  0.00    -0.385 N 
ATOM     25  H52 UNL     1      30.694   2.037   2.909  1.00  0.00     0.157 HD
ATOM     26  H51 UNL     1      30.222   0.933   4.211  1.00  0.00     0.157 HD
ENDBRANCH  14  24
ENDBRANCH   5   9
BRANCH   1  27
HETATM   27  C6  UNL     1      30.208   0.157   9.880  1.00  0.00     0.052 A 
HETATM   28  C4  UNL     1      29.879   0.876  11.151  1.00  0.00     0.063 A 
HETATM   29  C5  UNL     1      31.336   0.786  10.605  1.00  0.00     0.193 A 
HETATM   30  F1  UNL     1      32.228  -0.001  11.314  1.00  0.00    -0.248 F 
BRANCH  28  31
HETATM   31  C3  UNL     1      29.753   0.182  12.463  1.00  0.00     0.183 C 
BRANCH  31  32
HETATM   32  O1  UNL     1      28.467  -0.071  12.920  1.00  0.00    -0.363 OA
BRANCH  32  33
HETATM   33  C2  UNL     1      28.122  -0.739  14.057  1.00  0.00     0.124 C 
HETATM   34  C1  UNL     1      29.033  -0.989  14.969  1.00  0.00     0.037 C 
ENDBRANCH  32  33
ENDBRANCH  31  32
ENDBRANCH  28  31
BRANCH  27  35
HETATM   35  C7  UNL     1      30.037  -1.384  10.078  1.00  0.00     0.182 C 
BRANCH  35  36
HETATM   36  O2  UNL     1      28.892  -1.950   9.664  1.00  0.00    -0.400 OA
ATOM     37  H2  UNL     1      28.190  -1.379   9.376  1.00  0.00     0.209 HD
ENDBRANCH  35  36
ENDBRANCH  27  35
ENDBRANCH   1  27
TORSDOF 9
ENDMDL
