MODEL 1
REMARK VINA RESULT: -6.495322108      0.000      0.000
REMARK  0 active torsions:
REMARK  status: ('A' for Active; 'I' for Inactive)
ROOT
HETATM    1  C1  UNL     1      16.733  11.266 -11.726  1.00  0.00     0.146 C 
HETATM    2  N1  UNL     1      15.437  10.980 -11.090  1.00  0.00    -0.173 NA
HETATM    3  C2  UNL     1      14.971  12.233 -10.532  1.00  0.00     0.355 C 
HETATM    4  N2  UNL     1      15.649  12.221  -9.229  1.00  0.00    -0.028 N 
ATOM      5  H21 UNL     1      15.267  12.858  -8.530  1.00  0.00     0.282 HD
ATOM      6  H22 UNL     1      16.584  12.628  -9.218  1.00  0.00     0.282 HD
HETATM    7  C3  UNL     1      15.578  10.817  -8.897  1.00  0.00     0.246 C 
HETATM    8  C4  UNL     1      14.297  10.536  -8.135  1.00  0.00     0.071 C 
HETATM    9  C5  UNL     1      14.456  11.077  -6.754  1.00  0.00     0.005 C 
HETATM   10  C6  UNL     1      14.740  10.045  -5.718  1.00  0.00     0.000 C 
HETATM   11  C7  UNL     1      15.850   9.123  -5.979  1.00  0.00     0.000 C 
HETATM   12  C8  UNL     1      16.447   9.102  -7.328  1.00  0.00     0.005 C 
HETATM   13  C9  UNL     1      16.724  10.403  -7.968  1.00  0.00     0.071 C 
HETATM   14  O1  UNL     1      15.664  10.138 -10.086  1.00  0.00    -0.262 OA
ENDROOT
TORSDOF 0
ENDMDL
MODEL 2
REMARK VINA RESULT: -6.441519044      1.177      1.342
REMARK  0 active torsions:
REMARK  status: ('A' for Active; 'I' for Inactive)
ROOT
HETATM    1  C1  UNL     1      18.424  11.136 -11.795  1.00  0.00     0.146 C 
HETATM    2  N1  UNL     1      16.967  11.201 -11.598  1.00  0.00    -0.173 NA
HETATM    3  C2  UNL     1      16.660  12.579 -11.275  1.00  0.00     0.355 C 
HETATM    4  N2  UNL     1      16.888  12.577  -9.824  1.00  0.00    -0.028 N 
ATOM      5  H21 UNL     1      16.472  13.355  -9.312  1.00  0.00     0.282 HD
ATOM      6  H22 UNL     1      17.843  12.779  -9.530  1.00  0.00     0.282 HD
HETATM    7  C3  UNL     1      16.393  11.266  -9.471  1.00  0.00     0.246 C 
HETATM    8  C4  UNL     1      14.912  11.348  -9.151  1.00  0.00     0.071 C 
HETATM    9  C5  UNL     1      14.767  12.000  -7.817  1.00  0.00     0.005 C 
HETATM   10  C6  UNL     1      14.473  11.058  -6.702  1.00  0.00     0.000 C 
HETATM   11  C7  UNL     1      15.362   9.901  -6.551  1.00  0.00     0.000 C 
HETATM   12  C8  UNL     1      16.317   9.600  -7.634  1.00  0.00     0.005 C 
HETATM   13  C9  UNL     1      17.072  10.732  -8.206  1.00  0.00     0.071 C 
HETATM   14  O1  UNL     1      16.674  10.452 -10.539  1.00  0.00    -0.262 OA
ENDROOT
TORSDOF 0
ENDMDL
MODEL 3
REMARK VINA RESULT: -6.381749958      2.085      4.703
REMARK  0 active torsions:
REMARK  status: ('A' for Active; 'I' for Inactive)
ROOT
HETATM    1  C1  UNL     1      14.501  10.070  -8.961  1.00  0.00     0.146 C 
HETATM    2  N1  UNL     1      15.762  10.730  -8.586  1.00  0.00    -0.173 NA
HETATM    3  C2  UNL     1      15.546  12.152  -8.762  1.00  0.00     0.355 C 
HETATM    4  N2  UNL     1      15.856  12.301 -10.190  1.00  0.00    -0.028 N 
ATOM      5  H21 UNL     1      16.051  13.253 -10.500  1.00  0.00     0.282 HD
ATOM      6  H22 UNL     1      15.072  12.160 -10.826  1.00  0.00     0.282 HD
HETATM    7  C3  UNL     1      16.948  11.365 -10.331  1.00  0.00     0.246 C 
HETATM    8  C4  UNL     1      18.264  12.070 -10.060  1.00  0.00     0.071 C 
HETATM    9  C5  UNL     1      18.570  12.938 -11.235  1.00  0.00     0.005 C 
HETATM   10  C6  UNL     1      19.600  12.384 -12.157  1.00  0.00     0.000 C 
HETATM   11  C7  UNL     1      19.398  11.014 -12.640  1.00  0.00     0.000 C 
HETATM   12  C8  UNL     1      18.352  10.190 -12.007  1.00  0.00     0.005 C 
HETATM   13  C9  UNL     1      17.042  10.826 -11.762  1.00  0.00     0.071 C 
HETATM   14  O1  UNL     1      16.690  10.341  -9.455  1.00  0.00    -0.262 OA
ENDROOT
TORSDOF 0
ENDMDL
MODEL 4
REMARK VINA RESULT: -6.315843140      1.785      4.548
REMARK  0 active torsions:
REMARK  status: ('A' for Active; 'I' for Inactive)
ROOT
HETATM    1  C1  UNL     1      14.009   9.919  -8.045  1.00  0.00     0.146 C 
HETATM    2  N1  UNL     1      15.150   9.523  -8.885  1.00  0.00    -0.173 NA
HETATM    3  C2  UNL     1      16.324   9.600  -8.041  1.00  0.00     0.355 C 
HETATM    4  N2  UNL     1      16.672  11.020  -8.184  1.00  0.00    -0.028 N 
ATOM      5  H21 UNL     1      17.623  11.269  -7.912  1.00  0.00     0.282 HD
ATOM      6  H22 UNL     1      16.222  11.650  -7.521  1.00  0.00     0.282 HD
HETATM    7  C3  UNL     1      16.345  11.243  -9.573  1.00  0.00     0.246 C 
HETATM    8  C4  UNL     1      17.556  10.949 -10.438  1.00  0.00     0.071 C 
HETATM    9  C5  UNL     1      18.527  12.068 -10.263  1.00  0.00     0.005 C 
HETATM   10  C6  UNL     1      18.551  13.042 -11.388  1.00  0.00     0.000 C 
HETATM   11  C7  UNL     1      17.266  13.613 -11.807  1.00  0.00     0.000 C 
HETATM   12  C8  UNL     1      16.025  13.018 -11.278  1.00  0.00     0.005 C 
HETATM   13  C9  UNL     1      15.982  12.708  -9.836  1.00  0.00     0.071 C 
HETATM   14  O1  UNL     1      15.272  10.433  -9.848  1.00  0.00    -0.262 OA
ENDROOT
TORSDOF 0
ENDMDL
MODEL 5
REMARK VINA RESULT: -6.300214077      1.937      4.252
REMARK  0 active torsions:
REMARK  status: ('A' for Active; 'I' for Inactive)
ROOT
HETATM    1  C1  UNL     1      15.566   9.590  -6.334  1.00  0.00     0.146 C 
HETATM    2  N1  UNL     1      14.945  10.823  -6.846  1.00  0.00    -0.173 NA
HETATM    3  C2  UNL     1      13.996  10.412  -7.859  1.00  0.00     0.355 C 
HETATM    4  N2  UNL     1      14.871  10.326  -9.035  1.00  0.00    -0.028 N 
ATOM      5  H21 UNL     1      14.395  10.327  -9.938  1.00  0.00     0.282 HD
ATOM      6  H22 UNL     1      15.328   9.426  -9.178  1.00  0.00     0.282 HD
HETATM    7  C3  UNL     1      15.756  11.442  -8.799  1.00  0.00     0.246 C 
HETATM    8  C4  UNL     1      15.178  12.696  -9.428  1.00  0.00     0.071 C 
HETATM    9  C5  UNL     1      15.354  12.591 -10.906  1.00  0.00     0.005 C 
HETATM   10  C6  UNL     1      16.475  13.405 -11.451  1.00  0.00     0.000 C 
HETATM   11  C7  UNL     1      17.789  13.240 -10.821  1.00  0.00     0.000 C 
HETATM   12  C8  UNL     1      17.875  12.491  -9.554  1.00  0.00     0.005 C 
HETATM   13  C9  UNL     1      17.121  11.226  -9.462  1.00  0.00     0.071 C 
HETATM   14  O1  UNL     1      15.900  11.534  -7.437  1.00  0.00    -0.262 OA
ENDROOT
TORSDOF 0
ENDMDL
