MODEL 1
REMARK VINA RESULT: -6.902655450      0.000      0.000
REMARK  0 active torsions:
REMARK  status: ('A' for Active; 'I' for Inactive)
ROOT
HETATM    1  N1  UNL     1      20.701  13.167 -12.192  1.00  0.00    -0.195 NA
HETATM    2  C1  UNL     1      19.697  12.588 -12.091  1.00  0.00     0.084 C 
HETATM    3  C2  UNL     1      18.429  11.859 -11.983  1.00  0.00     0.138 C 
HETATM    4  C3  UNL     1      18.269  10.888 -13.047  1.00  0.00     0.084 C 
HETATM    5  N2  UNL     1      18.119  10.108 -13.905  1.00  0.00    -0.195 NA
HETATM    6  C4  UNL     1      18.292  11.162 -10.648  1.00  0.00     0.045 C 
HETATM    7  C5  UNL     1      17.549  12.115  -9.737  1.00  0.00    -0.005 C 
HETATM    8  C6  UNL     1      16.773  11.319  -8.756  1.00  0.00     0.032 C 
HETATM    9  C7  UNL     1      15.454  11.876  -8.360  1.00  0.00     0.232 C 
HETATM   10  N3  UNL     1      14.784  12.649  -9.342  1.00  0.00    -0.075 N 
ATOM     11  H31 UNL     1      14.765  13.630  -9.067  1.00  0.00     0.277 HD
ATOM     12  H32 UNL     1      13.785  12.443  -9.333  1.00  0.00     0.277 HD
HETATM   13  C8  UNL     1      15.305  12.516 -10.670  1.00  0.00     0.237 C 
HETATM   14  C9  UNL     1      16.754  12.985 -10.637  1.00  0.00     0.018 C 
HETATM   15  C10 UNL     1      17.308  12.853 -12.035  1.00  0.00     0.046 C 
ENDROOT
TORSDOF 0
ENDMDL
MODEL 2
REMARK VINA RESULT: -6.807250229      2.073      4.897
REMARK  0 active torsions:
REMARK  status: ('A' for Active; 'I' for Inactive)
ROOT
HETATM    1  N1  UNL     1      15.425   8.276  -7.869  1.00  0.00    -0.195 NA
HETATM    2  C1  UNL     1      15.567   9.399  -8.142  1.00  0.00     0.084 C 
HETATM    3  C2  UNL     1      15.728  10.816  -8.482  1.00  0.00     0.138 C 
HETATM    4  C3  UNL     1      15.055  11.681  -7.533  1.00  0.00     0.084 C 
HETATM    5  N2  UNL     1      14.508  12.392  -6.783  1.00  0.00    -0.195 NA
HETATM    6  C4  UNL     1      17.184  11.212  -8.570  1.00  0.00     0.045 C 
HETATM    7  C5  UNL     1      17.587  11.063 -10.021  1.00  0.00    -0.005 C 
HETATM    8  C6  UNL     1      18.653  12.049 -10.319  1.00  0.00     0.032 C 
HETATM    9  C7  UNL     1      18.627  12.650 -11.677  1.00  0.00     0.232 C 
HETATM   10  N3  UNL     1      17.349  12.778 -12.277  1.00  0.00    -0.075 N 
ATOM     11  H31 UNL     1      17.261  12.133 -13.062  1.00  0.00     0.277 HD
ATOM     12  H32 UNL     1      17.278  13.668 -12.770  1.00  0.00     0.277 HD
HETATM   13  C8  UNL     1      16.245  12.620 -11.379  1.00  0.00     0.237 C 
HETATM   14  C9  UNL     1      16.331  11.214 -10.798  1.00  0.00     0.018 C 
HETATM   15  C10 UNL     1      15.166  11.039  -9.853  1.00  0.00     0.046 C 
ENDROOT
TORSDOF 0
ENDMDL
MODEL 3
REMARK VINA RESULT: -6.790616608      0.815      2.615
REMARK  0 active torsions:
REMARK  status: ('A' for Active; 'I' for Inactive)
ROOT
HETATM    1  N1  UNL     1      18.139   9.958 -14.152  1.00  0.00    -0.195 NA
HETATM    2  C1  UNL     1      18.189  10.683 -13.243  1.00  0.00     0.084 C 
HETATM    3  C2  UNL     1      18.270  11.592 -12.096  1.00  0.00     0.138 C 
HETATM    4  C3  UNL     1      19.480  12.390 -12.120  1.00  0.00     0.084 C 
HETATM    5  N2  UNL     1      20.456  13.033 -12.120  1.00  0.00    -0.195 NA
HETATM    6  C4  UNL     1      17.071  12.509 -12.017  1.00  0.00     0.045 C 
HETATM    7  C5  UNL     1      16.067  11.832 -11.108  1.00  0.00    -0.005 C 
HETATM    8  C6  UNL     1      15.270  12.879 -10.425  1.00  0.00     0.032 C 
HETATM    9  C7  UNL     1      14.870  12.587  -9.025  1.00  0.00     0.232 C 
HETATM   10  N3  UNL     1      15.758  11.767  -8.282  1.00  0.00    -0.075 N 
ATOM     11  H31 UNL     1      15.335  10.857  -8.107  1.00  0.00     0.277 HD
ATOM     12  H32 UNL     1      15.839  12.112  -7.326  1.00  0.00     0.277 HD
HETATM   13  C8  UNL     1      17.057  11.607  -8.864  1.00  0.00     0.237 C 
HETATM   14  C9  UNL     1      16.866  10.949 -10.224  1.00  0.00     0.018 C 
HETATM   15  C10 UNL     1      18.233  10.772 -10.841  1.00  0.00     0.046 C 
ENDROOT
TORSDOF 0
ENDMDL
MODEL 4
REMARK VINA RESULT: -6.698874915      1.676      4.894
REMARK  0 active torsions:
REMARK  status: ('A' for Active; 'I' for Inactive)
ROOT
HETATM    1  N1  UNL     1      14.410  12.669  -6.648  1.00  0.00    -0.195 NA
HETATM    2  C1  UNL     1      14.743  12.061  -7.583  1.00  0.00     0.084 C 
HETATM    3  C2  UNL     1      15.161  11.280  -8.751  1.00  0.00     0.138 C 
HETATM    4  C3  UNL     1      14.388  10.062  -8.893  1.00  0.00     0.084 C 
HETATM    5  N2  UNL     1      13.781   9.070  -9.016  1.00  0.00    -0.195 NA
HETATM    6  C4  UNL     1      15.066  12.082 -10.029  1.00  0.00     0.045 C 
HETATM    7  C5  UNL     1      16.427  12.703 -10.254  1.00  0.00    -0.005 C 
HETATM    8  C6  UNL     1      16.639  12.859 -11.713  1.00  0.00     0.032 C 
HETATM    9  C7  UNL     1      18.027  12.652 -12.198  1.00  0.00     0.232 C 
HETATM   10  N3  UNL     1      18.816  11.735 -11.456  1.00  0.00    -0.075 N 
ATOM     11  H31 UNL     1      19.555  12.228 -10.956  1.00  0.00     0.277 HD
ATOM     12  H32 UNL     1      19.379  11.164 -12.086  1.00  0.00     0.277 HD
HETATM   13  C8  UNL     1      18.079  10.900 -10.556  1.00  0.00     0.237 C 
HETATM   14  C9  UNL     1      17.387  11.815  -9.553  1.00  0.00     0.018 C 
HETATM   15  C10 UNL     1      16.613  10.940  -8.596  1.00  0.00     0.046 C 
ENDROOT
TORSDOF 0
ENDMDL
MODEL 5
REMARK VINA RESULT: -6.630858842      1.907      2.435
REMARK  0 active torsions:
REMARK  status: ('A' for Active; 'I' for Inactive)
ROOT
HETATM    1  N1  UNL     1      17.688  14.023 -11.250  1.00  0.00    -0.195 NA
HETATM    2  C1  UNL     1      17.383  12.922 -11.029  1.00  0.00     0.084 C 
HETATM    3  C2  UNL     1      16.992  11.533 -10.769  1.00  0.00     0.138 C 
HETATM    4  C3  UNL     1      17.386  10.648 -11.848  1.00  0.00     0.084 C 
HETATM    5  N2  UNL     1      17.686   9.923 -12.714  1.00  0.00    -0.195 NA
HETATM    6  C4  UNL     1      17.568  11.020  -9.469  1.00  0.00     0.045 C 
HETATM    7  C5  UNL     1      16.521  11.264  -8.405  1.00  0.00    -0.005 C 
HETATM    8  C6  UNL     1      16.656  10.218  -7.362  1.00  0.00     0.032 C 
HETATM    9  C7  UNL     1      15.392   9.748  -6.741  1.00  0.00     0.232 C 
HETATM   10  N3  UNL     1      14.239   9.788  -7.566  1.00  0.00    -0.075 N 
ATOM     11  H31 UNL     1      13.594  10.506  -7.238  1.00  0.00     0.277 HD
ATOM     12  H32 UNL     1      13.668   8.956  -7.416  1.00  0.00     0.277 HD
HETATM   13  C8  UNL     1      14.506   9.961  -8.963  1.00  0.00     0.237 C 
HETATM   14  C9  UNL     1      15.224  11.295  -9.125  1.00  0.00     0.018 C 
HETATM   15  C10 UNL     1      15.504  11.486 -10.597  1.00  0.00     0.046 C 
ENDROOT
TORSDOF 0
ENDMDL
