MODEL 1
REMARK VINA RESULT: -6.755636668      0.000      0.000
REMARK  1 active torsions:
REMARK  status: ('A' for Active; 'I' for Inactive)
REMARK    1  A    between atoms: C2_2  and  N1_3 
ROOT
HETATM    1  C1  UNL     1      15.521   9.646  -6.369  1.00  0.00     0.081 C 
HETATM    2  C2  UNL     1      14.882  10.167  -7.620  1.00  0.00     0.255 C 
HETATM    3  C3  UNL     1      15.401  11.590  -7.842  1.00  0.00     0.112 C 
HETATM    4  C4  UNL     1      16.045  11.451  -9.196  1.00  0.00     0.101 C 
HETATM    5  C5  UNL     1      17.457  10.954  -9.137  1.00  0.00     0.041 C 
HETATM    6  C6  UNL     1      17.981  10.677 -10.494  1.00  0.00     0.003 C 
HETATM    7  C7  UNL     1      17.648  11.664 -11.545  1.00  0.00     0.000 C 
HETATM    8  C8  UNL     1      16.289  12.264 -11.462  1.00  0.00     0.003 C 
HETATM    9  C9  UNL     1      16.007  12.691 -10.018  1.00  0.00     0.041 C 
HETATM   10  O1  UNL     1      15.270  10.407  -9.748  1.00  0.00    -0.227 OA
HETATM   11  O2  UNL     1      15.313   9.532  -8.761  1.00  0.00    -0.200 OA
ENDROOT
BRANCH   2  12
HETATM   12  N1  UNL     1      13.463  10.118  -7.472  1.00  0.00    -0.044 N 
ATOM     13  H13 UNL     1      12.978  10.654  -8.192  1.00  0.00     0.278 HD
ATOM     14  H12 UNL     1      13.080   9.200  -7.697  1.00  0.00     0.278 HD
ATOM     15  H11 UNL     1      13.217  10.421  -6.531  1.00  0.00     0.278 HD
ENDBRANCH   2  12
TORSDOF 1
ENDMDL
MODEL 2
REMARK VINA RESULT: -6.616460301      2.461      4.038
REMARK  1 active torsions:
REMARK  status: ('A' for Active; 'I' for Inactive)
REMARK    1  A    between atoms: C2_2  and  N1_3 
ROOT
HETATM    1  C1  UNL     1      17.945  10.749 -10.351  1.00  0.00     0.081 C 
HETATM    2  C2  UNL     1      17.386  11.870  -9.531  1.00  0.00     0.255 C 
HETATM    3  C3  UNL     1      16.076  12.312 -10.190  1.00  0.00     0.112 C 
HETATM    4  C4  UNL     1      15.100  12.082  -9.068  1.00  0.00     0.101 C 
HETATM    5  C5  UNL     1      14.583  10.677  -9.004  1.00  0.00     0.041 C 
HETATM    6  C6  UNL     1      13.763  10.466  -7.789  1.00  0.00     0.003 C 
HETATM    7  C7  UNL     1      12.829  11.554  -7.426  1.00  0.00     0.000 C 
HETATM    8  C8  UNL     1      13.319  12.937  -7.670  1.00  0.00     0.003 C 
HETATM    9  C9  UNL     1      13.943  13.018  -9.067  1.00  0.00     0.041 C 
HETATM   10  O1  UNL     1      15.942  12.256  -7.948  1.00  0.00    -0.227 OA
HETATM   11  O2  UNL     1      16.952  11.476  -8.287  1.00  0.00    -0.200 OA
ENDROOT
BRANCH   2  12
HETATM   12  N1  UNL     1      18.348  12.923  -9.464  1.00  0.00    -0.044 N 
ATOM     13  H13 UNL     1      19.299  12.590  -9.626  1.00  0.00     0.278 HD
ATOM     14  H12 UNL     1      18.283  13.559 -10.258  1.00  0.00     0.278 HD
ATOM     15  H11 UNL     1      18.252  13.405  -8.571  1.00  0.00     0.278 HD
ENDBRANCH   2  12
TORSDOF 1
ENDMDL
MODEL 3
REMARK VINA RESULT: -6.603697223      2.042      4.194
REMARK  1 active torsions:
REMARK  status: ('A' for Active; 'I' for Inactive)
REMARK    1  A    between atoms: C2_2  and  N1_3 
ROOT
HETATM    1  C1  UNL     1      17.315  12.594 -11.986  1.00  0.00     0.081 C 
HETATM    2  C2  UNL     1      16.840  11.257 -11.506  1.00  0.00     0.255 C 
HETATM    3  C3  UNL     1      17.619  10.924 -10.231  1.00  0.00     0.112 C 
HETATM    4  C4  UNL     1      16.494  10.773  -9.241  1.00  0.00     0.101 C 
HETATM    5  C5  UNL     1      16.060  12.069  -8.628  1.00  0.00     0.041 C 
HETATM    6  C6  UNL     1      14.849  11.886  -7.796  1.00  0.00     0.003 C 
HETATM    7  C7  UNL     1      14.813  10.679  -6.940  1.00  0.00     0.000 C 
HETATM    8  C8  UNL     1      15.415   9.452  -7.526  1.00  0.00     0.003 C 
HETATM    9  C9  UNL     1      16.769   9.796  -8.152  1.00  0.00     0.041 C 
HETATM   10  O1  UNL     1      15.449  10.357 -10.095  1.00  0.00    -0.227 OA
HETATM   11  O2  UNL     1      15.545  11.267 -11.047  1.00  0.00    -0.200 OA
ENDROOT
BRANCH   2  12
HETATM   12  N1  UNL     1      17.045  10.293 -12.540  1.00  0.00    -0.044 N 
ATOM     13  H13 UNL     1      16.209  10.146 -13.105  1.00  0.00     0.278 HD
ATOM     14  H12 UNL     1      17.657  10.640 -13.279  1.00  0.00     0.278 HD
ATOM     15  H11 UNL     1      17.390   9.429 -12.124  1.00  0.00     0.278 HD
ENDBRANCH   2  12
TORSDOF 1
ENDMDL
MODEL 4
REMARK VINA RESULT: -6.475450337      1.890      4.104
REMARK  1 active torsions:
REMARK  status: ('A' for Active; 'I' for Inactive)
REMARK    1  A    between atoms: C2_2  and  N1_3 
ROOT
HETATM    1  C1  UNL     1      14.762  12.701 -10.779  1.00  0.00     0.081 C 
HETATM    2  C2  UNL     1      15.255  11.319 -10.476  1.00  0.00     0.255 C 
HETATM    3  C3  UNL     1      16.415  11.453  -9.485  1.00  0.00     0.112 C 
HETATM    4  C4  UNL     1      15.893  10.645  -8.326  1.00  0.00     0.101 C 
HETATM    5  C5  UNL     1      15.018  11.429  -7.396  1.00  0.00     0.041 C 
HETATM    6  C6  UNL     1      14.402  10.550  -6.377  1.00  0.00     0.003 C 
HETATM    7  C7  UNL     1      15.276   9.514  -5.782  1.00  0.00     0.000 C 
HETATM    8  C8  UNL     1      16.253   8.882  -6.708  1.00  0.00     0.003 C 
HETATM    9  C9  UNL     1      16.953   9.968  -7.531  1.00  0.00     0.041 C 
HETATM   10  O1  UNL     1      15.053   9.732  -9.001  1.00  0.00    -0.227 OA
HETATM   11  O2  UNL     1      14.360  10.563  -9.758  1.00  0.00    -0.200 OA
ENDROOT
BRANCH   2  12
HETATM   12  N1  UNL     1      15.647  10.689 -11.696  1.00  0.00    -0.044 N 
ATOM     13  H13 UNL     1      16.174  11.315 -12.305  1.00  0.00     0.278 HD
ATOM     14  H12 UNL     1      16.372   9.986 -11.554  1.00  0.00     0.278 HD
ATOM     15  H11 UNL     1      14.820  10.307 -12.153  1.00  0.00     0.278 HD
ENDBRANCH   2  12
TORSDOF 1
ENDMDL
MODEL 5
REMARK VINA RESULT: -6.403751364      2.087      4.150
REMARK  1 active torsions:
REMARK  status: ('A' for Active; 'I' for Inactive)
REMARK    1  A    between atoms: C2_2  and  N1_3 
ROOT
HETATM    1  C1  UNL     1      17.934  10.811 -10.747  1.00  0.00     0.081 C 
HETATM    2  C2  UNL     1      17.007  11.573  -9.850  1.00  0.00     0.255 C 
HETATM    3  C3  UNL     1      15.697  10.785  -9.768  1.00  0.00     0.112 C 
HETATM    4  C4  UNL     1      15.612  10.526  -8.287  1.00  0.00     0.101 C 
HETATM    5  C5  UNL     1      16.364   9.306  -7.850  1.00  0.00     0.041 C 
HETATM    6  C6  UNL     1      16.386   9.195  -6.374  1.00  0.00     0.003 C 
HETATM    7  C7  UNL     1      15.123   9.509  -5.669  1.00  0.00     0.000 C 
HETATM    8  C8  UNL     1      14.320  10.620  -6.244  1.00  0.00     0.003 C 
HETATM    9  C9  UNL     1      14.222  10.446  -7.763  1.00  0.00     0.041 C 
HETATM   10  O1  UNL     1      16.320  11.640  -7.786  1.00  0.00    -0.227 OA
HETATM   11  O2  UNL     1      17.407  11.587  -8.535  1.00  0.00    -0.200 OA
ENDROOT
BRANCH   2  12
HETATM   12  N1  UNL     1      16.825  12.886 -10.379  1.00  0.00    -0.044 N 
ATOM     13  H13 UNL     1      17.533  13.541 -10.047  1.00  0.00     0.278 HD
ATOM     14  H12 UNL     1      17.040  12.937 -11.375  1.00  0.00     0.278 HD
ATOM     15  H11 UNL     1      15.877  13.199 -10.170  1.00  0.00     0.278 HD
ENDBRANCH   2  12
TORSDOF 1
ENDMDL
