MODEL 1
REMARK VINA RESULT: -8.969205701      0.000      0.000
REMARK  10 active torsions:
REMARK  status: ('A' for Active; 'I' for Inactive)
REMARK       I    between atoms: C1_4  and  N3_6 
REMARK    1  A    between atoms: C5_10  and  C6_11 
REMARK       I    between atoms: C6_11  and  N4_13 
REMARK    2  A    between atoms: N4_13  and  C7_15 
REMARK    3  A    between atoms: C7_15  and  C8_16 
REMARK    4  A    between atoms: C7_15  and  C11_21 
REMARK    5  A    between atoms: C8_16  and  C9_17 
REMARK    6  A    between atoms: C9_17  and  C10_18 
REMARK    7  A    between atoms: C11_21  and  C12_22 
REMARK    8  A    between atoms: C15_25  and  N5_26 
REMARK    9  A    between atoms: C17_31  and  C18_32 
REMARK   10  A    between atoms: C18_32  and  C19_33 
ROOT
HETATM    1  C7  UNL     1      34.845   9.064   1.899  1.00  0.00     0.085 C 
ENDROOT
BRANCH   1   2
HETATM    2  N4  UNL     1      33.774   8.671   1.069  1.00  0.00    -0.355 N 
HETATM    3  C6  UNL     1      33.664   9.177  -0.272  1.00  0.00     0.241 C 
HETATM    4  O1  UNL     1      34.503   9.975  -0.748  1.00  0.00    -0.271 OA
ATOM      5  H4  UNL     1      33.071   8.022   1.423  1.00  0.00     0.162 HD
BRANCH   3   6
HETATM    6  C5  UNL     1      32.530   8.730  -1.082  1.00  0.00     0.179 C 
HETATM    7  N3  UNL     1      31.298   9.386  -0.780  1.00  0.00    -0.342 N 
HETATM    8  C1  UNL     1      30.848   9.990   0.417  1.00  0.00     0.184 C 
HETATM    9  C2  UNL     1      30.476   9.351  -1.990  1.00  0.00     0.126 C 
HETATM   10  N1  UNL     1      30.743  11.270   0.525  1.00  0.00    -0.374 N 
HETATM   11  N2  UNL     1      30.498   9.201   1.537  1.00  0.00    -0.064 NA
ATOM     12  H12 UNL     1      30.419  11.706   1.389  1.00  0.00     0.158 HD
ATOM     13  H11 UNL     1      30.996  11.839  -0.282  1.00  0.00     0.158 HD
HETATM   14  C3  UNL     1      31.383   8.964  -3.116  1.00  0.00     0.022 C 
HETATM   15  C4  UNL     1      32.776   9.186  -2.525  1.00  0.00     0.037 C 
ENDBRANCH   3   6
ENDBRANCH   1   2
BRANCH   1  16
HETATM   16  C8  UNL     1      35.271   7.941   2.860  1.00  0.00     0.035 C 
BRANCH  16  17
HETATM   17  C9  UNL     1      35.670   6.745   2.021  1.00  0.00     0.115 C 
BRANCH  17  18
HETATM   18  C10 UNL     1      34.696   5.656   2.129  1.00  0.00     0.172 C 
HETATM   19  O2  UNL     1      33.815   5.528   1.257  1.00  0.00    -0.648 OA
HETATM   20  O3  UNL     1      34.743   4.759   3.194  1.00  0.00    -0.648 OA
ENDBRANCH  17  18
ENDBRANCH  16  17
ENDBRANCH   1  16
BRANCH   1  21
HETATM   21  C11 UNL     1      34.756  10.351   2.649  1.00  0.00     0.030 C 
BRANCH  21  22
HETATM   22  C12 UNL     1      33.640  10.593   3.563  1.00  0.00    -0.008 C 
HETATM   23  C13 UNL     1      32.906  11.891   3.498  1.00  0.00     0.007 C 
HETATM   24  C14 UNL     1      31.457  11.599   3.896  1.00  0.00     0.033 C 
HETATM   25  C15 UNL     1      31.478  10.745   5.148  1.00  0.00     0.183 C 
HETATM   26  C16 UNL     1      32.800  10.793   5.874  1.00  0.00     0.037 C 
HETATM   27  C17 UNL     1      33.974  10.358   5.025  1.00  0.00    -0.008 C 
BRANCH  25  28
HETATM   28  N5  UNL     1      30.483  11.297   6.050  1.00  0.00    -0.075 N 
ATOM     29  H53 UNL     1      30.889  11.747   6.870  1.00  0.00     0.274 HD
ATOM     30  H52 UNL     1      30.009  12.118   5.673  1.00  0.00     0.274 HD
ATOM     31  H51 UNL     1      29.843  10.537   6.284  1.00  0.00     0.274 HD
ENDBRANCH  25  28
BRANCH  27  32
HETATM   32  C18 UNL     1      35.167  11.124   5.490  1.00  0.00     0.010 C 
BRANCH  32  33
HETATM   33  C19 UNL     1      34.657  12.239   6.397  1.00  0.00    -0.014 C 
HETATM   34  C20 UNL     1      35.585  12.402   7.572  1.00  0.00     0.005 C 
HETATM   35  C21 UNL     1      35.662  13.905   7.301  1.00  0.00     0.001 C 
HETATM   36  C22 UNL     1      35.085  13.602   5.915  1.00  0.00     0.005 C 
ENDBRANCH  32  33
ENDBRANCH  27  32
ENDBRANCH  21  22
ENDBRANCH   1  21
TORSDOF 10
ENDMDL
MODEL 2
REMARK VINA RESULT: -8.947603565      1.943      3.083
REMARK  10 active torsions:
REMARK  status: ('A' for Active; 'I' for Inactive)
REMARK       I    between atoms: C1_4  and  N3_6 
REMARK    1  A    between atoms: C5_10  and  C6_11 
REMARK       I    between atoms: C6_11  and  N4_13 
REMARK    2  A    between atoms: N4_13  and  C7_15 
REMARK    3  A    between atoms: C7_15  and  C8_16 
REMARK    4  A    between atoms: C7_15  and  C11_21 
REMARK    5  A    between atoms: C8_16  and  C9_17 
REMARK    6  A    between atoms: C9_17  and  C10_18 
REMARK    7  A    between atoms: C11_21  and  C12_22 
REMARK    8  A    between atoms: C15_25  and  N5_26 
REMARK    9  A    between atoms: C17_31  and  C18_32 
REMARK   10  A    between atoms: C18_32  and  C19_33 
ROOT
HETATM    1  C7  UNL     1      34.867   7.125   1.467  1.00  0.00     0.085 C 
ENDROOT
BRANCH   1   2
HETATM    2  N4  UNL     1      33.709   7.210   0.665  1.00  0.00    -0.355 N 
HETATM    3  C6  UNL     1      33.531   8.304  -0.250  1.00  0.00     0.241 C 
HETATM    4  O1  UNL     1      34.385   9.212  -0.369  1.00  0.00    -0.271 OA
ATOM      5  H4  UNL     1      32.991   6.488   0.736  1.00  0.00     0.162 HD
BRANCH   3   6
HETATM    6  C5  UNL     1      32.308   8.333  -1.053  1.00  0.00     0.179 C 
HETATM    7  N3  UNL     1      31.336   9.280  -0.609  1.00  0.00    -0.342 N 
HETATM    8  C1  UNL     1      31.101   9.822   0.677  1.00  0.00     0.184 C 
HETATM    9  C2  UNL     1      30.532   9.659  -1.770  1.00  0.00     0.126 C 
HETATM   10  N1  UNL     1      31.391  11.047   0.953  1.00  0.00    -0.374 N 
HETATM   11  N2  UNL     1      30.537   9.029   1.703  1.00  0.00    -0.064 NA
ATOM     12  H12 UNL     1      31.222  11.438   1.879  1.00  0.00     0.158 HD
ATOM     13  H11 UNL     1      31.798  11.619   0.213  1.00  0.00     0.158 HD
HETATM   14  C3  UNL     1      31.268   9.176  -2.980  1.00  0.00     0.022 C 
HETATM   15  C4  UNL     1      32.668   8.887  -2.436  1.00  0.00     0.037 C 
ENDBRANCH   3   6
ENDBRANCH   1   2
BRANCH   1  16
HETATM   16  C8  UNL     1      35.461   5.706   1.474  1.00  0.00     0.035 C 
BRANCH  16  17
HETATM   17  C9  UNL     1      34.309   4.725   1.429  1.00  0.00     0.115 C 
BRANCH  17  18
HETATM   18  C10 UNL     1      34.604   3.505   2.184  1.00  0.00     0.172 C 
HETATM   19  O2  UNL     1      35.435   3.541   3.112  1.00  0.00    -0.648 OA
HETATM   20  O3  UNL     1      33.966   2.305   1.881  1.00  0.00    -0.648 OA
ENDBRANCH  17  18
ENDBRANCH  16  17
ENDBRANCH   1  16
BRANCH   1  21
HETATM   21  C11 UNL     1      34.832   7.654   2.862  1.00  0.00     0.030 C 
BRANCH  21  22
HETATM   22  C12 UNL     1      35.245   9.031   3.135  1.00  0.00    -0.008 C 
HETATM   23  C13 UNL     1      36.058   9.326   4.351  1.00  0.00     0.007 C 
HETATM   24  C14 UNL     1      36.959  10.513   4.003  1.00  0.00     0.033 C 
HETATM   25  C15 UNL     1      36.106  11.567   3.325  1.00  0.00     0.183 C 
HETATM   26  C16 UNL     1      34.629  11.380   3.572  1.00  0.00     0.037 C 
HETATM   27  C17 UNL     1      34.105  10.033   3.122  1.00  0.00    -0.008 C 
BRANCH  25  28
HETATM   28  N5  UNL     1      36.471  12.844   3.912  1.00  0.00    -0.075 N 
ATOM     29  H53 UNL     1      36.576  12.805   4.926  1.00  0.00     0.274 HD
ATOM     30  H52 UNL     1      37.426  13.128   3.694  1.00  0.00     0.274 HD
ATOM     31  H51 UNL     1      35.771  13.521   3.606  1.00  0.00     0.274 HD
ENDBRANCH  25  28
BRANCH  27  32
HETATM   32  C18 UNL     1      32.982   9.666   4.034  1.00  0.00     0.010 C 
BRANCH  32  33
HETATM   33  C19 UNL     1      32.504  10.953   4.695  1.00  0.00    -0.014 C 
HETATM   34  C20 UNL     1      31.016  11.096   4.510  1.00  0.00     0.005 C 
HETATM   35  C21 UNL     1      30.854  11.344   6.010  1.00  0.00     0.001 C 
HETATM   36  C22 UNL     1      32.267  10.775   6.174  1.00  0.00     0.005 C 
ENDBRANCH  32  33
ENDBRANCH  27  32
ENDBRANCH  21  22
ENDBRANCH   1  21
TORSDOF 10
ENDMDL
MODEL 3
REMARK VINA RESULT: -8.928336462      2.597      7.282
REMARK  10 active torsions:
REMARK  status: ('A' for Active; 'I' for Inactive)
REMARK       I    between atoms: C1_4  and  N3_6 
REMARK    1  A    between atoms: C5_10  and  C6_11 
REMARK       I    between atoms: C6_11  and  N4_13 
REMARK    2  A    between atoms: N4_13  and  C7_15 
REMARK    3  A    between atoms: C7_15  and  C8_16 
REMARK    4  A    between atoms: C7_15  and  C11_21 
REMARK    5  A    between atoms: C8_16  and  C9_17 
REMARK    6  A    between atoms: C9_17  and  C10_18 
REMARK    7  A    between atoms: C11_21  and  C12_22 
REMARK    8  A    between atoms: C15_25  and  N5_26 
REMARK    9  A    between atoms: C17_31  and  C18_32 
REMARK   10  A    between atoms: C18_32  and  C19_33 
ROOT
HETATM    1  C7  UNL     1      33.190  11.534   2.087  1.00  0.00     0.085 C 
ENDROOT
BRANCH   1   2
HETATM    2  N4  UNL     1      33.582  11.141   3.385  1.00  0.00    -0.355 N 
HETATM    3  C6  UNL     1      34.719  11.745   4.022  1.00  0.00     0.241 C 
HETATM    4  O1  UNL     1      35.399  12.632   3.456  1.00  0.00    -0.271 OA
ATOM      5  H4  UNL     1      33.052  10.420   3.876  1.00  0.00     0.162 HD
BRANCH   3   6
HETATM    6  C5  UNL     1      35.072  11.293   5.367  1.00  0.00     0.179 C 
HETATM    7  N3  UNL     1      34.312  11.903   6.410  1.00  0.00    -0.342 N 
HETATM    8  C1  UNL     1      33.664  13.159   6.461  1.00  0.00     0.184 C 
HETATM    9  C2  UNL     1      34.284  10.968   7.535  1.00  0.00     0.126 C 
HETATM   10  N1  UNL     1      32.379  13.255   6.429  1.00  0.00    -0.374 N 
HETATM   11  N2  UNL     1      34.413  14.355   6.550  1.00  0.00    -0.064 NA
ATOM     12  H12 UNL     1      31.912  14.160   6.466  1.00  0.00     0.158 HD
ATOM     13  H11 UNL     1      31.839  12.392   6.365  1.00  0.00     0.158 HD
HETATM   14  C3  UNL     1      34.753   9.648   7.010  1.00  0.00     0.022 C 
HETATM   15  C4  UNL     1      34.647   9.825   5.495  1.00  0.00     0.037 C 
ENDBRANCH   3   6
ENDBRANCH   1   2
BRANCH   1  16
HETATM   16  C8  UNL     1      31.661  11.604   1.942  1.00  0.00     0.035 C 
BRANCH  16  17
HETATM   17  C9  UNL     1      31.055  10.816   3.084  1.00  0.00     0.115 C 
BRANCH  17  18
HETATM   18  C10 UNL     1      30.321   9.641   2.604  1.00  0.00     0.172 C 
HETATM   19  O2  UNL     1      30.931   8.572   2.407  1.00  0.00    -0.648 OA
HETATM   20  O3  UNL     1      28.950   9.703   2.365  1.00  0.00    -0.648 OA
ENDBRANCH  17  18
ENDBRANCH  16  17
ENDBRANCH   1  16
BRANCH   1  21
HETATM   21  C11 UNL     1      33.769  10.833   0.904  1.00  0.00     0.030 C 
BRANCH  21  22
HETATM   22  C12 UNL     1      34.305   9.478   1.042  1.00  0.00    -0.008 C 
HETATM   23  C13 UNL     1      35.748   9.227   0.756  1.00  0.00     0.007 C 
HETATM   24  C14 UNL     1      36.188   8.084   1.674  1.00  0.00     0.033 C 
HETATM   25  C15 UNL     1      35.145   6.988   1.591  1.00  0.00     0.183 C 
HETATM   26  C16 UNL     1      34.261   7.104   0.373  1.00  0.00     0.037 C 
HETATM   27  C17 UNL     1      33.522   8.422   0.284  1.00  0.00    -0.008 C 
BRANCH  25  28
HETATM   28  N5  UNL     1      35.864   5.732   1.470  1.00  0.00    -0.075 N 
ATOM     29  H53 UNL     1      36.353   5.464   2.324  1.00  0.00     0.274 HD
ATOM     30  H52 UNL     1      35.248   4.920   1.414  1.00  0.00     0.274 HD
ATOM     31  H51 UNL     1      36.483   5.823   0.664  1.00  0.00     0.274 HD
ENDBRANCH  25  28
BRANCH  27  32
HETATM   32  C18 UNL     1      33.351   8.738  -1.164  1.00  0.00     0.010 C 
BRANCH  32  33
HETATM   33  C19 UNL     1      31.917   8.375  -1.535  1.00  0.00    -0.014 C 
HETATM   34  C20 UNL     1      30.973   9.409  -0.982  1.00  0.00     0.005 C 
HETATM   35  C21 UNL     1      30.323   9.550  -2.359  1.00  0.00     0.001 C 
HETATM   36  C22 UNL     1      31.556   8.838  -2.924  1.00  0.00     0.005 C 
ENDBRANCH  32  33
ENDBRANCH  27  32
ENDBRANCH  21  22
ENDBRANCH   1  21
TORSDOF 10
ENDMDL
MODEL 4
REMARK VINA RESULT: -8.822734248      1.541      2.138
REMARK  10 active torsions:
REMARK  status: ('A' for Active; 'I' for Inactive)
REMARK       I    between atoms: C1_4  and  N3_6 
REMARK    1  A    between atoms: C5_10  and  C6_11 
REMARK       I    between atoms: C6_11  and  N4_13 
REMARK    2  A    between atoms: N4_13  and  C7_15 
REMARK    3  A    between atoms: C7_15  and  C8_16 
REMARK    4  A    between atoms: C7_15  and  C11_21 
REMARK    5  A    between atoms: C8_16  and  C9_17 
REMARK    6  A    between atoms: C9_17  and  C10_18 
REMARK    7  A    between atoms: C11_21  and  C12_22 
REMARK    8  A    between atoms: C15_25  and  N5_26 
REMARK    9  A    between atoms: C17_31  and  C18_32 
REMARK   10  A    between atoms: C18_32  and  C19_33 
ROOT
HETATM    1  C7  UNL     1      34.835   9.172   1.914  1.00  0.00     0.085 C 
ENDROOT
BRANCH   1   2
HETATM    2  N4  UNL     1      33.770   8.758   1.088  1.00  0.00    -0.355 N 
HETATM    3  C6  UNL     1      33.669   9.223  -0.268  1.00  0.00     0.241 C 
HETATM    4  O1  UNL     1      34.513  10.005  -0.762  1.00  0.00    -0.271 OA
ATOM      5  H4  UNL     1      33.063   8.121   1.457  1.00  0.00     0.162 HD
BRANCH   3   6
HETATM    6  C5  UNL     1      32.540   8.754  -1.072  1.00  0.00     0.179 C 
HETATM    7  N3  UNL     1      31.297   9.385  -0.762  1.00  0.00    -0.342 N 
HETATM    8  C1  UNL     1      30.842   9.979   0.438  1.00  0.00     0.184 C 
HETATM    9  C2  UNL     1      30.469   9.335  -1.967  1.00  0.00     0.126 C 
HETATM   10  N1  UNL     1      30.712  11.257   0.549  1.00  0.00    -0.374 N 
HETATM   11  N2  UNL     1      30.514   9.182   1.559  1.00  0.00    -0.064 NA
ATOM     12  H12 UNL     1      30.384  11.685   1.414  1.00  0.00     0.158 HD
ATOM     13  H11 UNL     1      30.949  11.832  -0.260  1.00  0.00     0.158 HD
HETATM   14  C3  UNL     1      31.377   8.967  -3.098  1.00  0.00     0.022 C 
HETATM   15  C4  UNL     1      32.768   9.217  -2.516  1.00  0.00     0.037 C 
ENDBRANCH   3   6
ENDBRANCH   1   2
BRANCH   1  16
HETATM   16  C8  UNL     1      35.233   8.089   2.931  1.00  0.00     0.035 C 
BRANCH  16  17
HETATM   17  C9  UNL     1      35.693   6.875   2.152  1.00  0.00     0.115 C 
BRANCH  17  18
HETATM   18  C10 UNL     1      34.708   5.792   2.201  1.00  0.00     0.172 C 
HETATM   19  O2  UNL     1      33.814   5.733   1.335  1.00  0.00    -0.648 OA
HETATM   20  O3  UNL     1      34.758   4.825   3.202  1.00  0.00    -0.648 OA
ENDBRANCH  17  18
ENDBRANCH  16  17
ENDBRANCH   1  16
BRANCH   1  21
HETATM   21  C11 UNL     1      34.757  10.494   2.602  1.00  0.00     0.030 C 
BRANCH  21  22
HETATM   22  C12 UNL     1      34.825  10.567   4.062  1.00  0.00    -0.008 C 
HETATM   23  C13 UNL     1      33.561  10.603   4.855  1.00  0.00     0.007 C 
HETATM   24  C14 UNL     1      33.855   9.905   6.185  1.00  0.00     0.033 C 
HETATM   25  C15 UNL     1      35.162  10.452   6.723  1.00  0.00     0.183 C 
HETATM   26  C16 UNL     1      35.559  11.763   6.091  1.00  0.00     0.037 C 
HETATM   27  C17 UNL     1      35.697  11.693   4.585  1.00  0.00    -0.008 C 
BRANCH  25  28
HETATM   28  N5  UNL     1      34.959  10.711   8.137  1.00  0.00    -0.075 N 
ATOM     29  H53 UNL     1      35.271   9.946   8.736  1.00  0.00     0.274 HD
ATOM     30  H52 UNL     1      35.585  11.427   8.508  1.00  0.00     0.274 HD
ATOM     31  H51 UNL     1      33.972  10.940   8.257  1.00  0.00     0.274 HD
ENDBRANCH  25  28
BRANCH  27  32
HETATM   32  C18 UNL     1      35.325  13.032   4.042  1.00  0.00     0.010 C 
BRANCH  32  33
HETATM   33  C19 UNL     1      36.349  14.030   4.570  1.00  0.00    -0.014 C 
HETATM   34  C20 UNL     1      37.295  14.419   3.465  1.00  0.00     0.005 C 
HETATM   35  C21 UNL     1      37.052  15.896   3.778  1.00  0.00     0.001 C 
HETATM   36  C22 UNL     1      35.819  15.442   4.566  1.00  0.00     0.005 C 
ENDBRANCH  32  33
ENDBRANCH  27  32
ENDBRANCH  21  22
ENDBRANCH   1  21
TORSDOF 10
ENDMDL
MODEL 5
REMARK VINA RESULT: -8.819189294      2.942      4.803
REMARK  10 active torsions:
REMARK  status: ('A' for Active; 'I' for Inactive)
REMARK       I    between atoms: C1_4  and  N3_6 
REMARK    1  A    between atoms: C5_10  and  C6_11 
REMARK       I    between atoms: C6_11  and  N4_13 
REMARK    2  A    between atoms: N4_13  and  C7_15 
REMARK    3  A    between atoms: C7_15  and  C8_16 
REMARK    4  A    between atoms: C7_15  and  C11_21 
REMARK    5  A    between atoms: C8_16  and  C9_17 
REMARK    6  A    between atoms: C9_17  and  C10_18 
REMARK    7  A    between atoms: C11_21  and  C12_22 
REMARK    8  A    between atoms: C15_25  and  N5_26 
REMARK    9  A    between atoms: C17_31  and  C18_32 
REMARK   10  A    between atoms: C18_32  and  C19_33 
ROOT
HETATM    1  C7  UNL     1      30.801  10.032   1.526  1.00  0.00     0.085 C 
ENDROOT
BRANCH   1   2
HETATM    2  N4  UNL     1      29.596   9.611   0.924  1.00  0.00    -0.355 N 
HETATM    3  C6  UNL     1      28.504  10.529   0.751  1.00  0.00     0.241 C 
HETATM    4  O1  UNL     1      28.578  11.723   1.123  1.00  0.00    -0.271 OA
ATOM      5  H4  UNL     1      29.499   8.646   0.610  1.00  0.00     0.162 HD
BRANCH   3   6
HETATM    6  C5  UNL     1      27.282  10.029   0.120  1.00  0.00     0.179 C 
HETATM    7  N3  UNL     1      26.223  10.984   0.051  1.00  0.00    -0.342 N 
HETATM    8  C1  UNL     1      25.940  12.102   0.869  1.00  0.00     0.184 C 
HETATM    9  C2  UNL     1      25.383  10.623  -1.091  1.00  0.00     0.126 C 
HETATM   10  N1  UNL     1      26.108  13.307   0.443  1.00  0.00    -0.374 N 
HETATM   11  N2  UNL     1      25.458  11.929   2.187  1.00  0.00    -0.064 NA
ATOM     12  H12 UNL     1      25.904  14.113   1.033  1.00  0.00     0.158 HD
ATOM     13  H11 UNL     1      26.455  13.432  -0.508  1.00  0.00     0.158 HD
HETATM   14  C3  UNL     1      26.161   9.636  -1.903  1.00  0.00     0.022 C 
HETATM   15  C4  UNL     1      27.583   9.794  -1.365  1.00  0.00     0.037 C 
ENDBRANCH   3   6
ENDBRANCH   1   2
BRANCH   1  16
HETATM   16  C8  UNL     1      31.828  10.513   0.486  1.00  0.00     0.035 C 
BRANCH  16  17
HETATM   17  C9  UNL     1      32.068   9.374  -0.482  1.00  0.00     0.115 C 
BRANCH  17  18
HETATM   18  C10 UNL     1      33.495   9.186  -0.757  1.00  0.00     0.172 C 
HETATM   19  O2  UNL     1      33.989   8.044  -0.697  1.00  0.00    -0.648 OA
HETATM   20  O3  UNL     1      34.308  10.268  -1.087  1.00  0.00    -0.648 OA
ENDBRANCH  17  18
ENDBRANCH  16  17
ENDBRANCH   1  16
BRANCH   1  21
HETATM   21  C11 UNL     1      31.476   9.142   2.515  1.00  0.00     0.030 C 
BRANCH  21  22
HETATM   22  C12 UNL     1      31.978   9.691   3.774  1.00  0.00    -0.008 C 
HETATM   23  C13 UNL     1      31.693  11.114   4.122  1.00  0.00     0.007 C 
HETATM   24  C14 UNL     1      31.593  11.185   5.647  1.00  0.00     0.033 C 
HETATM   25  C15 UNL     1      32.771  10.432   6.230  1.00  0.00     0.183 C 
HETATM   26  C16 UNL     1      33.890  10.227   5.239  1.00  0.00     0.037 C 
HETATM   27  C17 UNL     1      33.466   9.482   3.991  1.00  0.00    -0.008 C 
BRANCH  25  28
HETATM   28  N5  UNL     1      33.306  11.253   7.303  1.00  0.00    -0.075 N 
ATOM     29  H53 UNL     1      33.363  12.242   7.061  1.00  0.00     0.274 HD
ATOM     30  H52 UNL     1      32.666  11.349   8.092  1.00  0.00     0.274 HD
ATOM     31  H51 UNL     1      34.206  10.849   7.563  1.00  0.00     0.274 HD
ENDBRANCH  25  28
BRANCH  27  32
HETATM   32  C18 UNL     1      34.305   9.987   2.866  1.00  0.00     0.010 C 
BRANCH  32  33
HETATM   33  C19 UNL     1      35.657   9.288   2.967  1.00  0.00    -0.014 C 
HETATM   34  C20 UNL     1      35.474   7.803   2.797  1.00  0.00     0.005 C 
HETATM   35  C21 UNL     1      36.575   7.790   1.736  1.00  0.00     0.001 C 
HETATM   36  C22 UNL     1      36.405   9.310   1.658  1.00  0.00     0.005 C 
ENDBRANCH  32  33
ENDBRANCH  27  32
ENDBRANCH  21  22
ENDBRANCH   1  21
TORSDOF 10
ENDMDL
