MODEL 1
REMARK VINA RESULT: -9.511854233      0.000      0.000
REMARK  9 active torsions:
REMARK  status: ('A' for Active; 'I' for Inactive)
REMARK       I    between atoms: C1_4  and  N2_5 
REMARK       I    between atoms: C1_4  and  N4_19 
REMARK       I    between atoms: N2_5  and  C2_7 
REMARK       I    between atoms: C2_7  and  N3_9 
REMARK    1  A    between atoms: N3_9  and  C3_11 
REMARK    2  A    between atoms: C3_11  and  C4_12 
REMARK    3  A    between atoms: C4_12  and  C5_13 
REMARK    4  A    between atoms: C5_13  and  C6_14 
REMARK    5  A    between atoms: C6_14  and  C7_15 
REMARK    6  A    between atoms: C7_15  and  C8_16 
REMARK    7  A    between atoms: C10_21  and  C11_22 
REMARK       I    between atoms: N5_25  and  C12_26 
REMARK    8  A    between atoms: C12_26  and  C13_28 
REMARK    9  A    between atoms: C13_28  and  C14_29 
ROOT
HETATM    1  N1  UNL     1      36.470   6.424   2.858  1.00  0.00    -0.234 N 
ATOM      2  H11 UNL     1      36.643   7.393   3.126  1.00  0.00     0.174 HD
ATOM      3  H12 UNL     1      37.004   5.613   3.170  1.00  0.00     0.174 HD
HETATM    4  C1  UNL     1      35.454   6.208   2.033  1.00  0.00     0.679 C 
HETATM    5  N2  UNL     1      35.219   4.895   1.668  1.00  0.00    -0.142 N 
ATOM      6  H2  UNL     1      35.855   4.204   2.066  1.00  0.00     0.189 HD
HETATM    7  C2  UNL     1      34.201   4.377   0.808  1.00  0.00     0.334 C 
HETATM    8  O1  UNL     1      33.399   5.189   0.308  1.00  0.00    -0.247 OA
HETATM    9  N3  UNL     1      34.105   3.000   0.527  1.00  0.00    -0.342 N 
ATOM     10  H3  UNL     1      34.762   2.359   0.971  1.00  0.00     0.164 HD
HETATM   11  N4  UNL     1      34.708   7.341   1.595  1.00  0.00    -0.199 N 
HETATM   12  C9  UNL     1      34.896   8.042   0.372  1.00  0.00     0.179 C 
HETATM   13  C10 UNL     1      33.609   8.772   0.126  1.00  0.00     0.208 C 
HETATM   14  N5  UNL     1      32.950   8.818   1.376  1.00  0.00    -0.319 N 
HETATM   15  C12 UNL     1      31.763   9.518   1.687  1.00  0.00     0.222 C 
HETATM   16  O6  UNL     1      31.172  10.159   0.792  1.00  0.00    -0.273 OA
HETATM   17  C19 UNL     1      33.655   8.002   2.318  1.00  0.00     0.271 C 
ENDROOT
BRANCH   9  18
HETATM   18  C3  UNL     1      33.117   2.471  -0.357  1.00  0.00     0.124 C 
BRANCH  18  19
HETATM   19  C4  UNL     1      31.772   2.438   0.317  1.00  0.00     0.020 C 
BRANCH  19  20
HETATM   20  C5  UNL     1      30.732   1.759  -0.553  1.00  0.00     0.002 C 
BRANCH  20  21
HETATM   21  C6  UNL     1      29.730   1.080   0.338  1.00  0.00     0.010 C 
BRANCH  21  22
HETATM   22  C7  UNL     1      28.494   0.597  -0.379  1.00  0.00     0.113 C 
BRANCH  22  23
HETATM   23  C8  UNL     1      27.366   0.395   0.593  1.00  0.00     0.172 C 
HETATM   24  O2  UNL     1      26.335   1.109   0.579  1.00  0.00    -0.648 OA
HETATM   25  O3  UNL     1      27.441  -0.603   1.542  1.00  0.00    -0.648 OA
ENDBRANCH  22  23
ENDBRANCH  21  22
ENDBRANCH  20  21
ENDBRANCH  19  20
ENDBRANCH  18  19
ENDBRANCH   9  18
BRANCH  13  26
HETATM   26  C11 UNL     1      33.879  10.100  -0.489  1.00  0.00     0.198 C 
HETATM   27  O4  UNL     1      33.757  10.258  -1.710  1.00  0.00    -0.646 OA
HETATM   28  O5  UNL     1      34.266  11.152   0.310  1.00  0.00    -0.646 OA
ENDBRANCH  13  26
BRANCH  15  29
HETATM   29  C13 UNL     1      31.168   9.535   3.046  1.00  0.00     0.107 C 
BRANCH  29  30
HETATM   30  C14 UNL     1      31.511  10.822   3.775  1.00  0.00    -0.006 C 
HETATM   31  C15 UNL     1      30.893  10.759   5.144  1.00  0.00     0.005 C 
HETATM   32  C16 UNL     1      32.021  11.011   6.128  1.00  0.00     0.000 C 
HETATM   33  C17 UNL     1      33.198  10.432   5.370  1.00  0.00     0.000 C 
HETATM   34  C18 UNL     1      32.999  10.961   3.984  1.00  0.00     0.005 C 
ENDBRANCH  29  30
ENDBRANCH  15  29
TORSDOF 9
ENDMDL
MODEL 2
REMARK VINA RESULT: -8.974912110      1.841      2.830
REMARK  9 active torsions:
REMARK  status: ('A' for Active; 'I' for Inactive)
REMARK       I    between atoms: C1_4  and  N2_5 
REMARK       I    between atoms: C1_4  and  N4_19 
REMARK       I    between atoms: N2_5  and  C2_7 
REMARK       I    between atoms: C2_7  and  N3_9 
REMARK    1  A    between atoms: N3_9  and  C3_11 
REMARK    2  A    between atoms: C3_11  and  C4_12 
REMARK    3  A    between atoms: C4_12  and  C5_13 
REMARK    4  A    between atoms: C5_13  and  C6_14 
REMARK    5  A    between atoms: C6_14  and  C7_15 
REMARK    6  A    between atoms: C7_15  and  C8_16 
REMARK    7  A    between atoms: C10_21  and  C11_22 
REMARK       I    between atoms: N5_25  and  C12_26 
REMARK    8  A    between atoms: C12_26  and  C13_28 
REMARK    9  A    between atoms: C13_28  and  C14_29 
ROOT
HETATM    1  N1  UNL     1      36.792   8.956   1.148  1.00  0.00    -0.234 N 
ATOM      2  H11 UNL     1      36.606   9.958   1.116  1.00  0.00     0.174 HD
ATOM      3  H12 UNL     1      37.675   8.505   0.908  1.00  0.00     0.174 HD
HETATM    4  C1  UNL     1      35.793   8.177   1.542  1.00  0.00     0.679 C 
HETATM    5  N2  UNL     1      36.045   6.818   1.585  1.00  0.00    -0.142 N 
ATOM      6  H2  UNL     1      36.983   6.532   1.303  1.00  0.00     0.189 HD
HETATM    7  C2  UNL     1      35.165   5.760   1.972  1.00  0.00     0.334 C 
HETATM    8  O1  UNL     1      34.013   6.070   2.331  1.00  0.00    -0.247 OA
HETATM    9  N3  UNL     1      35.578   4.413   1.949  1.00  0.00    -0.342 N 
ATOM     10  H3  UNL     1      36.536   4.195   1.673  1.00  0.00     0.164 HD
HETATM   11  N4  UNL     1      34.559   8.807   1.876  1.00  0.00    -0.199 N 
HETATM   12  C9  UNL     1      33.437   8.954   1.015  1.00  0.00     0.179 C 
HETATM   13  C10 UNL     1      32.264   9.182   1.920  1.00  0.00     0.208 C 
HETATM   14  N5  UNL     1      32.809   9.588   3.160  1.00  0.00    -0.319 N 
HETATM   15  C12 UNL     1      32.100  10.046   4.292  1.00  0.00     0.222 C 
HETATM   16  O6  UNL     1      30.852  10.091   4.263  1.00  0.00    -0.273 OA
HETATM   17  C19 UNL     1      34.233   9.436   3.128  1.00  0.00     0.271 C 
ENDROOT
BRANCH   9  18
HETATM   18  C3  UNL     1      34.701   3.343   2.299  1.00  0.00     0.124 C 
BRANCH  18  19
HETATM   19  C4  UNL     1      34.303   2.568   1.072  1.00  0.00     0.020 C 
BRANCH  19  20
HETATM   20  C5  UNL     1      33.228   3.290   0.284  1.00  0.00     0.002 C 
BRANCH  20  21
HETATM   21  C6  UNL     1      31.919   2.580   0.494  1.00  0.00     0.010 C 
BRANCH  21  22
HETATM   22  C7  UNL     1      31.454   1.778  -0.696  1.00  0.00     0.113 C 
BRANCH  22  23
HETATM   23  C8  UNL     1      30.017   1.373  -0.528  1.00  0.00     0.172 C 
HETATM   24  O2  UNL     1      29.105   1.821  -1.262  1.00  0.00    -0.648 OA
HETATM   25  O3  UNL     1      29.661   0.476   0.459  1.00  0.00    -0.648 OA
ENDBRANCH  22  23
ENDBRANCH  21  22
ENDBRANCH  20  21
ENDBRANCH  19  20
ENDBRANCH  18  19
ENDBRANCH   9  18
BRANCH  13  26
HETATM   26  C11 UNL     1      31.318  10.152   1.305  1.00  0.00     0.198 C 
HETATM   27  O4  UNL     1      31.685  11.305   1.048  1.00  0.00    -0.646 OA
HETATM   28  O5  UNL     1      30.029   9.757   1.025  1.00  0.00    -0.646 OA
ENDBRANCH  13  26
BRANCH  15  29
HETATM   29  C13 UNL     1      32.771  10.488   5.541  1.00  0.00     0.107 C 
BRANCH  29  30
HETATM   30  C14 UNL     1      32.723  11.999   5.680  1.00  0.00    -0.006 C 
HETATM   31  C15 UNL     1      33.759  12.405   6.689  1.00  0.00     0.005 C 
HETATM   32  C16 UNL     1      34.633  13.439   6.005  1.00  0.00     0.000 C 
HETATM   33  C17 UNL     1      34.550  12.979   4.565  1.00  0.00     0.000 C 
HETATM   34  C18 UNL     1      33.093  12.685   4.388  1.00  0.00     0.005 C 
ENDBRANCH  29  30
ENDBRANCH  15  29
TORSDOF 9
ENDMDL
MODEL 3
REMARK VINA RESULT: -8.881826376      5.866      8.731
REMARK  9 active torsions:
REMARK  status: ('A' for Active; 'I' for Inactive)
REMARK       I    between atoms: C1_4  and  N2_5 
REMARK       I    between atoms: C1_4  and  N4_19 
REMARK       I    between atoms: N2_5  and  C2_7 
REMARK       I    between atoms: C2_7  and  N3_9 
REMARK    1  A    between atoms: N3_9  and  C3_11 
REMARK    2  A    between atoms: C3_11  and  C4_12 
REMARK    3  A    between atoms: C4_12  and  C5_13 
REMARK    4  A    between atoms: C5_13  and  C6_14 
REMARK    5  A    between atoms: C6_14  and  C7_15 
REMARK    6  A    between atoms: C7_15  and  C8_16 
REMARK    7  A    between atoms: C10_21  and  C11_22 
REMARK       I    between atoms: N5_25  and  C12_26 
REMARK    8  A    between atoms: C12_26  and  C13_28 
REMARK    9  A    between atoms: C13_28  and  C14_29 
ROOT
HETATM    1  N1  UNL     1      32.807  10.698   7.212  1.00  0.00    -0.234 N 
ATOM      2  H11 UNL     1      32.588  11.188   8.079  1.00  0.00     0.174 HD
ATOM      3  H12 UNL     1      32.346   9.856   6.868  1.00  0.00     0.174 HD
HETATM    4  C1  UNL     1      33.776  11.213   6.466  1.00  0.00     0.679 C 
HETATM    5  N2  UNL     1      34.074  10.550   5.291  1.00  0.00    -0.142 N 
ATOM      6  H2  UNL     1      33.521   9.714   5.101  1.00  0.00     0.189 HD
HETATM    7  C2  UNL     1      35.055  10.881   4.304  1.00  0.00     0.334 C 
HETATM    8  O1  UNL     1      35.746  11.900   4.496  1.00  0.00    -0.247 OA
HETATM    9  N3  UNL     1      35.242  10.086   3.156  1.00  0.00    -0.342 N 
ATOM     10  H3  UNL     1      34.644   9.271   3.017  1.00  0.00     0.164 HD
HETATM   11  N4  UNL     1      34.421  12.390   6.946  1.00  0.00    -0.199 N 
HETATM   12  C9  UNL     1      35.643  12.435   7.672  1.00  0.00     0.179 C 
HETATM   13  C10 UNL     1      36.162  13.831   7.498  1.00  0.00     0.208 C 
HETATM   14  N5  UNL     1      35.052  14.604   7.087  1.00  0.00    -0.319 N 
HETATM   15  C12 UNL     1      35.005  16.007   6.925  1.00  0.00     0.222 C 
HETATM   16  O6  UNL     1      36.035  16.686   7.122  1.00  0.00    -0.273 OA
HETATM   17  C19 UNL     1      33.943  13.740   6.815  1.00  0.00     0.271 C 
ENDROOT
BRANCH   9  18
HETATM   18  C3  UNL     1      36.240  10.382   2.181  1.00  0.00     0.124 C 
BRANCH  18  19
HETATM   19  C4  UNL     1      36.485   9.187   1.300  1.00  0.00     0.020 C 
BRANCH  19  20
HETATM   20  C5  UNL     1      36.766   7.942   2.119  1.00  0.00     0.002 C 
BRANCH  20  21
HETATM   21  C6  UNL     1      35.880   6.832   1.625  1.00  0.00     0.010 C 
BRANCH  21  22
HETATM   22  C7  UNL     1      35.082   6.151   2.709  1.00  0.00     0.113 C 
BRANCH  22  23
HETATM   23  C8  UNL     1      34.886   4.698   2.384  1.00  0.00     0.172 C 
HETATM   24  O2  UNL     1      34.142   4.315   1.450  1.00  0.00    -0.648 OA
HETATM   25  O3  UNL     1      35.536   3.729   3.121  1.00  0.00    -0.648 OA
ENDBRANCH  22  23
ENDBRANCH  21  22
ENDBRANCH  20  21
ENDBRANCH  19  20
ENDBRANCH  18  19
ENDBRANCH   9  18
BRANCH  13  26
HETATM   26  C11 UNL     1      36.822  14.296   8.748  1.00  0.00     0.198 C 
HETATM   27  O4  UNL     1      36.145  14.569   9.746  1.00  0.00    -0.646 OA
HETATM   28  O5  UNL     1      38.192  14.423   8.785  1.00  0.00    -0.646 OA
ENDBRANCH  13  26
BRANCH  15  29
HETATM   29  C13 UNL     1      33.774  16.733   6.525  1.00  0.00     0.107 C 
BRANCH  29  30
HETATM   30  C14 UNL     1      34.047  18.216   6.353  1.00  0.00    -0.006 C 
HETATM   31  C15 UNL     1      33.305  18.687   5.134  1.00  0.00     0.005 C 
HETATM   32  C16 UNL     1      32.452  19.858   5.585  1.00  0.00     0.000 C 
HETATM   33  C17 UNL     1      32.174  19.473   7.024  1.00  0.00     0.000 C 
HETATM   34  C18 UNL     1      33.511  19.015   7.515  1.00  0.00     0.005 C 
ENDBRANCH  29  30
ENDBRANCH  15  29
TORSDOF 9
ENDMDL
MODEL 4
REMARK VINA RESULT: -8.853909566      6.160      8.599
REMARK  9 active torsions:
REMARK  status: ('A' for Active; 'I' for Inactive)
REMARK       I    between atoms: C1_4  and  N2_5 
REMARK       I    between atoms: C1_4  and  N4_19 
REMARK       I    between atoms: N2_5  and  C2_7 
REMARK       I    between atoms: C2_7  and  N3_9 
REMARK    1  A    between atoms: N3_9  and  C3_11 
REMARK    2  A    between atoms: C3_11  and  C4_12 
REMARK    3  A    between atoms: C4_12  and  C5_13 
REMARK    4  A    between atoms: C5_13  and  C6_14 
REMARK    5  A    between atoms: C6_14  and  C7_15 
REMARK    6  A    between atoms: C7_15  and  C8_16 
REMARK    7  A    between atoms: C10_21  and  C11_22 
REMARK       I    between atoms: N5_25  and  C12_26 
REMARK    8  A    between atoms: C12_26  and  C13_28 
REMARK    9  A    between atoms: C13_28  and  C14_29 
ROOT
HETATM    1  N1  UNL     1      31.066  13.145   6.357  1.00  0.00    -0.234 N 
ATOM      2  H11 UNL     1      31.735  13.273   7.117  1.00  0.00     0.174 HD
ATOM      3  H12 UNL     1      30.053  13.238   6.430  1.00  0.00     0.174 HD
HETATM    4  C1  UNL     1      31.568  12.835   5.169  1.00  0.00     0.679 C 
HETATM    5  N2  UNL     1      30.663  12.662   4.138  1.00  0.00    -0.142 N 
ATOM      6  H2  UNL     1      29.681  12.784   4.386  1.00  0.00     0.189 HD
HETATM    7  C2  UNL     1      30.921  12.335   2.770  1.00  0.00     0.334 C 
HETATM    8  O1  UNL     1      32.109  12.185   2.426  1.00  0.00    -0.247 OA
HETATM    9  N3  UNL     1      29.874  12.182   1.840  1.00  0.00    -0.342 N 
ATOM     10  H3  UNL     1      28.913  12.334   2.148  1.00  0.00     0.164 HD
HETATM   11  N4  UNL     1      32.984  12.704   5.066  1.00  0.00    -0.199 N 
HETATM   12  C9  UNL     1      33.716  11.487   5.131  1.00  0.00     0.179 C 
HETATM   13  C10 UNL     1      35.033  11.775   4.475  1.00  0.00     0.208 C 
HETATM   14  N5  UNL     1      35.162  13.183   4.475  1.00  0.00    -0.319 N 
HETATM   15  C12 UNL     1      36.293  13.934   4.086  1.00  0.00     0.222 C 
HETATM   16  O6  UNL     1      37.308  13.344   3.658  1.00  0.00    -0.273 OA
HETATM   17  C19 UNL     1      33.932  13.774   4.910  1.00  0.00     0.271 C 
ENDROOT
BRANCH   9  18
HETATM   18  C3  UNL     1      30.112  11.821   0.480  1.00  0.00     0.124 C 
BRANCH  18  19
HETATM   19  C4  UNL     1      30.191  10.325   0.340  1.00  0.00     0.020 C 
BRANCH  19  20
HETATM   20  C5  UNL     1      30.507   9.917  -1.086  1.00  0.00     0.002 C 
BRANCH  20  21
HETATM   21  C6  UNL     1      31.741   9.058  -1.078  1.00  0.00     0.010 C 
BRANCH  21  22
HETATM   22  C7  UNL     1      32.661   9.310   0.090  1.00  0.00     0.113 C 
BRANCH  22  23
HETATM   23  C8  UNL     1      33.833  10.148  -0.335  1.00  0.00     0.172 C 
HETATM   24  O2  UNL     1      34.239  10.180  -1.521  1.00  0.00    -0.648 OA
HETATM   25  O3  UNL     1      34.504  10.922   0.591  1.00  0.00    -0.648 OA
ENDBRANCH  22  23
ENDBRANCH  21  22
ENDBRANCH  20  21
ENDBRANCH  19  20
ENDBRANCH  18  19
ENDBRANCH   9  18
BRANCH  13  26
HETATM   26  C11 UNL     1      36.127  11.045   5.172  1.00  0.00     0.198 C 
HETATM   27  O4  UNL     1      36.285  11.174   6.391  1.00  0.00    -0.646 OA
HETATM   28  O5  UNL     1      36.965  10.227   4.448  1.00  0.00    -0.646 OA
ENDBRANCH  13  26
BRANCH  15  29
HETATM   29  C13 UNL     1      36.343  15.415   4.160  1.00  0.00     0.107 C 
BRANCH  29  30
HETATM   30  C14 UNL     1      37.681  15.890   4.698  1.00  0.00    -0.006 C 
HETATM   31  C15 UNL     1      38.355  16.693   3.622  1.00  0.00     0.005 C 
HETATM   32  C16 UNL     1      38.695  18.034   4.247  1.00  0.00     0.000 C 
HETATM   33  C17 UNL     1      37.573  18.174   5.255  1.00  0.00     0.000 C 
HETATM   34  C18 UNL     1      37.507  16.814   5.877  1.00  0.00     0.005 C 
ENDBRANCH  29  30
ENDBRANCH  15  29
TORSDOF 9
ENDMDL
MODEL 5
REMARK VINA RESULT: -8.786406893      6.845      9.890
REMARK  9 active torsions:
REMARK  status: ('A' for Active; 'I' for Inactive)
REMARK       I    between atoms: C1_4  and  N2_5 
REMARK       I    between atoms: C1_4  and  N4_19 
REMARK       I    between atoms: N2_5  and  C2_7 
REMARK       I    between atoms: C2_7  and  N3_9 
REMARK    1  A    between atoms: N3_9  and  C3_11 
REMARK    2  A    between atoms: C3_11  and  C4_12 
REMARK    3  A    between atoms: C4_12  and  C5_13 
REMARK    4  A    between atoms: C5_13  and  C6_14 
REMARK    5  A    between atoms: C6_14  and  C7_15 
REMARK    6  A    between atoms: C7_15  and  C8_16 
REMARK    7  A    between atoms: C10_21  and  C11_22 
REMARK       I    between atoms: N5_25  and  C12_26 
REMARK    8  A    between atoms: C12_26  and  C13_28 
REMARK    9  A    between atoms: C13_28  and  C14_29 
ROOT
HETATM    1  N1  UNL     1      32.277  13.936   6.585  1.00  0.00    -0.234 N 
ATOM      2  H11 UNL     1      32.245  14.509   7.428  1.00  0.00     0.174 HD
ATOM      3  H12 UNL     1      31.470  13.557   6.089  1.00  0.00     0.174 HD
HETATM    4  C1  UNL     1      33.479  13.670   6.090  1.00  0.00     0.679 C 
HETATM    5  N2  UNL     1      33.522  12.893   4.947  1.00  0.00    -0.142 N 
ATOM      6  H2  UNL     1      32.619  12.587   4.585  1.00  0.00     0.189 HD
HETATM    7  C2  UNL     1      34.666  12.462   4.205  1.00  0.00     0.334 C 
HETATM    8  O1  UNL     1      35.788  12.821   4.612  1.00  0.00    -0.247 OA
HETATM    9  N3  UNL     1      34.537  11.656   3.056  1.00  0.00    -0.342 N 
ATOM     10  H3  UNL     1      33.604  11.399   2.736  1.00  0.00     0.164 HD
HETATM   11  N4  UNL     1      34.607  14.199   6.782  1.00  0.00    -0.199 N 
HETATM   12  C9  UNL     1      35.401  13.506   7.737  1.00  0.00     0.179 C 
HETATM   13  C10 UNL     1      36.707  14.241   7.783  1.00  0.00     0.208 C 
HETATM   14  N5  UNL     1      36.450  15.514   7.224  1.00  0.00    -0.319 N 
HETATM   15  C12 UNL     1      37.335  16.614   7.170  1.00  0.00     0.222 C 
HETATM   16  O6  UNL     1      38.493  16.497   7.622  1.00  0.00    -0.273 OA
HETATM   17  C19 UNL     1      35.130  15.533   6.668  1.00  0.00     0.271 C 
ENDROOT
BRANCH   9  18
HETATM   18  C3  UNL     1      35.670  11.188   2.326  1.00  0.00     0.124 C 
BRANCH  18  19
HETATM   19  C4  UNL     1      35.338   9.911   1.603  1.00  0.00     0.020 C 
BRANCH  19  20
HETATM   20  C5  UNL     1      36.568   9.047   1.409  1.00  0.00     0.002 C 
BRANCH  20  21
HETATM   21  C6  UNL     1      36.143   7.605   1.385  1.00  0.00     0.010 C 
BRANCH  21  22
HETATM   22  C7  UNL     1      35.589   7.102   2.695  1.00  0.00     0.113 C 
BRANCH  22  23
HETATM   23  C8  UNL     1      34.694   5.918   2.469  1.00  0.00     0.172 C 
HETATM   24  O2  UNL     1      34.689   4.926   3.237  1.00  0.00    -0.648 OA
HETATM   25  O3  UNL     1      33.837   5.894   1.387  1.00  0.00    -0.648 OA
ENDBRANCH  22  23
ENDBRANCH  21  22
ENDBRANCH  20  21
ENDBRANCH  19  20
ENDBRANCH  18  19
ENDBRANCH   9  18
BRANCH  13  26
HETATM   26  C11 UNL     1      37.239  14.263   9.172  1.00  0.00     0.198 C 
HETATM   27  O4  UNL     1      36.496  14.543  10.121  1.00  0.00    -0.646 OA
HETATM   28  O5  UNL     1      38.565  13.970   9.396  1.00  0.00    -0.646 OA
ENDBRANCH  13  26
BRANCH  15  29
HETATM   29  C13 UNL     1      36.955  17.928   6.593  1.00  0.00     0.107 C 
BRANCH  29  30
HETATM   30  C14 UNL     1      37.085  19.034   7.625  1.00  0.00    -0.006 C 
HETATM   31  C15 UNL     1      36.966  20.351   6.911  1.00  0.00     0.005 C 
HETATM   32  C16 UNL     1      35.860  21.114   7.615  1.00  0.00     0.000 C 
HETATM   33  C17 UNL     1      34.977  19.975   8.082  1.00  0.00     0.000 C 
HETATM   34  C18 UNL     1      35.961  18.989   8.630  1.00  0.00     0.005 C 
ENDBRANCH  29  30
ENDBRANCH  15  29
TORSDOF 9
ENDMDL
