MODEL 1
REMARK VINA RESULT: -8.521898853      0.000      0.000
REMARK  13 active torsions:
REMARK  status: ('A' for Active; 'I' for Inactive)
REMARK    1  A    between atoms: C2_2  and  N1_3 
REMARK    2  A    between atoms: N1_3  and  C3_4 
REMARK    3  A    between atoms: N1_3  and  C5_10 
REMARK    4  A    between atoms: C3_4  and  C4_5 
REMARK    5  A    between atoms: C4_5  and  N2_6 
REMARK    6  A    between atoms: C5_10  and  C6_14 
REMARK    7  A    between atoms: C14_22  and  O1_23 
REMARK    8  A    between atoms: C15_27  and  C16_28 
REMARK    9  A    between atoms: C16_28  and  C17_29 
REMARK   10  A    between atoms: C17_29  and  N5_30 
REMARK   11  A    between atoms: N5_30  and  C20_33 
REMARK   12  A    between atoms: C20_33  and  C21_34 
REMARK   13  A    between atoms: C21_34  and  O2_35 
ROOT
HETATM    1  C6  UNL     1      28.181  10.256  -1.354  1.00  0.00     0.009 A 
HETATM    2  C7  UNL     1      28.921   9.562  -2.263  1.00  0.00     0.024 A 
HETATM    3  C8  UNL     1      30.296   9.330  -2.186  1.00  0.00    -0.033 A 
HETATM    4  C9  UNL     1      31.002   8.563  -3.215  1.00  0.00     0.050 C 
HETATM    5  C10 UNL     1      30.967   9.847  -1.098  1.00  0.00     0.052 A 
HETATM    6  C11 UNL     1      30.247  10.568  -0.136  1.00  0.00     0.009 A 
HETATM    7  C12 UNL     1      28.893  10.772  -0.251  1.00  0.00     0.030 A 
HETATM    8  C13 UNL     1      31.142  10.966   0.840  1.00  0.00     0.056 A 
HETATM    9  C14 UNL     1      31.237  11.641   2.012  1.00  0.00     0.154 A 
HETATM   10  N4  UNL     1      32.519  11.603   2.397  1.00  0.00    -0.338 N 
ATOM     11  H4  UNL     1      32.888  12.031   3.246  1.00  0.00     0.168 HD
HETATM   12  C15 UNL     1      33.255  10.914   1.491  1.00  0.00     0.041 A 
HETATM   13  C22 UNL     1      32.390  10.506   0.499  1.00  0.00     0.073 A 
HETATM   14  N6  UNL     1      32.237   9.844  -0.665  1.00  0.00    -0.348 N 
HETATM   15  C23 UNL     1      33.310   9.184  -1.418  1.00  0.00     0.156 C 
ENDROOT
BRANCH   1  16
HETATM   16  C5  UNL     1      26.750  10.473  -1.424  1.00  0.00     0.107 C 
HETATM   17  N3  UNL     1      26.029   9.343  -1.418  1.00  0.00    -0.385 N 
ATOM     18  H32 UNL     1      25.022   9.496  -1.468  1.00  0.00     0.157 HD
ATOM     19  H31 UNL     1      26.594   8.496  -1.361  1.00  0.00     0.157 HD
BRANCH  16  20
HETATM   20  N1  UNL     1      25.982  11.627  -1.501  1.00  0.00    -0.366 N 
BRANCH  20  21
HETATM   21  C2  UNL     1      25.469  11.988  -2.863  1.00  0.00     0.120 C 
HETATM   22  C1  UNL     1      26.630  12.454  -3.674  1.00  0.00     0.026 C 
ENDBRANCH  20  21
BRANCH  20  23
HETATM   23  C3  UNL     1      25.500  12.512  -0.478  1.00  0.00     0.151 C 
BRANCH  23  24
HETATM   24  C4  UNL     1      25.431  11.942   0.895  1.00  0.00     0.249 C 
BRANCH  24  25
HETATM   25  N2  UNL     1      26.016  12.643   1.968  1.00  0.00    -0.078 N 
ATOM     26  H23 UNL     1      26.997  12.815   1.748  1.00  0.00     0.274 HD
ATOM     27  H22 UNL     1      25.642  13.593   1.978  1.00  0.00     0.274 HD
ATOM     28  H21 UNL     1      25.956  12.260   2.911  1.00  0.00     0.274 HD
ENDBRANCH  24  25
ENDBRANCH  23  24
ENDBRANCH  20  23
ENDBRANCH  16  20
ENDBRANCH   1  16
BRANCH   9  29
HETATM   29  O1  UNL     1      30.157  12.254   2.668  1.00  0.00    -0.345 OA
ATOM     30  H1  UNL     1      30.029  13.193   2.733  1.00  0.00     0.219 HD
ENDBRANCH   9  29
BRANCH  12  31
HETATM   31  C16 UNL     1      34.709  10.637   1.562  1.00  0.00     0.087 C 
BRANCH  31  32
HETATM   32  C17 UNL     1      35.171  10.283   2.928  1.00  0.00     0.242 C 
BRANCH  32  33
HETATM   33  N5  UNL     1      35.818   8.955   2.870  1.00  0.00    -0.072 N 
HETATM   34  C18 UNL     1      35.032   8.085   3.676  1.00  0.00     0.272 C 
HETATM   35  C19 UNL     1      37.130   9.091   3.515  1.00  0.00     0.272 C 
BRANCH  33  36
HETATM   36  C20 UNL     1      36.032   8.572   1.515  1.00  0.00     0.262 C 
BRANCH  36  37
HETATM   37  C21 UNL     1      35.799   7.129   1.269  1.00  0.00     0.192 C 
BRANCH  37  38
HETATM   38  O2  UNL     1      35.478   6.791  -0.039  1.00  0.00    -0.399 OA
ATOM     39  H2  UNL     1      35.954   6.050  -0.397  1.00  0.00     0.209 HD
ENDBRANCH  37  38
ENDBRANCH  36  37
ENDBRANCH  33  36
ENDBRANCH  32  33
ENDBRANCH  31  32
ENDBRANCH  12  31
TORSDOF 13
ENDMDL
MODEL 2
REMARK VINA RESULT: -8.326446254      6.251      9.314
REMARK  13 active torsions:
REMARK  status: ('A' for Active; 'I' for Inactive)
REMARK    1  A    between atoms: C2_2  and  N1_3 
REMARK    2  A    between atoms: N1_3  and  C3_4 
REMARK    3  A    between atoms: N1_3  and  C5_10 
REMARK    4  A    between atoms: C3_4  and  C4_5 
REMARK    5  A    between atoms: C4_5  and  N2_6 
REMARK    6  A    between atoms: C5_10  and  C6_14 
REMARK    7  A    between atoms: C14_22  and  O1_23 
REMARK    8  A    between atoms: C15_27  and  C16_28 
REMARK    9  A    between atoms: C16_28  and  C17_29 
REMARK   10  A    between atoms: C17_29  and  N5_30 
REMARK   11  A    between atoms: N5_30  and  C20_33 
REMARK   12  A    between atoms: C20_33  and  C21_34 
REMARK   13  A    between atoms: C21_34  and  O2_35 
ROOT
HETATM    1  C6  UNL     1      35.900   8.896   3.361  1.00  0.00     0.009 A 
HETATM    2  C7  UNL     1      35.229   8.815   4.543  1.00  0.00     0.024 A 
HETATM    3  C8  UNL     1      34.939   9.887   5.390  1.00  0.00    -0.033 A 
HETATM    4  C9  UNL     1      34.202   9.697   6.641  1.00  0.00     0.050 C 
HETATM    5  C10 UNL     1      35.368  11.138   5.000  1.00  0.00     0.052 A 
HETATM    6  C11 UNL     1      36.063  11.270   3.791  1.00  0.00     0.009 A 
HETATM    7  C12 UNL     1      36.327  10.187   2.987  1.00  0.00     0.030 A 
HETATM    8  C13 UNL     1      36.371  12.609   3.633  1.00  0.00     0.056 A 
HETATM    9  C14 UNL     1      36.976  13.491   2.800  1.00  0.00     0.154 A 
HETATM   10  N4  UNL     1      36.867  14.707   3.350  1.00  0.00    -0.338 N 
ATOM     11  H4  UNL     1      37.232  15.567   2.943  1.00  0.00     0.168 HD
HETATM   12  C15 UNL     1      36.200  14.624   4.527  1.00  0.00     0.041 A 
HETATM   13  C22 UNL     1      35.882  13.297   4.715  1.00  0.00     0.073 A 
HETATM   14  N6  UNL     1      35.291  12.378   5.505  1.00  0.00    -0.348 N 
HETATM   15  C23 UNL     1      34.632  12.652   6.788  1.00  0.00     0.156 C 
ENDROOT
BRANCH   1  16
HETATM   16  C5  UNL     1      36.177   7.785   2.473  1.00  0.00     0.107 C 
HETATM   17  N3  UNL     1      37.426   7.776   1.988  1.00  0.00    -0.385 N 
ATOM     18  H32 UNL     1      37.621   6.994   1.363  1.00  0.00     0.157 HD
ATOM     19  H31 UNL     1      38.000   8.552   2.318  1.00  0.00     0.157 HD
BRANCH  16  20
HETATM   20  N1  UNL     1      35.395   6.729   2.024  1.00  0.00    -0.366 N 
BRANCH  20  21
HETATM   21  C2  UNL     1      35.054   6.735   0.563  1.00  0.00     0.120 C 
HETATM   22  C1  UNL     1      34.058   7.819   0.336  1.00  0.00     0.026 C 
ENDBRANCH  20  21
BRANCH  20  23
HETATM   23  C3  UNL     1      34.914   5.555   2.698  1.00  0.00     0.151 C 
BRANCH  23  24
HETATM   24  C4  UNL     1      35.072   4.272   1.960  1.00  0.00     0.249 C 
BRANCH  24  25
HETATM   25  N2  UNL     1      36.096   3.379   2.332  1.00  0.00    -0.078 N 
ATOM     26  H23 UNL     1      35.863   2.977   3.240  1.00  0.00     0.274 HD
ATOM     27  H22 UNL     1      36.048   2.558   1.728  1.00  0.00     0.274 HD
ATOM     28  H21 UNL     1      37.062   3.706   2.360  1.00  0.00     0.274 HD
ENDBRANCH  24  25
ENDBRANCH  23  24
ENDBRANCH  20  23
ENDBRANCH  16  20
ENDBRANCH   1  16
BRANCH   9  29
HETATM   29  O1  UNL     1      37.595  13.145   1.587  1.00  0.00    -0.345 OA
ATOM     30  H1  UNL     1      37.291  13.421   0.730  1.00  0.00     0.219 HD
ENDBRANCH   9  29
BRANCH  12  31
HETATM   31  C16 UNL     1      35.863  15.749   5.431  1.00  0.00     0.087 C 
BRANCH  31  32
HETATM   32  C17 UNL     1      36.662  15.755   6.682  1.00  0.00     0.242 C 
BRANCH  32  33
HETATM   33  N5  UNL     1      35.825  16.310   7.767  1.00  0.00    -0.072 N 
HETATM   34  C18 UNL     1      34.489  16.333   7.278  1.00  0.00     0.272 C 
HETATM   35  C19 UNL     1      36.249  17.702   7.963  1.00  0.00     0.272 C 
BRANCH  33  36
HETATM   36  C20 UNL     1      36.063  15.603   8.980  1.00  0.00     0.262 C 
BRANCH  36  37
HETATM   37  C21 UNL     1      37.103  14.554   8.854  1.00  0.00     0.192 C 
BRANCH  37  38
HETATM   38  O2  UNL     1      36.852  13.378   9.547  1.00  0.00    -0.399 OA
ATOM     39  H2  UNL     1      36.528  13.488  10.433  1.00  0.00     0.209 HD
ENDBRANCH  37  38
ENDBRANCH  36  37
ENDBRANCH  33  36
ENDBRANCH  32  33
ENDBRANCH  31  32
ENDBRANCH  12  31
TORSDOF 13
ENDMDL
MODEL 3
REMARK VINA RESULT: -8.229153470      0.743      1.743
REMARK  13 active torsions:
REMARK  status: ('A' for Active; 'I' for Inactive)
REMARK    1  A    between atoms: C2_2  and  N1_3 
REMARK    2  A    between atoms: N1_3  and  C3_4 
REMARK    3  A    between atoms: N1_3  and  C5_10 
REMARK    4  A    between atoms: C3_4  and  C4_5 
REMARK    5  A    between atoms: C4_5  and  N2_6 
REMARK    6  A    between atoms: C5_10  and  C6_14 
REMARK    7  A    between atoms: C14_22  and  O1_23 
REMARK    8  A    between atoms: C15_27  and  C16_28 
REMARK    9  A    between atoms: C16_28  and  C17_29 
REMARK   10  A    between atoms: C17_29  and  N5_30 
REMARK   11  A    between atoms: N5_30  and  C20_33 
REMARK   12  A    between atoms: C20_33  and  C21_34 
REMARK   13  A    between atoms: C21_34  and  O2_35 
ROOT
HETATM    1  C6  UNL     1      28.360  10.389  -0.899  1.00  0.00     0.009 A 
HETATM    2  C7  UNL     1      29.075   9.774  -1.881  1.00  0.00     0.024 A 
HETATM    3  C8  UNL     1      30.457   9.577  -1.880  1.00  0.00    -0.033 A 
HETATM    4  C9  UNL     1      31.135   8.894  -2.985  1.00  0.00     0.050 C 
HETATM    5  C10 UNL     1      31.165  10.046  -0.794  1.00  0.00     0.052 A 
HETATM    6  C11 UNL     1      30.472  10.687   0.242  1.00  0.00     0.009 A 
HETATM    7  C12 UNL     1      29.109  10.859   0.200  1.00  0.00     0.030 A 
HETATM    8  C13 UNL     1      31.400  11.052   1.199  1.00  0.00     0.056 A 
HETATM    9  C14 UNL     1      31.532  11.657   2.406  1.00  0.00     0.154 A 
HETATM   10  N4  UNL     1      32.831  11.633   2.729  1.00  0.00    -0.338 N 
ATOM     11  H4  UNL     1      33.227  12.020   3.586  1.00  0.00     0.168 HD
HETATM   12  C15 UNL     1      33.541  11.021   1.750  1.00  0.00     0.041 A 
HETATM   13  C22 UNL     1      32.642  10.649   0.776  1.00  0.00     0.073 A 
HETATM   14  N6  UNL     1      32.453  10.054  -0.419  1.00  0.00    -0.348 N 
HETATM   15  C23 UNL     1      33.507   9.473  -1.259  1.00  0.00     0.156 C 
ENDROOT
BRANCH   1  16
HETATM   16  C5  UNL     1      26.922  10.569  -0.891  1.00  0.00     0.107 C 
HETATM   17  N3  UNL     1      26.232   9.424  -0.983  1.00  0.00    -0.385 N 
ATOM     18  H32 UNL     1      25.220   9.550  -0.978  1.00  0.00     0.157 HD
ATOM     19  H31 UNL     1      26.821   8.593  -1.040  1.00  0.00     0.157 HD
BRANCH  16  20
HETATM   20  N1  UNL     1      26.122  11.700  -0.812  1.00  0.00    -0.366 N 
BRANCH  20  21
HETATM   21  C2  UNL     1      25.532  12.000   0.533  1.00  0.00     0.120 C 
HETATM   22  C1  UNL     1      26.279  13.155   1.106  1.00  0.00     0.026 C 
ENDBRANCH  20  21
BRANCH  20  23
HETATM   23  C3  UNL     1      25.819  12.714  -1.785  1.00  0.00     0.151 C 
BRANCH  23  24
HETATM   24  C4  UNL     1      25.966  12.312  -3.210  1.00  0.00     0.249 C 
BRANCH  24  25
HETATM   25  N2  UNL     1      27.205  12.492  -3.857  1.00  0.00    -0.078 N 
ATOM     26  H23 UNL     1      27.909  12.717  -3.154  1.00  0.00     0.274 HD
ATOM     27  H22 UNL     1      27.533  11.585  -4.190  1.00  0.00     0.274 HD
ATOM     28  H21 UNL     1      27.280  13.166  -4.620  1.00  0.00     0.274 HD
ENDBRANCH  24  25
ENDBRANCH  23  24
ENDBRANCH  20  23
ENDBRANCH  16  20
ENDBRANCH   1  16
BRANCH   9  29
HETATM   29  O1  UNL     1      30.468  12.198   3.146  1.00  0.00    -0.345 OA
ATOM     30  H1  UNL     1      30.254  13.123   3.183  1.00  0.00     0.219 HD
ENDBRANCH   9  29
BRANCH  12  31
HETATM   31  C16 UNL     1      35.004  10.783   1.739  1.00  0.00     0.087 C 
BRANCH  31  32
HETATM   32  C17 UNL     1      35.529  10.302   3.042  1.00  0.00     0.242 C 
BRANCH  32  33
HETATM   33  N5  UNL     1      35.925   8.886   2.890  1.00  0.00    -0.072 N 
HETATM   34  C18 UNL     1      35.051   8.128   3.719  1.00  0.00     0.272 C 
HETATM   35  C19 UNL     1      37.279   8.760   3.441  1.00  0.00     0.272 C 
BRANCH  33  36
HETATM   36  C20 UNL     1      35.978   8.537   1.509  1.00  0.00     0.262 C 
BRANCH  36  37
HETATM   37  C21 UNL     1      35.537   7.148   1.237  1.00  0.00     0.192 C 
BRANCH  37  38
HETATM   38  O2  UNL     1      35.545   6.771  -0.099  1.00  0.00    -0.399 OA
ATOM     39  H2  UNL     1      34.694   6.740  -0.519  1.00  0.00     0.209 HD
ENDBRANCH  37  38
ENDBRANCH  36  37
ENDBRANCH  33  36
ENDBRANCH  32  33
ENDBRANCH  31  32
ENDBRANCH  12  31
TORSDOF 13
ENDMDL
MODEL 4
REMARK VINA RESULT: -8.212763377      1.774      2.128
REMARK  13 active torsions:
REMARK  status: ('A' for Active; 'I' for Inactive)
REMARK    1  A    between atoms: C2_2  and  N1_3 
REMARK    2  A    between atoms: N1_3  and  C3_4 
REMARK    3  A    between atoms: N1_3  and  C5_10 
REMARK    4  A    between atoms: C3_4  and  C4_5 
REMARK    5  A    between atoms: C4_5  and  N2_6 
REMARK    6  A    between atoms: C5_10  and  C6_14 
REMARK    7  A    between atoms: C14_22  and  O1_23 
REMARK    8  A    between atoms: C15_27  and  C16_28 
REMARK    9  A    between atoms: C16_28  and  C17_29 
REMARK   10  A    between atoms: C17_29  and  N5_30 
REMARK   11  A    between atoms: N5_30  and  C20_33 
REMARK   12  A    between atoms: C20_33  and  C21_34 
REMARK   13  A    between atoms: C21_34  and  O2_35 
ROOT
HETATM    1  C6  UNL     1      27.773  11.998  -0.797  1.00  0.00     0.009 A 
HETATM    2  C7  UNL     1      27.990  11.044  -1.744  1.00  0.00     0.024 A 
HETATM    3  C8  UNL     1      29.116  10.222  -1.830  1.00  0.00    -0.033 A 
HETATM    4  C9  UNL     1      29.252   9.216  -2.886  1.00  0.00     0.050 C 
HETATM    5  C10 UNL     1      30.098  10.390  -0.877  1.00  0.00     0.052 A 
HETATM    6  C11 UNL     1      29.919  11.360   0.118  1.00  0.00     0.009 A 
HETATM    7  C12 UNL     1      28.793  12.147   0.165  1.00  0.00     0.030 A 
HETATM    8  C13 UNL     1      31.030  11.322   0.940  1.00  0.00     0.056 A 
HETATM    9  C14 UNL     1      31.584  11.888   2.041  1.00  0.00     0.154 A 
HETATM   10  N4  UNL     1      32.759  11.284   2.258  1.00  0.00    -0.338 N 
ATOM     11  H4  UNL     1      33.399  11.505   3.021  1.00  0.00     0.168 HD
HETATM   12  C15 UNL     1      32.973  10.334   1.314  1.00  0.00     0.041 A 
HETATM   13  C22 UNL     1      31.882  10.351   0.474  1.00  0.00     0.073 A 
HETATM   14  N6  UNL     1      31.284   9.822  -0.612  1.00  0.00    -0.348 N 
HETATM   15  C23 UNL     1      31.833   8.750  -1.450  1.00  0.00     0.156 C 
ENDROOT
BRANCH   1  16
HETATM   16  C5  UNL     1      26.592  12.831  -0.697  1.00  0.00     0.107 C 
HETATM   17  N3  UNL     1      25.563  12.404  -1.441  1.00  0.00    -0.385 N 
ATOM     18  H32 UNL     1      24.731  12.990  -1.370  1.00  0.00     0.157 HD
ATOM     19  H31 UNL     1      25.761  11.553  -1.967  1.00  0.00     0.157 HD
BRANCH  16  20
HETATM   20  N1  UNL     1      26.323  13.989   0.020  1.00  0.00    -0.366 N 
BRANCH  20  21
HETATM   21  C2  UNL     1      26.392  15.274  -0.752  1.00  0.00     0.120 C 
HETATM   22  C1  UNL     1      27.827  15.546  -1.047  1.00  0.00     0.026 C 
ENDBRANCH  20  21
BRANCH  20  23
HETATM   23  C3  UNL     1      25.890  14.183   1.376  1.00  0.00     0.151 C 
BRANCH  23  24
HETATM   24  C4  UNL     1      26.941  14.616   2.337  1.00  0.00     0.249 C 
BRANCH  24  25
HETATM   25  N2  UNL     1      26.608  14.793   3.695  1.00  0.00    -0.078 N 
ATOM     26  H23 UNL     1      26.530  15.792   3.884  1.00  0.00     0.274 HD
ATOM     27  H22 UNL     1      25.646  14.484   3.837  1.00  0.00     0.274 HD
ATOM     28  H21 UNL     1      27.194  14.371   4.415  1.00  0.00     0.274 HD
ENDBRANCH  24  25
ENDBRANCH  23  24
ENDBRANCH  20  23
ENDBRANCH  16  20
ENDBRANCH   1  16
BRANCH   9  29
HETATM   29  O1  UNL     1      30.994  12.922   2.787  1.00  0.00    -0.345 OA
ATOM     30  H1  UNL     1      31.013  12.979   3.735  1.00  0.00     0.219 HD
ENDBRANCH   9  29
BRANCH  12  31
HETATM   31  C16 UNL     1      34.149   9.438   1.216  1.00  0.00     0.087 C 
BRANCH  31  32
HETATM   32  C17 UNL     1      34.053   8.247   2.096  1.00  0.00     0.242 C 
BRANCH  32  33
HETATM   33  N5  UNL     1      35.378   8.013   2.710  1.00  0.00    -0.072 N 
HETATM   34  C18 UNL     1      35.224   8.231   4.107  1.00  0.00     0.272 C 
HETATM   35  C19 UNL     1      36.276   9.054   2.195  1.00  0.00     0.272 C 
BRANCH  33  36
HETATM   36  C20 UNL     1      35.891   6.749   2.300  1.00  0.00     0.262 C 
BRANCH  36  37
HETATM   37  C21 UNL     1      34.842   5.714   2.138  1.00  0.00     0.192 C 
BRANCH  37  38
HETATM   38  O2  UNL     1      34.687   4.848   3.212  1.00  0.00    -0.399 OA
ATOM     39  H2  UNL     1      33.910   4.988   3.741  1.00  0.00     0.209 HD
ENDBRANCH  37  38
ENDBRANCH  36  37
ENDBRANCH  33  36
ENDBRANCH  32  33
ENDBRANCH  31  32
ENDBRANCH  12  31
TORSDOF 13
ENDMDL
MODEL 5
REMARK VINA RESULT: -8.201836225      2.363      3.638
REMARK  13 active torsions:
REMARK  status: ('A' for Active; 'I' for Inactive)
REMARK    1  A    between atoms: C2_2  and  N1_3 
REMARK    2  A    between atoms: N1_3  and  C3_4 
REMARK    3  A    between atoms: N1_3  and  C5_10 
REMARK    4  A    between atoms: C3_4  and  C4_5 
REMARK    5  A    between atoms: C4_5  and  N2_6 
REMARK    6  A    between atoms: C5_10  and  C6_14 
REMARK    7  A    between atoms: C14_22  and  O1_23 
REMARK    8  A    between atoms: C15_27  and  C16_28 
REMARK    9  A    between atoms: C16_28  and  C17_29 
REMARK   10  A    between atoms: C17_29  and  N5_30 
REMARK   11  A    between atoms: N5_30  and  C20_33 
REMARK   12  A    between atoms: C20_33  and  C21_34 
REMARK   13  A    between atoms: C21_34  and  O2_35 
ROOT
HETATM    1  C6  UNL     1      28.451  12.930   0.253  1.00  0.00     0.009 A 
HETATM    2  C7  UNL     1      29.129  13.348   1.358  1.00  0.00     0.024 A 
HETATM    3  C8  UNL     1      30.321  12.803   1.837  1.00  0.00    -0.033 A 
HETATM    4  C9  UNL     1      30.979  13.331   3.035  1.00  0.00     0.050 C 
HETATM    5  C10 UNL     1      30.864  11.747   1.135  1.00  0.00     0.052 A 
HETATM    6  C11 UNL     1      30.202  11.281  -0.008  1.00  0.00     0.009 A 
HETATM    7  C12 UNL     1      29.029  11.849  -0.445  1.00  0.00     0.030 A 
HETATM    8  C13 UNL     1      30.946  10.236  -0.522  1.00  0.00     0.056 A 
HETATM    9  C14 UNL     1      30.990   9.328  -1.529  1.00  0.00     0.154 A 
HETATM   10  N4  UNL     1      32.095   8.591  -1.361  1.00  0.00    -0.338 N 
ATOM     11  H4  UNL     1      32.387   7.828  -1.972  1.00  0.00     0.168 HD
HETATM   12  C15 UNL     1      32.768   9.009  -0.261  1.00  0.00     0.041 A 
HETATM   13  C22 UNL     1      32.046  10.051   0.278  1.00  0.00     0.073 A 
HETATM   14  N6  UNL     1      31.955  10.975   1.255  1.00  0.00    -0.348 N 
HETATM   15  C23 UNL     1      32.912  11.153   2.354  1.00  0.00     0.156 C 
ENDROOT
BRANCH   1  16
HETATM   16  C5  UNL     1      27.228  13.515  -0.255  1.00  0.00     0.107 C 
HETATM   17  N3  UNL     1      26.792  12.958  -1.393  1.00  0.00    -0.385 N 
ATOM     18  H32 UNL     1      25.930  13.370  -1.751  1.00  0.00     0.157 HD
ATOM     19  H31 UNL     1      27.384  12.200  -1.733  1.00  0.00     0.157 HD
BRANCH  16  20
HETATM   20  N1  UNL     1      26.422  14.546   0.208  1.00  0.00    -0.366 N 
BRANCH  20  21
HETATM   21  C2  UNL     1      26.299  15.742  -0.688  1.00  0.00     0.120 C 
HETATM   22  C1  UNL     1      27.642  16.383  -0.772  1.00  0.00     0.026 C 
ENDBRANCH  20  21
BRANCH  20  23
HETATM   23  C3  UNL     1      25.589  14.644   1.375  1.00  0.00     0.151 C 
BRANCH  23  24
HETATM   24  C4  UNL     1      26.134  15.460   2.495  1.00  0.00     0.249 C 
BRANCH  24  25
HETATM   25  N2  UNL     1      26.642  14.814   3.639  1.00  0.00    -0.078 N 
ATOM     26  H23 UNL     1      26.055  14.006   3.844  1.00  0.00     0.274 HD
ATOM     27  H22 UNL     1      27.526  14.366   3.394  1.00  0.00     0.274 HD
ATOM     28  H21 UNL     1      26.775  15.346   4.499  1.00  0.00     0.274 HD
ENDBRANCH  24  25
ENDBRANCH  23  24
ENDBRANCH  20  23
ENDBRANCH  16  20
ENDBRANCH   1  16
BRANCH   9  29
HETATM   29  O1  UNL     1      30.024   9.218  -2.544  1.00  0.00    -0.345 OA
ATOM     30  H1  UNL     1      30.024   8.547  -3.216  1.00  0.00     0.219 HD
ENDBRANCH   9  29
BRANCH  12  31
HETATM   31  C16 UNL     1      34.044   8.459   0.254  1.00  0.00     0.087 C 
BRANCH  31  32
HETATM   32  C17 UNL     1      33.893   7.742   1.545  1.00  0.00     0.242 C 
BRANCH  32  33
HETATM   33  N5  UNL     1      35.207   7.725   2.224  1.00  0.00    -0.072 N 
HETATM   34  C18 UNL     1      34.985   8.190   3.550  1.00  0.00     0.272 C 
HETATM   35  C19 UNL     1      36.052   8.713   1.542  1.00  0.00     0.272 C 
BRANCH  33  36
HETATM   36  C20 UNL     1      35.819   6.447   2.075  1.00  0.00     0.262 C 
BRANCH  36  37
HETATM   37  C21 UNL     1      34.844   5.331   2.031  1.00  0.00     0.192 C 
BRANCH  37  38
HETATM   38  O2  UNL     1      34.662   4.650   3.227  1.00  0.00    -0.399 OA
ATOM     39  H2  UNL     1      35.114   3.817   3.296  1.00  0.00     0.209 HD
ENDBRANCH  37  38
ENDBRANCH  36  37
ENDBRANCH  33  36
ENDBRANCH  32  33
ENDBRANCH  31  32
ENDBRANCH  12  31
TORSDOF 13
ENDMDL
