MODEL 1
REMARK VINA RESULT: -7.638438046      0.000      0.000
REMARK  8 active torsions:
REMARK  status: ('A' for Active; 'I' for Inactive)
REMARK    1  A    between atoms: C2_2  and  C3_3 
REMARK    2  A    between atoms: C3_3  and  C4_4 
REMARK    3  A    between atoms: C4_4  and  O1_5 
REMARK    4  A    between atoms: O1_5  and  C5_6 
REMARK    5  A    between atoms: C5_6  and  C6_7 
REMARK    6  A    between atoms: C6_7  and  C7_8 
REMARK    7  A    between atoms: C7_8  and  N1_9 
REMARK    8  A    between atoms: N1_9  and  C8_10 
ROOT
HETATM    1  C6  UNL     1      35.380   8.610   2.247  1.00  0.00     0.116 C 
HETATM    2  C11 UNL     1      36.790   8.296   1.750  1.00  0.00     0.164 C 
HETATM    3  N5  UNL     1      37.494   8.233   3.027  1.00  0.00    -0.340 N 
ATOM      4  H5  UNL     1      38.285   7.636   3.265  1.00  0.00     0.164 HD
HETATM    5  C12 UNL     1      36.849   9.180   3.871  1.00  0.00     0.317 C 
HETATM    6  O2  UNL     1      37.207   9.542   5.017  1.00  0.00    -0.247 OA
HETATM    7  N6  UNL     1      35.676   9.670   3.163  1.00  0.00    -0.324 N 
ATOM      8  H6  UNL     1      35.184  10.555   3.289  1.00  0.00     0.165 HD
ENDROOT
BRANCH   1   9
HETATM    9  C5  UNL     1      34.462   8.860   1.135  1.00  0.00     0.207 C 
BRANCH   9  10
HETATM   10  O1  UNL     1      34.846   9.658   0.117  1.00  0.00    -0.388 OA
BRANCH  10  11
HETATM   11  C4  UNL     1      33.898  10.174  -0.675  1.00  0.00     0.167 C 
BRANCH  11  12
HETATM   12  C3  UNL     1      32.890   9.131  -1.166  1.00  0.00     0.026 C 
BRANCH  12  13
HETATM   13  C2  UNL     1      32.607   9.250  -2.625  1.00  0.00    -0.002 C 
HETATM   14  C1  UNL     1      31.191   8.768  -2.858  1.00  0.00     0.005 C 
ENDBRANCH  12  13
ENDBRANCH  11  12
ENDBRANCH  10  11
ENDBRANCH   9  10
ENDBRANCH   1   9
BRANCH   1  15
HETATM   15  C7  UNL     1      34.862   7.416   3.066  1.00  0.00     0.194 C 
BRANCH  15  16
HETATM   16  N1  UNL     1      34.788   6.244   2.430  1.00  0.00    -0.384 NA
BRANCH  16  17
HETATM   17  C8  UNL     1      34.723   5.200   1.864  1.00  0.00     0.274 A 
HETATM   18  N2  UNL     1      33.888   4.772   0.855  1.00  0.00    -0.304 N 
HETATM   19  C9  UNL     1      34.181   3.512   0.534  1.00  0.00     0.095 A 
ATOM     20  H2  UNL     1      33.156   5.334   0.420  1.00  0.00     0.171 HD
HETATM   21  C10 UNL     1      33.522   2.673  -0.502  1.00  0.00     0.091 C 
HETATM   22  N3  UNL     1      35.194   3.115   1.319  1.00  0.00    -0.286 N 
HETATM   23  N4  UNL     1      35.508   4.102   2.094  1.00  0.00    -0.258 N 
ATOM     24  H3  UNL     1      35.639   2.197   1.307  1.00  0.00     0.188 HD
ATOM     25  H4  UNL     1      36.250   4.067   2.792  1.00  0.00     0.191 HD
ENDBRANCH  16  17
ENDBRANCH  15  16
ENDBRANCH   1  15
TORSDOF 8
ENDMDL
MODEL 2
REMARK VINA RESULT: -7.479791610      2.035      2.885
REMARK  8 active torsions:
REMARK  status: ('A' for Active; 'I' for Inactive)
REMARK    1  A    between atoms: C2_2  and  C3_3 
REMARK    2  A    between atoms: C3_3  and  C4_4 
REMARK    3  A    between atoms: C4_4  and  O1_5 
REMARK    4  A    between atoms: O1_5  and  C5_6 
REMARK    5  A    between atoms: C5_6  and  C6_7 
REMARK    6  A    between atoms: C6_7  and  C7_8 
REMARK    7  A    between atoms: C7_8  and  N1_9 
REMARK    8  A    between atoms: N1_9  and  C8_10 
ROOT
HETATM    1  C6  UNL     1      35.200   8.503   2.581  1.00  0.00     0.116 C 
HETATM    2  C11 UNL     1      36.584   8.408   1.939  1.00  0.00     0.164 C 
HETATM    3  N5  UNL     1      37.412   8.382   3.140  1.00  0.00    -0.340 N 
ATOM      4  H5  UNL     1      38.295   7.887   3.269  1.00  0.00     0.164 HD
HETATM    5  C12 UNL     1      36.734   9.190   4.095  1.00  0.00     0.317 C 
HETATM    6  O2  UNL     1      37.153   9.543   5.223  1.00  0.00    -0.247 OA
HETATM    7  N6  UNL     1      35.443   9.549   3.528  1.00  0.00    -0.324 N 
ATOM      8  H6  UNL     1      34.854  10.351   3.751  1.00  0.00     0.165 HD
ENDROOT
BRANCH   1   9
HETATM    9  C5  UNL     1      34.153   8.677   1.574  1.00  0.00     0.207 C 
BRANCH   9  10
HETATM   10  O1  UNL     1      32.868   8.415   1.893  1.00  0.00    -0.388 OA
BRANCH  10  11
HETATM   11  C4  UNL     1      32.029   9.448   2.039  1.00  0.00     0.167 C 
BRANCH  11  12
HETATM   12  C3  UNL     1      31.271   9.424   3.371  1.00  0.00     0.026 C 
BRANCH  12  13
HETATM   13  C2  UNL     1      31.976  10.181   4.445  1.00  0.00    -0.002 C 
HETATM   14  C1  UNL     1      30.925  10.901   5.263  1.00  0.00     0.005 C 
ENDBRANCH  12  13
ENDBRANCH  11  12
ENDBRANCH  10  11
ENDBRANCH   9  10
ENDBRANCH   1   9
BRANCH   1  15
HETATM   15  C7  UNL     1      34.928   7.212   3.370  1.00  0.00     0.194 C 
BRANCH  15  16
HETATM   16  N1  UNL     1      34.861   6.082   2.661  1.00  0.00    -0.384 NA
BRANCH  16  17
HETATM   17  C8  UNL     1      34.802   5.075   2.030  1.00  0.00     0.274 A 
HETATM   18  N2  UNL     1      33.937   4.687   1.030  1.00  0.00    -0.304 N 
HETATM   19  C9  UNL     1      34.253   3.461   0.614  1.00  0.00     0.095 A 
ATOM     20  H2  UNL     1      33.170   5.253   0.664  1.00  0.00     0.171 HD
HETATM   21  C10 UNL     1      33.574   2.671  -0.448  1.00  0.00     0.091 C 
HETATM   22  N3  UNL     1      35.310   3.046   1.328  1.00  0.00    -0.286 N 
HETATM   23  N4  UNL     1      35.628   3.991   2.154  1.00  0.00    -0.258 N 
ATOM     24  H3  UNL     1      35.781   2.146   1.237  1.00  0.00     0.188 HD
ATOM     25  H4  UNL     1      36.401   3.934   2.817  1.00  0.00     0.191 HD
ENDBRANCH  16  17
ENDBRANCH  15  16
ENDBRANCH   1  15
TORSDOF 8
ENDMDL
MODEL 3
REMARK VINA RESULT: -7.302249413      0.965      1.026
REMARK  8 active torsions:
REMARK  status: ('A' for Active; 'I' for Inactive)
REMARK    1  A    between atoms: C2_2  and  C3_3 
REMARK    2  A    between atoms: C3_3  and  C4_4 
REMARK    3  A    between atoms: C4_4  and  O1_5 
REMARK    4  A    between atoms: O1_5  and  C5_6 
REMARK    5  A    between atoms: C5_6  and  C6_7 
REMARK    6  A    between atoms: C6_7  and  C7_8 
REMARK    7  A    between atoms: C7_8  and  N1_9 
REMARK    8  A    between atoms: N1_9  and  C8_10 
ROOT
HETATM    1  C6  UNL     1      35.386   8.755   2.279  1.00  0.00     0.116 C 
HETATM    2  C11 UNL     1      36.302   9.967   2.450  1.00  0.00     0.164 C 
HETATM    3  N5  UNL     1      36.670   9.802   3.852  1.00  0.00    -0.340 N 
ATOM      4  H5  UNL     1      37.559  10.048   4.288  1.00  0.00     0.164 HD
HETATM    5  C12 UNL     1      35.532   9.229   4.486  1.00  0.00     0.317 C 
HETATM    6  O2  UNL     1      35.367   9.034   5.714  1.00  0.00    -0.247 OA
HETATM    7  N6  UNL     1      34.570   8.901   3.445  1.00  0.00    -0.324 N 
ATOM      8  H6  UNL     1      33.558   8.800   3.527  1.00  0.00     0.165 HD
ENDROOT
BRANCH   1   9
HETATM    9  C5  UNL     1      34.755   8.743   0.959  1.00  0.00     0.207 C 
BRANCH   9  10
HETATM   10  O1  UNL     1      34.920   9.793   0.128  1.00  0.00    -0.388 OA
BRANCH  10  11
HETATM   11  C4  UNL     1      33.866  10.206  -0.587  1.00  0.00     0.167 C 
BRANCH  11  12
HETATM   12  C3  UNL     1      33.024   9.051  -1.139  1.00  0.00     0.026 C 
BRANCH  12  13
HETATM   13  C2  UNL     1      32.659   9.242  -2.572  1.00  0.00    -0.002 C 
HETATM   14  C1  UNL     1      31.226   8.785  -2.744  1.00  0.00     0.005 C 
ENDBRANCH  12  13
ENDBRANCH  11  12
ENDBRANCH  10  11
ENDBRANCH   9  10
ENDBRANCH   1   9
BRANCH   1  15
HETATM   15  C7  UNL     1      36.219   7.475   2.448  1.00  0.00     0.194 C 
BRANCH  15  16
HETATM   16  N1  UNL     1      35.649   6.334   2.049  1.00  0.00    -0.384 NA
BRANCH  16  17
HETATM   17  C8  UNL     1      35.142   5.319   1.694  1.00  0.00     0.274 A 
HETATM   18  N2  UNL     1      33.957   5.087   1.031  1.00  0.00    -0.304 N 
HETATM   19  C9  UNL     1      33.796   3.776   0.845  1.00  0.00     0.095 A 
ATOM     20  H2  UNL     1      33.302   5.808   0.728  1.00  0.00     0.171 HD
HETATM   21  C10 UNL     1      32.655   3.100   0.172  1.00  0.00     0.091 C 
HETATM   22  N3  UNL     1      34.858   3.154   1.377  1.00  0.00    -0.286 N 
HETATM   23  N4  UNL     1      35.641   4.057   1.872  1.00  0.00    -0.258 N 
ATOM     24  H3  UNL     1      35.020   2.147   1.389  1.00  0.00     0.188 HD
ATOM     25  H4  UNL     1      36.525   3.853   2.339  1.00  0.00     0.191 HD
ENDBRANCH  16  17
ENDBRANCH  15  16
ENDBRANCH   1  15
TORSDOF 8
ENDMDL
MODEL 4
REMARK VINA RESULT: -7.297354789      1.152      1.403
REMARK  8 active torsions:
REMARK  status: ('A' for Active; 'I' for Inactive)
REMARK    1  A    between atoms: C2_2  and  C3_3 
REMARK    2  A    between atoms: C3_3  and  C4_4 
REMARK    3  A    between atoms: C4_4  and  O1_5 
REMARK    4  A    between atoms: O1_5  and  C5_6 
REMARK    5  A    between atoms: C5_6  and  C6_7 
REMARK    6  A    between atoms: C6_7  and  C7_8 
REMARK    7  A    between atoms: C7_8  and  N1_9 
REMARK    8  A    between atoms: N1_9  and  C8_10 
ROOT
HETATM    1  C6  UNL     1      35.582   9.770   2.456  1.00  0.00     0.116 C 
HETATM    2  C11 UNL     1      36.804   9.049   1.888  1.00  0.00     0.164 C 
HETATM    3  N5  UNL     1      37.472   8.677   3.131  1.00  0.00    -0.340 N 
ATOM      4  H5  UNL     1      38.030   7.841   3.304  1.00  0.00     0.164 HD
HETATM    5  C12 UNL     1      37.186   9.724   4.051  1.00  0.00     0.317 C 
HETATM    6  O2  UNL     1      37.663   9.872   5.201  1.00  0.00    -0.247 OA
HETATM    7  N6  UNL     1      36.224  10.613   3.418  1.00  0.00    -0.324 N 
ATOM      8  H6  UNL     1      36.050  11.599   3.613  1.00  0.00     0.165 HD
ENDROOT
BRANCH   1   9
HETATM    9  C5  UNL     1      34.777  10.376   1.396  1.00  0.00     0.207 C 
BRANCH   9  10
HETATM   10  O1  UNL     1      34.772   9.829   0.162  1.00  0.00    -0.388 OA
BRANCH  10  11
HETATM   11  C4  UNL     1      33.809  10.199  -0.690  1.00  0.00     0.167 C 
BRANCH  11  12
HETATM   12  C3  UNL     1      33.025   9.013  -1.264  1.00  0.00     0.026 C 
BRANCH  12  13
HETATM   13  C2  UNL     1      32.615   9.229  -2.680  1.00  0.00    -0.002 C 
HETATM   14  C1  UNL     1      31.180   8.764  -2.818  1.00  0.00     0.005 C 
ENDBRANCH  12  13
ENDBRANCH  11  12
ENDBRANCH  10  11
ENDBRANCH   9  10
ENDBRANCH   1   9
BRANCH   1  15
HETATM   15  C7  UNL     1      34.719   8.756   3.224  1.00  0.00     0.194 C 
BRANCH  15  16
HETATM   16  N1  UNL     1      34.540   7.565   2.647  1.00  0.00    -0.384 NA
BRANCH  16  17
HETATM   17  C8  UNL     1      34.380   6.505   2.132  1.00  0.00     0.274 A 
HETATM   18  N2  UNL     1      34.783   5.246   2.518  1.00  0.00    -0.304 N 
HETATM   19  C9  UNL     1      34.376   4.349   1.619  1.00  0.00     0.095 A 
ATOM     20  H2  UNL     1      35.313   5.031   3.363  1.00  0.00     0.171 HD
HETATM   21  C10 UNL     1      34.600   2.879   1.654  1.00  0.00     0.091 C 
HETATM   22  N3  UNL     1      33.714   5.007   0.656  1.00  0.00    -0.286 N 
HETATM   23  N4  UNL     1      33.719   6.265   0.958  1.00  0.00    -0.258 N 
ATOM     24  H3  UNL     1      33.283   4.590  -0.169  1.00  0.00     0.188 HD
ATOM     25  H4  UNL     1      33.282   6.991   0.390  1.00  0.00     0.191 HD
ENDBRANCH  16  17
ENDBRANCH  15  16
ENDBRANCH   1  15
TORSDOF 8
ENDMDL
MODEL 5
REMARK VINA RESULT: -7.284139511      2.351      5.022
REMARK  8 active torsions:
REMARK  status: ('A' for Active; 'I' for Inactive)
REMARK    1  A    between atoms: C2_2  and  C3_3 
REMARK    2  A    between atoms: C3_3  and  C4_4 
REMARK    3  A    between atoms: C4_4  and  O1_5 
REMARK    4  A    between atoms: O1_5  and  C5_6 
REMARK    5  A    between atoms: C5_6  and  C6_7 
REMARK    6  A    between atoms: C6_7  and  C7_8 
REMARK    7  A    between atoms: C7_8  and  N1_9 
REMARK    8  A    between atoms: N1_9  and  C8_10 
ROOT
HETATM    1  C6  UNL     1      34.995   7.322   1.460  1.00  0.00     0.116 C 
HETATM    2  C11 UNL     1      34.328   6.474   0.378  1.00  0.00     0.164 C 
HETATM    3  N5  UNL     1      34.041   5.269   1.150  1.00  0.00    -0.340 N 
ATOM      4  H5  UNL     1      33.246   4.641   1.038  1.00  0.00     0.164 HD
HETATM    5  C12 UNL     1      35.102   5.153   2.091  1.00  0.00     0.317 C 
HETATM    6  O2  UNL     1      35.320   4.195   2.872  1.00  0.00    -0.247 OA
HETATM    7  N6  UNL     1      35.909   6.359   1.994  1.00  0.00    -0.324 N 
ATOM      8  H6  UNL     1      36.889   6.487   2.245  1.00  0.00     0.165 HD
ENDROOT
BRANCH   1   9
HETATM    9  C5  UNL     1      35.514   8.576   0.913  1.00  0.00     0.207 C 
BRANCH   9  10
HETATM   10  O1  UNL     1      34.909   9.144  -0.151  1.00  0.00    -0.388 OA
BRANCH  10  11
HETATM   11  C4  UNL     1      34.022  10.121   0.072  1.00  0.00     0.167 C 
BRANCH  11  12
HETATM   12  C3  UNL     1      32.704   9.921  -0.684  1.00  0.00     0.026 C 
BRANCH  12  13
HETATM   13  C2  UNL     1      32.901   9.294  -2.022  1.00  0.00    -0.002 C 
HETATM   14  C1  UNL     1      31.533   8.949  -2.572  1.00  0.00     0.005 C 
ENDBRANCH  12  13
ENDBRANCH  11  12
ENDBRANCH  10  11
ENDBRANCH   9  10
ENDBRANCH   1   9
BRANCH   1  15
HETATM   15  C7  UNL     1      33.961   7.641   2.551  1.00  0.00     0.194 C 
BRANCH  15  16
HETATM   16  N1  UNL     1      34.398   8.338   3.603  1.00  0.00    -0.384 NA
BRANCH  16  17
HETATM   17  C8  UNL     1      34.788   8.958   4.540  1.00  0.00     0.274 A 
HETATM   18  N2  UNL     1      34.100   9.634   5.524  1.00  0.00    -0.304 N 
HETATM   19  C9  UNL     1      34.963  10.189   6.375  1.00  0.00     0.095 A 
ATOM     20  H2  UNL     1      33.084   9.700   5.591  1.00  0.00     0.171 HD
HETATM   21  C10 UNL     1      34.640  11.004   7.576  1.00  0.00     0.091 C 
HETATM   22  N3  UNL     1      36.201   9.885   5.959  1.00  0.00    -0.286 N 
HETATM   23  N4  UNL     1      36.096   9.167   4.888  1.00  0.00    -0.258 N 
ATOM     24  H3  UNL     1      37.072  10.169   6.407  1.00  0.00     0.188 HD
ATOM     25  H4  UNL     1      36.891   8.799   4.365  1.00  0.00     0.191 HD
ENDBRANCH  16  17
ENDBRANCH  15  16
ENDBRANCH   1  15
TORSDOF 8
ENDMDL
