MODEL 1
REMARK VINA RESULT: -7.590541249      0.000      0.000
REMARK  10 active torsions:
REMARK  status: ('A' for Active; 'I' for Inactive)
REMARK    1  A    between atoms: N1_1  and  C1_5 
REMARK    2  A    between atoms: C1_5  and  C2_6 
REMARK    3  A    between atoms: C2_6  and  C3_7 
REMARK    4  A    between atoms: C3_7  and  C4_8 
REMARK    5  A    between atoms: C4_8  and  C5_9 
REMARK    6  A    between atoms: C5_9  and  C6_10 
REMARK    7  A    between atoms: C6_10  and  N2_11 
REMARK    8  A    between atoms: N2_11  and  C7_13 
REMARK    9  A    between atoms: C9_20  and  N5_21 
REMARK   10  A    between atoms: N5_21  and  C10_23 
ROOT
HETATM    1  C7  UNL     1      36.169   7.165   1.721  1.00  0.00     0.696 A 
HETATM    2  N3  UNL     1      35.887   6.021   2.362  1.00  0.00    -0.140 N 
ATOM      3  H3  UNL     1      36.542   5.631   3.039  1.00  0.00     0.189 HD
HETATM    4  C8  UNL     1      34.705   5.386   2.094  1.00  0.00     0.352 A 
HETATM    5  O1  UNL     1      34.478   4.311   2.720  1.00  0.00    -0.246 OA
HETATM    6  N4  UNL     1      33.829   5.886   1.205  1.00  0.00    -0.140 N 
ATOM      7  H4  UNL     1      32.954   5.394   1.022  1.00  0.00     0.189 HD
HETATM    8  C9  UNL     1      34.101   7.033   0.556  1.00  0.00     0.697 A 
HETATM    9  N6  UNL     1      35.257   7.638   0.829  1.00  0.00    -0.022 N 
ATOM     10  H6  UNL     1      35.471   8.508   0.341  1.00  0.00     0.203 HD
ENDROOT
BRANCH   1  11
HETATM   11  N2  UNL     1      37.265   7.790   1.943  1.00  0.00    -0.225 N 
ATOM     12  H2  UNL     1      37.858   8.007   1.140  1.00  0.00     0.177 HD
BRANCH  11  13
HETATM   13  C6  UNL     1      37.717   8.205   3.233  1.00  0.00     0.138 C 
BRANCH  13  14
HETATM   14  C5  UNL     1      37.085   9.566   3.571  1.00  0.00     0.020 C 
BRANCH  14  15
HETATM   15  C4  UNL     1      36.531   9.499   4.966  1.00  0.00     0.002 C 
BRANCH  15  16
HETATM   16  C3  UNL     1      35.155   8.913   4.967  1.00  0.00     0.002 C 
BRANCH  16  17
HETATM   17  C2  UNL     1      34.364   9.459   6.107  1.00  0.00     0.027 C 
BRANCH  17  18
HETATM   18  C1  UNL     1      34.909  10.826   6.548  1.00  0.00     0.229 C 
BRANCH  18  19
HETATM   19  N1  UNL     1      34.987  10.896   7.982  1.00  0.00    -0.079 N 
ATOM     20  H13 UNL     1      34.496  11.712   8.349  1.00  0.00     0.274 HD
ATOM     21  H12 UNL     1      34.427  10.170   8.428  1.00  0.00     0.274 HD
ATOM     22  H11 UNL     1      35.959  10.868   8.287  1.00  0.00     0.274 HD
ENDBRANCH  18  19
ENDBRANCH  17  18
ENDBRANCH  16  17
ENDBRANCH  15  16
ENDBRANCH  14  15
ENDBRANCH  13  14
ENDBRANCH  11  13
ENDBRANCH   1  11
BRANCH   8  23
HETATM   23  N5  UNL     1      33.247   7.515  -0.306  1.00  0.00    -0.221 N 
ATOM     24  H5  UNL     1      32.523   6.909  -0.693  1.00  0.00     0.178 HD
BRANCH  23  25
HETATM   25  C10 UNL     1      33.316   8.902  -0.719  1.00  0.00     0.099 C 
HETATM   26  C11 UNL     1      32.475   9.747   0.198  1.00  0.00     0.026 C 
HETATM   27  C12 UNL     1      31.069   9.478  -0.355  1.00  0.00     0.002 C 
HETATM   28  C13 UNL     1      31.303   9.673  -1.833  1.00  0.00     0.002 C 
HETATM   29  C14 UNL     1      32.615   9.004  -2.074  1.00  0.00     0.026 C 
ENDBRANCH  23  25
ENDBRANCH   8  23
TORSDOF 10
ENDMDL
MODEL 2
REMARK VINA RESULT: -7.188474880      2.330      3.058
REMARK  10 active torsions:
REMARK  status: ('A' for Active; 'I' for Inactive)
REMARK    1  A    between atoms: N1_1  and  C1_5 
REMARK    2  A    between atoms: C1_5  and  C2_6 
REMARK    3  A    between atoms: C2_6  and  C3_7 
REMARK    4  A    between atoms: C3_7  and  C4_8 
REMARK    5  A    between atoms: C4_8  and  C5_9 
REMARK    6  A    between atoms: C5_9  and  C6_10 
REMARK    7  A    between atoms: C6_10  and  N2_11 
REMARK    8  A    between atoms: N2_11  and  C7_13 
REMARK    9  A    between atoms: C9_20  and  N5_21 
REMARK   10  A    between atoms: N5_21  and  C10_23 
ROOT
HETATM    1  C7  UNL     1      35.061   8.892   3.487  1.00  0.00     0.696 A 
HETATM    2  N3  UNL     1      35.426   7.601   3.517  1.00  0.00    -0.140 N 
ATOM      3  H3  UNL     1      36.184   7.291   4.124  1.00  0.00     0.189 HD
HETATM    4  C8  UNL     1      34.764   6.708   2.719  1.00  0.00     0.352 A 
HETATM    5  O1  UNL     1      35.139   5.501   2.778  1.00  0.00    -0.246 OA
HETATM    6  N4  UNL     1      33.762   7.100   1.913  1.00  0.00    -0.140 N 
ATOM      7  H4  UNL     1      33.284   6.415   1.327  1.00  0.00     0.189 HD
HETATM    8  C9  UNL     1      33.387   8.390   1.875  1.00  0.00     0.697 A 
HETATM    9  N6  UNL     1      34.042   9.248   2.658  1.00  0.00    -0.022 N 
ATOM     10  H6  UNL     1      33.764  10.229   2.635  1.00  0.00     0.203 HD
ENDROOT
BRANCH   1  11
HETATM   11  N2  UNL     1      35.655   9.761   4.218  1.00  0.00    -0.225 N 
ATOM     12  H2  UNL     1      36.671   9.830   4.142  1.00  0.00     0.177 HD
BRANCH  11  13
HETATM   13  C6  UNL     1      34.997  10.640   5.131  1.00  0.00     0.138 C 
BRANCH  13  14
HETATM   14  C5  UNL     1      34.514   9.829   6.346  1.00  0.00     0.020 C 
BRANCH  14  15
HETATM   15  C4  UNL     1      33.101  10.236   6.657  1.00  0.00     0.002 C 
BRANCH  15  16
HETATM   16  C3  UNL     1      32.552  11.123   5.585  1.00  0.00     0.002 C 
BRANCH  16  17
HETATM   17  C2  UNL     1      31.092  10.875   5.410  1.00  0.00     0.027 C 
BRANCH  17  18
HETATM   18  C1  UNL     1      30.818  10.106   4.109  1.00  0.00     0.229 C 
BRANCH  18  19
HETATM   19  N1  UNL     1      30.442  11.013   3.059  1.00  0.00    -0.079 N 
ATOM     20  H13 UNL     1      29.428  11.097   2.976  1.00  0.00     0.274 HD
ATOM     21  H12 UNL     1      30.654  11.980   3.300  1.00  0.00     0.274 HD
ATOM     22  H11 UNL     1      30.873  10.737   2.178  1.00  0.00     0.274 HD
ENDBRANCH  18  19
ENDBRANCH  17  18
ENDBRANCH  16  17
ENDBRANCH  15  16
ENDBRANCH  14  15
ENDBRANCH  13  14
ENDBRANCH  11  13
ENDBRANCH   1  11
BRANCH   8  23
HETATM   23  N5  UNL     1      32.413   8.766   1.091  1.00  0.00    -0.221 N 
ATOM     24  H5  UNL     1      31.543   8.234   1.075  1.00  0.00     0.178 HD
BRANCH  23  25
HETATM   25  C10 UNL     1      32.555   9.932   0.241  1.00  0.00     0.099 C 
HETATM   26  C11 UNL     1      31.280  10.159  -0.525  1.00  0.00     0.026 C 
HETATM   27  C12 UNL     1      31.417   9.119  -1.645  1.00  0.00     0.002 C 
HETATM   28  C13 UNL     1      32.829   9.380  -2.106  1.00  0.00     0.002 C 
HETATM   29  C14 UNL     1      33.584   9.582  -0.834  1.00  0.00     0.026 C 
ENDBRANCH  23  25
ENDBRANCH   8  23
TORSDOF 10
ENDMDL
MODEL 3
REMARK VINA RESULT: -7.160304209      1.662      2.011
REMARK  10 active torsions:
REMARK  status: ('A' for Active; 'I' for Inactive)
REMARK    1  A    between atoms: N1_1  and  C1_5 
REMARK    2  A    between atoms: C1_5  and  C2_6 
REMARK    3  A    between atoms: C2_6  and  C3_7 
REMARK    4  A    between atoms: C3_7  and  C4_8 
REMARK    5  A    between atoms: C4_8  and  C5_9 
REMARK    6  A    between atoms: C5_9  and  C6_10 
REMARK    7  A    between atoms: C6_10  and  N2_11 
REMARK    8  A    between atoms: N2_11  and  C7_13 
REMARK    9  A    between atoms: C9_20  and  N5_21 
REMARK   10  A    between atoms: N5_21  and  C10_23 
ROOT
HETATM    1  C7  UNL     1      35.403   8.385   2.656  1.00  0.00     0.696 A 
HETATM    2  N3  UNL     1      35.417   7.149   3.175  1.00  0.00    -0.140 N 
ATOM      3  H3  UNL     1      35.939   6.951   4.029  1.00  0.00     0.189 HD
HETATM    4  C8  UNL     1      34.719   6.157   2.542  1.00  0.00     0.352 A 
HETATM    5  O1  UNL     1      34.758   5.005   3.065  1.00  0.00    -0.246 OA
HETATM    6  N4  UNL     1      34.025   6.400   1.416  1.00  0.00    -0.140 N 
ATOM      7  H4  UNL     1      33.513   5.643   0.962  1.00  0.00     0.189 HD
HETATM    8  C9  UNL     1      34.003   7.635   0.886  1.00  0.00     0.697 A 
HETATM    9  N6  UNL     1      34.689   8.590   1.516  1.00  0.00    -0.022 N 
ATOM     10  H6  UNL     1      34.677   9.530   1.120  1.00  0.00     0.203 HD
ENDROOT
BRANCH   1  11
HETATM   11  N2  UNL     1      36.043   9.343   3.217  1.00  0.00    -0.225 N 
ATOM     12  H2  UNL     1      36.190  10.196   2.677  1.00  0.00     0.177 HD
BRANCH  11  13
HETATM   13  C6  UNL     1      36.567   9.300   4.546  1.00  0.00     0.138 C 
BRANCH  13  14
HETATM   14  C5  UNL     1      35.758  10.259   5.434  1.00  0.00     0.020 C 
BRANCH  14  15
HETATM   15  C4  UNL     1      34.703   9.466   6.152  1.00  0.00     0.002 C 
BRANCH  15  16
HETATM   16  C3  UNL     1      33.393  10.187   6.144  1.00  0.00     0.002 C 
BRANCH  16  17
HETATM   17  C2  UNL     1      32.788  10.141   4.782  1.00  0.00     0.027 C 
BRANCH  17  18
HETATM   18  C1  UNL     1      31.314  10.571   4.821  1.00  0.00     0.229 C 
BRANCH  18  19
HETATM   19  N1  UNL     1      31.035  11.298   6.030  1.00  0.00    -0.079 N 
ATOM     20  H13 UNL     1      30.833  12.280   5.844  1.00  0.00     0.274 HD
ATOM     21  H12 UNL     1      30.138  11.033   6.434  1.00  0.00     0.274 HD
ATOM     22  H11 UNL     1      31.799  11.187   6.696  1.00  0.00     0.274 HD
ENDBRANCH  18  19
ENDBRANCH  17  18
ENDBRANCH  16  17
ENDBRANCH  15  16
ENDBRANCH  14  15
ENDBRANCH  13  14
ENDBRANCH  11  13
ENDBRANCH   1  11
BRANCH   8  23
HETATM   23  N5  UNL     1      33.327   7.867  -0.207  1.00  0.00    -0.221 N 
ATOM     24  H5  UNL     1      33.087   7.092  -0.825  1.00  0.00     0.178 HD
BRANCH  23  25
HETATM   25  C10 UNL     1      32.915   9.212  -0.551  1.00  0.00     0.099 C 
HETATM   26  C11 UNL     1      31.418   9.265  -0.690  1.00  0.00     0.026 C 
HETATM   27  C12 UNL     1      31.228   8.669  -2.091  1.00  0.00     0.002 C 
HETATM   28  C13 UNL     1      32.255   9.448  -2.874  1.00  0.00     0.002 C 
HETATM   29  C14 UNL     1      33.435   9.495  -1.961  1.00  0.00     0.026 C 
ENDBRANCH  23  25
ENDBRANCH   8  23
TORSDOF 10
ENDMDL
MODEL 4
REMARK VINA RESULT: -7.145707223      2.804      4.623
REMARK  10 active torsions:
REMARK  status: ('A' for Active; 'I' for Inactive)
REMARK    1  A    between atoms: N1_1  and  C1_5 
REMARK    2  A    between atoms: C1_5  and  C2_6 
REMARK    3  A    between atoms: C2_6  and  C3_7 
REMARK    4  A    between atoms: C3_7  and  C4_8 
REMARK    5  A    between atoms: C4_8  and  C5_9 
REMARK    6  A    between atoms: C5_9  and  C6_10 
REMARK    7  A    between atoms: C6_10  and  N2_11 
REMARK    8  A    between atoms: N2_11  and  C7_13 
REMARK    9  A    between atoms: C9_20  and  N5_21 
REMARK   10  A    between atoms: N5_21  and  C10_23 
ROOT
HETATM    1  C7  UNL     1      33.506   9.354   3.708  1.00  0.00     0.696 A 
HETATM    2  N3  UNL     1      32.566   9.852   4.524  1.00  0.00    -0.140 N 
ATOM      3  H3  UNL     1      32.781  10.055   5.500  1.00  0.00     0.189 HD
HETATM    4  C8  UNL     1      31.313  10.086   4.027  1.00  0.00     0.352 A 
HETATM    5  O1  UNL     1      30.457  10.558   4.830  1.00  0.00    -0.246 OA
HETATM    6  N4  UNL     1      31.011   9.827   2.742  1.00  0.00    -0.140 N 
ATOM      7  H4  UNL     1      30.070  10.010   2.395  1.00  0.00     0.189 HD
HETATM    8  C9  UNL     1      31.945   9.327   1.914  1.00  0.00     0.697 A 
HETATM    9  N6  UNL     1      33.161   9.104   2.415  1.00  0.00    -0.022 N 
ATOM     10  H6  UNL     1      33.875   8.724   1.793  1.00  0.00     0.203 HD
ENDROOT
BRANCH   1  11
HETATM   11  N2  UNL     1      34.691   9.119   4.134  1.00  0.00    -0.225 N 
ATOM     12  H2  UNL     1      34.791   8.762   5.085  1.00  0.00     0.177 HD
BRANCH  11  13
HETATM   13  C6  UNL     1      35.883   9.322   3.373  1.00  0.00     0.138 C 
BRANCH  13  14
HETATM   14  C5  UNL     1      36.515   7.956   3.059  1.00  0.00     0.020 C 
BRANCH  14  15
HETATM   15  C4  UNL     1      36.418   7.717   1.579  1.00  0.00     0.002 C 
BRANCH  15  16
HETATM   16  C3  UNL     1      35.430   6.635   1.276  1.00  0.00     0.002 C 
BRANCH  16  17
HETATM   17  C2  UNL     1      35.267   5.741   2.458  1.00  0.00     0.027 C 
BRANCH  17  18
HETATM   18  C1  UNL     1      34.922   4.310   2.020  1.00  0.00     0.229 C 
BRANCH  18  19
HETATM   19  N1  UNL     1      36.035   3.432   2.255  1.00  0.00    -0.079 N 
ATOM     20  H13 UNL     1      36.843   3.933   2.625  1.00  0.00     0.274 HD
ATOM     21  H12 UNL     1      35.868   2.810   3.045  1.00  0.00     0.274 HD
ATOM     22  H11 UNL     1      36.265   2.914   1.407  1.00  0.00     0.274 HD
ENDBRANCH  18  19
ENDBRANCH  17  18
ENDBRANCH  16  17
ENDBRANCH  15  16
ENDBRANCH  14  15
ENDBRANCH  13  14
ENDBRANCH  11  13
ENDBRANCH   1  11
BRANCH   8  23
HETATM   23  N5  UNL     1      31.648   9.076   0.668  1.00  0.00    -0.221 N 
ATOM     24  H5  UNL     1      31.330   8.143   0.402  1.00  0.00     0.178 HD
BRANCH  23  25
HETATM   25  C10 UNL     1      31.765  10.108  -0.343  1.00  0.00     0.099 C 
HETATM   26  C11 UNL     1      30.690   9.926  -1.380  1.00  0.00     0.026 C 
HETATM   27  C12 UNL     1      31.284   8.794  -2.228  1.00  0.00     0.002 C 
HETATM   28  C13 UNL     1      32.689   9.299  -2.436  1.00  0.00     0.002 C 
HETATM   29  C14 UNL     1      33.067   9.849  -1.101  1.00  0.00     0.026 C 
ENDBRANCH  23  25
ENDBRANCH   8  23
TORSDOF 10
ENDMDL
MODEL 5
REMARK VINA RESULT: -7.077601634      1.931      2.244
REMARK  10 active torsions:
REMARK  status: ('A' for Active; 'I' for Inactive)
REMARK    1  A    between atoms: N1_1  and  C1_5 
REMARK    2  A    between atoms: C1_5  and  C2_6 
REMARK    3  A    between atoms: C2_6  and  C3_7 
REMARK    4  A    between atoms: C3_7  and  C4_8 
REMARK    5  A    between atoms: C4_8  and  C5_9 
REMARK    6  A    between atoms: C5_9  and  C6_10 
REMARK    7  A    between atoms: C6_10  and  N2_11 
REMARK    8  A    between atoms: N2_11  and  C7_13 
REMARK    9  A    between atoms: C9_20  and  N5_21 
REMARK   10  A    between atoms: N5_21  and  C10_23 
ROOT
HETATM    1  C7  UNL     1      36.044   7.583   2.785  1.00  0.00     0.696 A 
HETATM    2  N3  UNL     1      36.052   6.263   2.544  1.00  0.00    -0.140 N 
ATOM      3  H3  UNL     1      36.880   5.704   2.751  1.00  0.00     0.189 HD
HETATM    4  C8  UNL     1      34.933   5.679   2.017  1.00  0.00     0.352 A 
HETATM    5  O1  UNL     1      34.983   4.433   1.807  1.00  0.00    -0.246 OA
HETATM    6  N4  UNL     1      33.833   6.401   1.740  1.00  0.00    -0.140 N 
ATOM      7  H4  UNL     1      33.010   5.942   1.347  1.00  0.00     0.189 HD
HETATM    8  C9  UNL     1      33.812   7.724   1.977  1.00  0.00     0.697 A 
HETATM    9  N6  UNL     1      34.912   8.278   2.490  1.00  0.00    -0.022 N 
ATOM     10  H6  UNL     1      34.904   9.281   2.672  1.00  0.00     0.203 HD
ENDROOT
BRANCH   1  11
HETATM   11  N2  UNL     1      37.072   8.169   3.276  1.00  0.00    -0.225 N 
ATOM     12  H2  UNL     1      37.912   7.609   3.423  1.00  0.00     0.177 HD
BRANCH  11  13
HETATM   13  C6  UNL     1      37.124   9.551   3.634  1.00  0.00     0.138 C 
BRANCH  13  14
HETATM   14  C5  UNL     1      37.026   9.676   5.163  1.00  0.00     0.020 C 
BRANCH  14  15
HETATM   15  C4  UNL     1      35.744  10.383   5.501  1.00  0.00     0.002 C 
BRANCH  15  16
HETATM   16  C3  UNL     1      34.721   9.419   6.010  1.00  0.00     0.002 C 
BRANCH  16  17
HETATM   17  C2  UNL     1      33.571  10.156   6.608  1.00  0.00     0.027 C 
BRANCH  17  18
HETATM   18  C1  UNL     1      33.516  11.601   6.089  1.00  0.00     0.229 C 
BRANCH  18  19
HETATM   19  N1  UNL     1      32.158  12.072   6.059  1.00  0.00    -0.079 N 
ATOM     20  H13 UNL     1      31.548  11.440   5.540  1.00  0.00     0.274 HD
ATOM     21  H12 UNL     1      31.711  11.998   6.972  1.00  0.00     0.274 HD
ATOM     22  H11 UNL     1      32.119  13.023   5.693  1.00  0.00     0.274 HD
ENDBRANCH  18  19
ENDBRANCH  17  18
ENDBRANCH  16  17
ENDBRANCH  15  16
ENDBRANCH  14  15
ENDBRANCH  13  14
ENDBRANCH  11  13
ENDBRANCH   1  11
BRANCH   8  23
HETATM   23  N5  UNL     1      32.742   8.421   1.706  1.00  0.00    -0.221 N 
ATOM     24  H5  UNL     1      32.072   8.072   1.020  1.00  0.00     0.178 HD
BRANCH  23  25
HETATM   25  C10 UNL     1      32.495   9.686   2.368  1.00  0.00     0.099 C 
HETATM   26  C11 UNL     1      31.547   9.479   3.518  1.00  0.00     0.026 C 
HETATM   27  C12 UNL     1      30.201   9.409   2.786  1.00  0.00     0.002 C 
HETATM   28  C13 UNL     1      30.305  10.612   1.881  1.00  0.00     0.002 C 
HETATM   29  C14 UNL     1      31.713  10.561   1.389  1.00  0.00     0.026 C 
ENDBRANCH  23  25
ENDBRANCH   8  23
TORSDOF 10
ENDMDL
