MODEL 1
REMARK VINA RESULT: -6.824282862      0.000      0.000
REMARK  9 active torsions:
REMARK  status: ('A' for Active; 'I' for Inactive)
REMARK    1  A    between atoms: N1_1  and  C1_4 
REMARK    2  A    between atoms: N4_15  and  C7_16 
REMARK    3  A    between atoms: C7_16  and  C8_17 
REMARK    4  A    between atoms: C8_17  and  C9_18 
REMARK    5  A    between atoms: C9_18  and  C10_19 
REMARK    6  A    between atoms: C10_19  and  C11_20 
REMARK    7  A    between atoms: C11_20  and  C12_21 
REMARK    8  A    between atoms: C12_21  and  C13_22 
REMARK    9  A    between atoms: C13_22  and  O2_23 
ROOT
HETATM    1  C1  UNL     1      35.885   7.028   2.308  1.00  0.00     0.679 A 
HETATM    2  N2  UNL     1      35.426   7.423   3.503  1.00  0.00    -0.195 N 
ATOM      3  H2  UNL     1      35.079   6.705   4.139  1.00  0.00     0.184 HD
HETATM    4  C2  UNL     1      35.390   8.700   3.922  1.00  0.00     0.040 A 
HETATM    5  C3  UNL     1      35.855   9.671   3.068  1.00  0.00     0.035 A 
HETATM    6  C4  UNL     1      36.339   9.297   1.819  1.00  0.00     0.267 A 
HETATM    7  O1  UNL     1      36.768  10.149   1.019  1.00  0.00    -0.267 OA
HETATM    8  N3  UNL     1      36.337   7.996   1.482  1.00  0.00    -0.156 N 
ATOM      9  H3  UNL     1      36.693   7.728   0.564  1.00  0.00     0.187 HD
HETATM   10  C5  UNL     1      35.936  11.114   3.259  1.00  0.00     0.076 C 
HETATM   11  C6  UNL     1      34.657  11.772   3.712  1.00  0.00     0.277 C 
HETATM   12  N4  UNL     1      33.838  10.946   4.526  1.00  0.00     0.089 N 
HETATM   13  C14 UNL     1      34.503  10.282   5.614  1.00  0.00     0.278 C 
HETATM   14  C15 UNL     1      34.826   8.840   5.305  1.00  0.00     0.088 C 
ENDROOT
BRANCH  12  15
HETATM   15  C7  UNL     1      32.729  11.700   5.043  1.00  0.00     0.272 C 
BRANCH  15  16
HETATM   16  C8  UNL     1      31.398  11.366   4.389  1.00  0.00     0.030 C 
BRANCH  16  17
HETATM   17  C9  UNL     1      31.416   9.902   4.011  1.00  0.00     0.002 C 
BRANCH  17  18
HETATM   18  C10 UNL     1      31.164   9.748   2.538  1.00  0.00     0.000 C 
BRANCH  18  19
HETATM   19  C11 UNL     1      32.370   9.216   1.829  1.00  0.00     0.002 C 
BRANCH  19  20
HETATM   20  C12 UNL     1      32.845  10.242   0.807  1.00  0.00     0.026 C 
BRANCH  20  21
HETATM   21  C13 UNL     1      33.321   9.559  -0.461  1.00  0.00     0.164 C 
BRANCH  21  22
HETATM   22  O2  UNL     1      34.454  10.212  -0.981  1.00  0.00    -0.401 OA
ATOM     23  H2  UNL     1      34.205  11.017  -1.419  1.00  0.00     0.209 HD
ENDBRANCH  21  22
ENDBRANCH  20  21
ENDBRANCH  19  20
ENDBRANCH  18  19
ENDBRANCH  17  18
ENDBRANCH  16  17
ENDBRANCH  15  16
ENDBRANCH  12  15
BRANCH   1  24
HETATM   24  N1  UNL     1      35.888   5.766   1.974  1.00  0.00    -0.234 N 
ATOM     25  H12 UNL     1      36.084   5.024   2.645  1.00  0.00     0.174 HD
ATOM     26  H11 UNL     1      35.691   5.477   1.015  1.00  0.00     0.174 HD
ENDBRANCH   1  24
TORSDOF 9
ENDMDL
MODEL 2
REMARK VINA RESULT: -6.767326314      1.900      3.344
REMARK  9 active torsions:
REMARK  status: ('A' for Active; 'I' for Inactive)
REMARK    1  A    between atoms: N1_1  and  C1_4 
REMARK    2  A    between atoms: N4_15  and  C7_16 
REMARK    3  A    between atoms: C7_16  and  C8_17 
REMARK    4  A    between atoms: C8_17  and  C9_18 
REMARK    5  A    between atoms: C9_18  and  C10_19 
REMARK    6  A    between atoms: C10_19  and  C11_20 
REMARK    7  A    between atoms: C11_20  and  C12_21 
REMARK    8  A    between atoms: C12_21  and  C13_22 
REMARK    9  A    between atoms: C13_22  and  O2_23 
ROOT
HETATM    1  C1  UNL     1      34.754   5.313   1.842  1.00  0.00     0.679 A 
HETATM    2  N2  UNL     1      35.720   6.028   2.434  1.00  0.00    -0.195 N 
ATOM      3  H2  UNL     1      36.344   5.541   3.078  1.00  0.00     0.184 HD
HETATM    4  C2  UNL     1      35.924   7.342   2.241  1.00  0.00     0.040 A 
HETATM    5  C3  UNL     1      35.083   8.003   1.377  1.00  0.00     0.035 A 
HETATM    6  C4  UNL     1      34.069   7.291   0.744  1.00  0.00     0.267 A 
HETATM    7  O1  UNL     1      33.290   7.857  -0.045  1.00  0.00    -0.267 OA
HETATM    8  N3  UNL     1      33.939   5.978   0.997  1.00  0.00    -0.156 N 
ATOM      9  H3  UNL     1      33.193   5.462   0.530  1.00  0.00     0.187 HD
HETATM   10  C5  UNL     1      35.074   9.407   0.982  1.00  0.00     0.076 C 
HETATM   11  C6  UNL     1      35.082  10.392   2.124  1.00  0.00     0.277 C 
HETATM   12  N4  UNL     1      35.771   9.935   3.278  1.00  0.00     0.089 N 
HETATM   13  C14 UNL     1      37.078   9.383   3.049  1.00  0.00     0.278 C 
HETATM   14  C15 UNL     1      37.078   7.874   3.036  1.00  0.00     0.088 C 
ENDROOT
BRANCH  12  15
HETATM   15  C7  UNL     1      35.870  10.991   4.249  1.00  0.00     0.272 C 
BRANCH  15  16
HETATM   16  C8  UNL     1      35.547  10.554   5.668  1.00  0.00     0.030 C 
BRANCH  16  17
HETATM   17  C9  UNL     1      34.273   9.738   5.630  1.00  0.00     0.002 C 
BRANCH  17  18
HETATM   18  C10 UNL     1      33.149  10.508   6.262  1.00  0.00     0.000 C 
BRANCH  18  19
HETATM   19  C11 UNL     1      31.947  10.551   5.371  1.00  0.00     0.002 C 
BRANCH  19  20
HETATM   20  C12 UNL     1      32.249   9.792   4.084  1.00  0.00     0.026 C 
BRANCH  20  21
HETATM   21  C13 UNL     1      30.976   9.532   3.301  1.00  0.00     0.164 C 
BRANCH  21  22
HETATM   22  O2  UNL     1      31.241   8.728   2.176  1.00  0.00    -0.401 OA
ATOM     23  H2  UNL     1      30.876   7.858   2.293  1.00  0.00     0.209 HD
ENDBRANCH  21  22
ENDBRANCH  20  21
ENDBRANCH  19  20
ENDBRANCH  18  19
ENDBRANCH  17  18
ENDBRANCH  16  17
ENDBRANCH  15  16
ENDBRANCH  12  15
BRANCH   1  24
HETATM   24  N1  UNL     1      34.622   4.036   2.082  1.00  0.00    -0.234 N 
ATOM     25  H12 UNL     1      35.391   3.377   1.970  1.00  0.00     0.174 HD
ATOM     26  H11 UNL     1      33.730   3.652   2.394  1.00  0.00     0.174 HD
ENDBRANCH   1  24
TORSDOF 9
ENDMDL
MODEL 3
REMARK VINA RESULT: -6.726047400      1.786      2.532
REMARK  9 active torsions:
REMARK  status: ('A' for Active; 'I' for Inactive)
REMARK    1  A    between atoms: N1_1  and  C1_4 
REMARK    2  A    between atoms: N4_15  and  C7_16 
REMARK    3  A    between atoms: C7_16  and  C8_17 
REMARK    4  A    between atoms: C8_17  and  C9_18 
REMARK    5  A    between atoms: C9_18  and  C10_19 
REMARK    6  A    between atoms: C10_19  and  C11_20 
REMARK    7  A    between atoms: C11_20  and  C12_21 
REMARK    8  A    between atoms: C12_21  and  C13_22 
REMARK    9  A    between atoms: C13_22  and  O2_23 
ROOT
HETATM    1  C1  UNL     1      35.448   5.530   1.768  1.00  0.00     0.679 A 
HETATM    2  N2  UNL     1      36.032   6.461   2.534  1.00  0.00    -0.195 N 
ATOM      3  H2  UNL     1      36.575   6.143   3.337  1.00  0.00     0.184 HD
HETATM    4  C2  UNL     1      35.951   7.785   2.320  1.00  0.00     0.040 A 
HETATM    5  C3  UNL     1      35.219   8.219   1.241  1.00  0.00     0.035 A 
HETATM    6  C4  UNL     1      34.598   7.279   0.424  1.00  0.00     0.267 A 
HETATM    7  O1  UNL     1      33.927   7.635  -0.562  1.00  0.00    -0.267 OA
HETATM    8  N3  UNL     1      34.733   5.974   0.714  1.00  0.00    -0.156 N 
ATOM      9  H3  UNL     1      34.275   5.290   0.111  1.00  0.00     0.187 HD
HETATM   10  C5  UNL     1      34.966   9.577   0.774  1.00  0.00     0.076 C 
HETATM   11  C6  UNL     1      34.450  10.528   1.825  1.00  0.00     0.277 C 
HETATM   12  N4  UNL     1      34.919  10.253   3.136  1.00  0.00     0.089 N 
HETATM   13  C14 UNL     1      36.336  10.047   3.264  1.00  0.00     0.278 C 
HETATM   14  C15 UNL     1      36.706   8.585   3.339  1.00  0.00     0.088 C 
ENDROOT
BRANCH  12  15
HETATM   15  C7  UNL     1      34.513  11.296   4.039  1.00  0.00     0.272 C 
BRANCH  15  16
HETATM   16  C8  UNL     1      33.021  11.586   4.013  1.00  0.00     0.030 C 
BRANCH  16  17
HETATM   17  C9  UNL     1      32.335  10.600   4.932  1.00  0.00     0.002 C 
BRANCH  17  18
HETATM   18  C10 UNL     1      31.030  10.161   4.333  1.00  0.00     0.000 C 
BRANCH  18  19
HETATM   19  C11 UNL     1      31.243   9.319   3.114  1.00  0.00     0.002 C 
BRANCH  19  20
HETATM   20  C12 UNL     1      29.982   9.347   2.259  1.00  0.00     0.026 C 
BRANCH  20  21
HETATM   21  C13 UNL     1      30.311   9.729   0.828  1.00  0.00     0.164 C 
BRANCH  21  22
HETATM   22  O2  UNL     1      31.439   9.022   0.372  1.00  0.00    -0.401 OA
ATOM     23  H2  UNL     1      31.274   8.087   0.378  1.00  0.00     0.209 HD
ENDBRANCH  21  22
ENDBRANCH  20  21
ENDBRANCH  19  20
ENDBRANCH  18  19
ENDBRANCH  17  18
ENDBRANCH  16  17
ENDBRANCH  15  16
ENDBRANCH  12  15
BRANCH   1  24
HETATM   24  N1  UNL     1      35.575   4.259   2.043  1.00  0.00    -0.234 N 
ATOM     25  H12 UNL     1      35.348   3.874   2.959  1.00  0.00     0.174 HD
ATOM     26  H11 UNL     1      35.910   3.602   1.338  1.00  0.00     0.174 HD
ENDBRANCH   1  24
TORSDOF 9
ENDMDL
MODEL 4
REMARK VINA RESULT: -6.618862872      2.693      3.764
REMARK  9 active torsions:
REMARK  status: ('A' for Active; 'I' for Inactive)
REMARK    1  A    between atoms: N1_1  and  C1_4 
REMARK    2  A    between atoms: N4_15  and  C7_16 
REMARK    3  A    between atoms: C7_16  and  C8_17 
REMARK    4  A    between atoms: C8_17  and  C9_18 
REMARK    5  A    between atoms: C9_18  and  C10_19 
REMARK    6  A    between atoms: C10_19  and  C11_20 
REMARK    7  A    between atoms: C11_20  and  C12_21 
REMARK    8  A    between atoms: C12_21  and  C13_22 
REMARK    9  A    between atoms: C13_22  and  O2_23 
ROOT
HETATM    1  C1  UNL     1      36.419   9.825   5.113  1.00  0.00     0.679 A 
HETATM    2  N2  UNL     1      35.475   9.445   4.241  1.00  0.00    -0.195 N 
ATOM      3  H2  UNL     1      35.781   8.995   3.378  1.00  0.00     0.184 HD
HETATM    4  C2  UNL     1      34.155   9.615   4.424  1.00  0.00     0.040 A 
HETATM    5  C3  UNL     1      33.739  10.223   5.585  1.00  0.00     0.035 A 
HETATM    6  C4  UNL     1      34.692  10.630   6.513  1.00  0.00     0.267 A 
HETATM    7  O1  UNL     1      34.352  11.183   7.575  1.00  0.00    -0.267 OA
HETATM    8  N3  UNL     1      35.992  10.419   6.247  1.00  0.00    -0.156 N 
ATOM      9  H3  UNL     1      36.686  10.721   6.932  1.00  0.00     0.187 HD
HETATM   10  C5  UNL     1      32.388  10.529   6.041  1.00  0.00     0.076 C 
HETATM   11  C6  UNL     1      31.533  11.277   5.048  1.00  0.00     0.277 C 
HETATM   12  N4  UNL     1      31.824  10.977   3.692  1.00  0.00     0.089 N 
HETATM   13  C14 UNL     1      31.913   9.580   3.364  1.00  0.00     0.278 C 
HETATM   14  C15 UNL     1      33.339   9.091   3.280  1.00  0.00     0.088 C 
ENDROOT
BRANCH  12  15
HETATM   15  C7  UNL     1      30.861  11.602   2.826  1.00  0.00     0.272 C 
BRANCH  15  16
HETATM   16  C8  UNL     1      31.372  11.853   1.417  1.00  0.00     0.030 C 
BRANCH  16  17
HETATM   17  C9  UNL     1      30.216  11.664   0.459  1.00  0.00     0.002 C 
BRANCH  17  18
HETATM   18  C10 UNL     1      30.382  10.378  -0.299  1.00  0.00     0.000 C 
BRANCH  18  19
HETATM   19  C11 UNL     1      31.824   9.991  -0.411  1.00  0.00     0.002 C 
BRANCH  19  20
HETATM   20  C12 UNL     1      31.967   8.884  -1.449  1.00  0.00     0.026 C 
BRANCH  20  21
HETATM   21  C13 UNL     1      32.873   9.324  -2.583  1.00  0.00     0.164 C 
BRANCH  21  22
HETATM   22  O2  UNL     1      32.142   9.459  -3.779  1.00  0.00    -0.401 OA
ATOM     23  H2  UNL     1      32.524   8.929  -4.468  1.00  0.00     0.209 HD
ENDBRANCH  21  22
ENDBRANCH  20  21
ENDBRANCH  19  20
ENDBRANCH  18  19
ENDBRANCH  17  18
ENDBRANCH  16  17
ENDBRANCH  15  16
ENDBRANCH  12  15
BRANCH   1  24
HETATM   24  N1  UNL     1      37.684   9.622   4.863  1.00  0.00    -0.234 N 
ATOM     25  H12 UNL     1      38.291  10.353   4.492  1.00  0.00     0.174 HD
ATOM     26  H11 UNL     1      38.113   8.713   5.033  1.00  0.00     0.174 HD
ENDBRANCH   1  24
TORSDOF 9
ENDMDL
MODEL 5
REMARK VINA RESULT: -6.553056337      1.142      1.610
REMARK  9 active torsions:
REMARK  status: ('A' for Active; 'I' for Inactive)
REMARK    1  A    between atoms: N1_1  and  C1_4 
REMARK    2  A    between atoms: N4_15  and  C7_16 
REMARK    3  A    between atoms: C7_16  and  C8_17 
REMARK    4  A    between atoms: C8_17  and  C9_18 
REMARK    5  A    between atoms: C9_18  and  C10_19 
REMARK    6  A    between atoms: C10_19  and  C11_20 
REMARK    7  A    between atoms: C11_20  and  C12_21 
REMARK    8  A    between atoms: C12_21  and  C13_22 
REMARK    9  A    between atoms: C13_22  and  O2_23 
ROOT
HETATM    1  C1  UNL     1      35.780   6.924   1.903  1.00  0.00     0.679 A 
HETATM    2  N2  UNL     1      35.907   7.470   3.120  1.00  0.00    -0.195 N 
ATOM      3  H2  UNL     1      36.095   6.843   3.903  1.00  0.00     0.184 HD
HETATM    4  C2  UNL     1      35.804   8.784   3.381  1.00  0.00     0.040 A 
HETATM    5  C3  UNL     1      35.549   9.631   2.330  1.00  0.00     0.035 A 
HETATM    6  C4  UNL     1      35.411   9.098   1.052  1.00  0.00     0.267 A 
HETATM    7  O1  UNL     1      35.180   9.835   0.075  1.00  0.00    -0.267 OA
HETATM    8  N3  UNL     1      35.529   7.771   0.882  1.00  0.00    -0.156 N 
ATOM      9  H3  UNL     1      35.426   7.387  -0.057  1.00  0.00     0.187 HD
HETATM   10  C5  UNL     1      35.392  11.081   2.321  1.00  0.00     0.076 C 
HETATM   11  C6  UNL     1      34.404  11.623   3.323  1.00  0.00     0.277 C 
HETATM   12  N4  UNL     1      34.310  10.858   4.515  1.00  0.00     0.089 N 
HETATM   13  C14 UNL     1      35.559  10.516   5.140  1.00  0.00     0.278 C 
HETATM   14  C15 UNL     1      35.994   9.103   4.835  1.00  0.00     0.088 C 
ENDROOT
BRANCH  12  15
HETATM   15  C7  UNL     1      33.474  11.530   5.473  1.00  0.00     0.272 C 
BRANCH  15  16
HETATM   16  C8  UNL     1      32.450  10.626   6.139  1.00  0.00     0.030 C 
BRANCH  16  17
HETATM   17  C9  UNL     1      31.077  11.032   5.650  1.00  0.00     0.002 C 
BRANCH  17  18
HETATM   18  C10 UNL     1      31.052  11.053   4.149  1.00  0.00     0.000 C 
BRANCH  18  19
HETATM   19  C11 UNL     1      30.599   9.739   3.591  1.00  0.00     0.002 C 
BRANCH  19  20
HETATM   20  C12 UNL     1      31.745   9.105   2.811  1.00  0.00     0.026 C 
BRANCH  20  21
HETATM   21  C13 UNL     1      31.778   9.622   1.386  1.00  0.00     0.164 C 
BRANCH  21  22
HETATM   22  O2  UNL     1      32.321   8.655   0.519  1.00  0.00    -0.401 OA
ATOM     23  H2  UNL     1      32.670   9.065  -0.264  1.00  0.00     0.209 HD
ENDBRANCH  21  22
ENDBRANCH  20  21
ENDBRANCH  19  20
ENDBRANCH  18  19
ENDBRANCH  17  18
ENDBRANCH  16  17
ENDBRANCH  15  16
ENDBRANCH  12  15
BRANCH   1  24
HETATM   24  N1  UNL     1      35.895   5.635   1.730  1.00  0.00    -0.234 N 
ATOM     25  H12 UNL     1      35.599   4.961   2.436  1.00  0.00     0.174 HD
ATOM     26  H11 UNL     1      36.290   5.255   0.870  1.00  0.00     0.174 HD
ENDBRANCH   1  24
TORSDOF 9
ENDMDL
