MODEL 1
REMARK VINA RESULT: -6.698986678      0.000      0.000
REMARK  7 active torsions:
REMARK  status: ('A' for Active; 'I' for Inactive)
REMARK    1  A    between atoms: C4_5  and  N2_6 
REMARK    2  A    between atoms: C6_11  and  C7_12 
REMARK    3  A    between atoms: C7_12  and  O1_13 
REMARK    4  A    between atoms: O1_13  and  C8_14 
REMARK    5  A    between atoms: C8_14  and  C9_15 
REMARK    6  A    between atoms: C9_15  and  O2_16 
REMARK    7  A    between atoms: O2_16  and  C10_17 
ROOT
HETATM    1  C1  UNL     1      -1.731  53.556  84.564  1.00  0.00     0.310 C 
HETATM    2  N1  UNL     1      -0.748  54.593  84.726  1.00  0.00     0.089 N 
HETATM    3  C2  UNL     1       0.573  54.182  84.260  1.00  0.00     0.274 C 
HETATM    4  C3  UNL     1       1.285  55.245  83.498  1.00  0.00     0.063 C 
HETATM    5  C4  UNL     1       1.225  56.607  84.179  1.00  0.00     0.191 C 
HETATM    6  C5  UNL     1      -0.145  56.896  84.676  1.00  0.00     0.055 C 
HETATM    7  C6  UNL     1      -0.764  58.142  84.147  1.00  0.00     0.018 C 
HETATM    8  C14 UNL     1      -2.245  57.853  84.047  1.00  0.00     0.009 C 
HETATM    9  C15 UNL     1      -2.412  56.380  84.412  1.00  0.00     0.037 C 
HETATM   10  C16 UNL     1      -1.072  55.822  84.090  1.00  0.00     0.229 C 
ENDROOT
BRANCH   7  11
HETATM   11  C7  UNL     1      -0.617  59.296  85.174  1.00  0.00     0.172 C 
BRANCH  11  12
HETATM   12  O1  UNL     1       0.701  59.474  85.480  1.00  0.00    -0.389 OA
BRANCH  12  13
HETATM   13  C8  UNL     1       1.315  60.477  84.717  1.00  0.00     0.193 C 
BRANCH  13  14
HETATM   14  C9  UNL     1       0.532  61.728  84.768  1.00  0.00     0.195 C 
BRANCH  14  15
HETATM   15  O2  UNL     1       0.640  62.462  85.868  1.00  0.00    -0.379 OA
BRANCH  15  16
HETATM   16  C10 UNL     1      -0.332  63.055  86.503  1.00  0.00     0.050 C 
HETATM   17  C11 UNL     1       0.011  64.248  87.314  1.00  0.00     0.045 C 
HETATM   18  C12 UNL     1      -1.449  63.391  85.489  1.00  0.00     0.045 C 
HETATM   19  C13 UNL     1      -0.939  62.027  87.502  1.00  0.00     0.045 C 
ENDBRANCH  15  16
ENDBRANCH  14  15
ENDBRANCH  13  14
ENDBRANCH  12  13
ENDBRANCH  11  12
ENDBRANCH   7  11
BRANCH   5  20
HETATM   20  N2  UNL     1       2.113  56.497  85.348  1.00  0.00    -0.075 N 
ATOM     21  H23 UNL     1       1.813  57.057  86.145  1.00  0.00     0.274 HD
ATOM     22  H22 UNL     1       2.068  55.591  85.814  1.00  0.00     0.274 HD
ATOM     23  H21 UNL     1       3.043  56.735  85.004  1.00  0.00     0.274 HD
ENDBRANCH   5  20
TORSDOF 7
ENDMDL
MODEL 2
REMARK VINA RESULT: -6.390423120      1.593      2.653
REMARK  7 active torsions:
REMARK  status: ('A' for Active; 'I' for Inactive)
REMARK    1  A    between atoms: C4_5  and  N2_6 
REMARK    2  A    between atoms: C6_11  and  C7_12 
REMARK    3  A    between atoms: C7_12  and  O1_13 
REMARK    4  A    between atoms: O1_13  and  C8_14 
REMARK    5  A    between atoms: C8_14  and  C9_15 
REMARK    6  A    between atoms: C9_15  and  O2_16 
REMARK    7  A    between atoms: O2_16  and  C10_17 
ROOT
HETATM    1  C1  UNL     1      -2.497  53.129  83.334  1.00  0.00     0.310 C 
HETATM    2  N1  UNL     1      -2.584  54.557  83.481  1.00  0.00     0.089 N 
HETATM    3  C2  UNL     1      -3.840  54.974  84.096  1.00  0.00     0.274 C 
HETATM    4  C3  UNL     1      -3.669  56.056  85.105  1.00  0.00     0.063 C 
HETATM    5  C4  UNL     1      -2.770  57.186  84.620  1.00  0.00     0.191 C 
HETATM    6  C5  UNL     1      -1.557  56.653  83.950  1.00  0.00     0.055 C 
HETATM    7  C6  UNL     1      -0.261  57.090  84.538  1.00  0.00     0.018 C 
HETATM    8  C14 UNL     1       0.687  55.925  84.352  1.00  0.00     0.009 C 
HETATM    9  C15 UNL     1      -0.150  54.793  83.763  1.00  0.00     0.037 C 
HETATM   10  C16 UNL     1      -1.520  55.142  84.220  1.00  0.00     0.229 C 
ENDROOT
BRANCH   7  11
HETATM   11  C7  UNL     1       0.335  58.266  83.721  1.00  0.00     0.172 C 
BRANCH  11  12
HETATM   12  O1  UNL     1       0.135  59.438  84.390  1.00  0.00    -0.389 OA
BRANCH  12  13
HETATM   13  C8  UNL     1       1.294  60.220  84.495  1.00  0.00     0.193 C 
BRANCH  13  14
HETATM   14  C9  UNL     1       0.952  61.654  84.590  1.00  0.00     0.195 C 
BRANCH  14  15
HETATM   15  O2  UNL     1       0.824  62.164  85.807  1.00  0.00    -0.379 OA
BRANCH  15  16
HETATM   16  C10 UNL     1      -0.224  62.776  86.286  1.00  0.00     0.050 C 
HETATM   17  C11 UNL     1       0.007  64.026  87.049  1.00  0.00     0.045 C 
HETATM   18  C12 UNL     1      -1.221  63.019  85.132  1.00  0.00     0.045 C 
HETATM   19  C13 UNL     1      -0.926  61.801  87.277  1.00  0.00     0.045 C 
ENDBRANCH  15  16
ENDBRANCH  14  15
ENDBRANCH  13  14
ENDBRANCH  12  13
ENDBRANCH  11  12
ENDBRANCH   7  11
BRANCH   5  20
HETATM   20  N2  UNL     1      -3.561  57.907  83.610  1.00  0.00    -0.075 N 
ATOM     21  H23 UNL     1      -3.969  58.777  83.952  1.00  0.00     0.274 HD
ATOM     22  H22 UNL     1      -2.998  58.323  82.867  1.00  0.00     0.274 HD
ATOM     23  H21 UNL     1      -4.250  57.234  83.275  1.00  0.00     0.274 HD
ENDBRANCH   5  20
TORSDOF 7
ENDMDL
MODEL 3
REMARK VINA RESULT: -6.351231031      1.331      2.418
REMARK  7 active torsions:
REMARK  status: ('A' for Active; 'I' for Inactive)
REMARK    1  A    between atoms: C4_5  and  N2_6 
REMARK    2  A    between atoms: C6_11  and  C7_12 
REMARK    3  A    between atoms: C7_12  and  O1_13 
REMARK    4  A    between atoms: O1_13  and  C8_14 
REMARK    5  A    between atoms: C8_14  and  C9_15 
REMARK    6  A    between atoms: C9_15  and  O2_16 
REMARK    7  A    between atoms: O2_16  and  C10_17 
ROOT
HETATM    1  C1  UNL     1       1.250  52.791  83.722  1.00  0.00     0.310 C 
HETATM    2  N1  UNL     1       0.476  54.003  83.719  1.00  0.00     0.089 N 
HETATM    3  C2  UNL     1      -0.929  53.764  84.035  1.00  0.00     0.274 C 
HETATM    4  C3  UNL     1      -1.506  54.782  84.956  1.00  0.00     0.063 C 
HETATM    5  C4  UNL     1      -1.159  56.211  84.556  1.00  0.00     0.191 C 
HETATM    6  C5  UNL     1       0.276  56.329  84.188  1.00  0.00     0.055 C 
HETATM    7  C6  UNL     1       1.056  57.322  84.977  1.00  0.00     0.018 C 
HETATM    8  C14 UNL     1       2.453  56.752  85.086  1.00  0.00     0.009 C 
HETATM    9  C15 UNL     1       2.392  55.365  84.450  1.00  0.00     0.037 C 
HETATM   10  C16 UNL     1       0.955  55.014  84.595  1.00  0.00     0.229 C 
ENDROOT
BRANCH   7  11
HETATM   11  C7  UNL     1       1.193  58.651  84.188  1.00  0.00     0.172 C 
BRANCH  11  12
HETATM   12  O1  UNL     1       1.271  59.697  85.062  1.00  0.00    -0.389 OA
BRANCH  12  13
HETATM   13  C8  UNL     1       1.519  60.925  84.433  1.00  0.00     0.193 C 
BRANCH  13  14
HETATM   14  C9  UNL     1       0.409  61.870  84.673  1.00  0.00     0.195 C 
BRANCH  14  15
HETATM   15  O2  UNL     1       0.546  62.716  85.684  1.00  0.00    -0.379 OA
BRANCH  15  16
HETATM   16  C10 UNL     1      -0.413  63.211  86.416  1.00  0.00     0.050 C 
HETATM   17  C11 UNL     1      -0.082  64.367  87.284  1.00  0.00     0.045 C 
HETATM   18  C12 UNL     1      -1.609  63.546  85.497  1.00  0.00     0.045 C 
HETATM   19  C13 UNL     1      -0.899  62.088  87.379  1.00  0.00     0.045 C 
ENDBRANCH  15  16
ENDBRANCH  14  15
ENDBRANCH  13  14
ENDBRANCH  12  13
ENDBRANCH  11  12
ENDBRANCH   7  11
BRANCH   5  20
HETATM   20  N2  UNL     1      -1.956  56.482  83.349  1.00  0.00    -0.075 N 
ATOM     21  H23 UNL     1      -1.605  56.017  82.512  1.00  0.00     0.274 HD
ATOM     22  H22 UNL     1      -2.875  56.039  83.356  1.00  0.00     0.274 HD
ATOM     23  H21 UNL     1      -1.990  57.498  83.271  1.00  0.00     0.274 HD
ENDBRANCH   5  20
TORSDOF 7
ENDMDL
MODEL 4
REMARK VINA RESULT: -6.296251956      1.313      2.424
REMARK  7 active torsions:
REMARK  status: ('A' for Active; 'I' for Inactive)
REMARK    1  A    between atoms: C4_5  and  N2_6 
REMARK    2  A    between atoms: C6_11  and  C7_12 
REMARK    3  A    between atoms: C7_12  and  O1_13 
REMARK    4  A    between atoms: O1_13  and  C8_14 
REMARK    5  A    between atoms: C8_14  and  C9_15 
REMARK    6  A    between atoms: C9_15  and  O2_16 
REMARK    7  A    between atoms: O2_16  and  C10_17 
ROOT
HETATM    1  C1  UNL     1      -0.714  53.710  83.782  1.00  0.00     0.310 C 
HETATM    2  N1  UNL     1      -1.301  55.022  83.828  1.00  0.00     0.089 N 
HETATM    3  C2  UNL     1      -2.723  54.980  84.159  1.00  0.00     0.274 C 
HETATM    4  C3  UNL     1      -3.133  56.042  85.119  1.00  0.00     0.063 C 
HETATM    5  C4  UNL     1      -2.585  57.417  84.757  1.00  0.00     0.191 C 
HETATM    6  C5  UNL     1      -1.153  57.335  84.371  1.00  0.00     0.055 C 
HETATM    7  C6  UNL     1      -0.227  58.177  85.177  1.00  0.00     0.018 C 
HETATM    8  C14 UNL     1       1.073  57.406  85.247  1.00  0.00     0.009 C 
HETATM    9  C15 UNL     1       0.802  56.064  84.571  1.00  0.00     0.037 C 
HETATM   10  C16 UNL     1      -0.669  55.922  84.728  1.00  0.00     0.229 C 
ENDROOT
BRANCH   7  11
HETATM   11  C7  UNL     1       0.095  59.497  84.427  1.00  0.00     0.172 C 
BRANCH  11  12
HETATM   12  O1  UNL     1       1.428  59.773  84.534  1.00  0.00    -0.389 OA
BRANCH  12  13
HETATM   13  C8  UNL     1       1.721  61.138  84.418  1.00  0.00     0.193 C 
BRANCH  13  14
HETATM   14  C9  UNL     1       0.526  61.957  84.707  1.00  0.00     0.195 C 
BRANCH  14  15
HETATM   15  O2  UNL     1       0.588  62.763  85.758  1.00  0.00    -0.379 OA
BRANCH  15  16
HETATM   16  C10 UNL     1      -0.421  63.224  86.444  1.00  0.00     0.050 C 
HETATM   17  C11 UNL     1      -0.177  64.402  87.310  1.00  0.00     0.045 C 
HETATM   18  C12 UNL     1      -1.591  63.496  85.473  1.00  0.00     0.045 C 
HETATM   19  C13 UNL     1      -0.897  62.090  87.400  1.00  0.00     0.045 C 
ENDBRANCH  15  16
ENDBRANCH  14  15
ENDBRANCH  13  14
ENDBRANCH  12  13
ENDBRANCH  11  12
ENDBRANCH   7  11
BRANCH   5  20
HETATM   20  N2  UNL     1      -3.346  57.840  83.571  1.00  0.00    -0.075 N 
ATOM     21  H23 UNL     1      -3.744  57.066  83.041  1.00  0.00     0.274 HD
ATOM     22  H22 UNL     1      -4.230  58.300  83.793  1.00  0.00     0.274 HD
ATOM     23  H21 UNL     1      -2.706  58.422  83.032  1.00  0.00     0.274 HD
ENDBRANCH   5  20
TORSDOF 7
ENDMDL
MODEL 5
REMARK VINA RESULT: -6.113105204      1.427      2.183
REMARK  7 active torsions:
REMARK  status: ('A' for Active; 'I' for Inactive)
REMARK    1  A    between atoms: C4_5  and  N2_6 
REMARK    2  A    between atoms: C6_11  and  C7_12 
REMARK    3  A    between atoms: C7_12  and  O1_13 
REMARK    4  A    between atoms: O1_13  and  C8_14 
REMARK    5  A    between atoms: C8_14  and  C9_15 
REMARK    6  A    between atoms: C9_15  and  O2_16 
REMARK    7  A    between atoms: O2_16  and  C10_17 
ROOT
HETATM    1  C1  UNL     1       0.479  53.042  86.926  1.00  0.00     0.310 C 
HETATM    2  N1  UNL     1       0.899  54.178  86.150  1.00  0.00     0.089 N 
HETATM    3  C2  UNL     1       2.304  54.094  85.762  1.00  0.00     0.274 C 
HETATM    4  C3  UNL     1       2.552  54.520  84.357  1.00  0.00     0.063 C 
HETATM    5  C4  UNL     1       1.850  55.824  83.998  1.00  0.00     0.191 C 
HETATM    6  C5  UNL     1       0.451  55.832  84.498  1.00  0.00     0.055 C 
HETATM    7  C6  UNL     1      -0.595  56.036  83.459  1.00  0.00     0.018 C 
HETATM    8  C14 UNL     1      -1.792  55.232  83.919  1.00  0.00     0.009 C 
HETATM    9  C15 UNL     1      -1.338  54.481  85.167  1.00  0.00     0.037 C 
HETATM   10  C16 UNL     1       0.134  54.408  84.975  1.00  0.00     0.229 C 
ENDROOT
BRANCH   7  11
HETATM   11  C7  UNL     1      -1.054  57.518  83.437  1.00  0.00     0.172 C 
BRANCH  11  12
HETATM   12  O1  UNL     1      -0.302  58.245  84.314  1.00  0.00    -0.389 OA
BRANCH  12  13
HETATM   13  C8  UNL     1      -1.068  59.062  85.155  1.00  0.00     0.193 C 
BRANCH  13  14
HETATM   14  C9  UNL     1      -0.203  59.974  85.931  1.00  0.00     0.195 C 
BRANCH  14  15
HETATM   15  O2  UNL     1      -0.653  61.205  86.133  1.00  0.00    -0.379 OA
BRANCH  15  16
HETATM   16  C10 UNL     1      -0.118  62.309  85.689  1.00  0.00     0.050 C 
HETATM   17  C11 UNL     1       0.231  63.348  86.688  1.00  0.00     0.045 C 
HETATM   18  C12 UNL     1       1.114  61.947  84.830  1.00  0.00     0.045 C 
HETATM   19  C13 UNL     1      -1.145  62.977  84.728  1.00  0.00     0.045 C 
ENDBRANCH  15  16
ENDBRANCH  14  15
ENDBRANCH  13  14
ENDBRANCH  12  13
ENDBRANCH  11  12
ENDBRANCH   7  11
BRANCH   5  20
HETATM   20  N2  UNL     1       2.590  56.875  84.714  1.00  0.00    -0.075 N 
ATOM     21  H23 UNL     1       2.044  57.720  84.880  1.00  0.00     0.274 HD
ATOM     22  H22 UNL     1       2.771  56.655  85.694  1.00  0.00     0.274 HD
ATOM     23  H21 UNL     1       3.435  57.032  84.166  1.00  0.00     0.274 HD
ENDBRANCH   5  20
TORSDOF 7
ENDMDL
