MODEL 1
REMARK VINA RESULT: -8.262801920      0.000      0.000
REMARK  10 active torsions:
REMARK  status: ('A' for Active; 'I' for Inactive)
REMARK    1  A    between atoms: N1_1  and  C1_5 
REMARK    2  A    between atoms: C1_5  and  O1_6 
REMARK    3  A    between atoms: C1_5  and  C2_8 
REMARK    4  A    between atoms: C3_13  and  N5_14 
REMARK    5  A    between atoms: N5_14  and  C4_16 
REMARK    6  A    between atoms: C6_27  and  S1_28 
REMARK    7  A    between atoms: S1_28  and  C7_29 
REMARK    8  A    between atoms: C7_29  and  C8_30 
REMARK       I    between atoms: C8_30  and  N10_32 
REMARK    9  A    between atoms: N10_32  and  C9_34 
REMARK   10  A    between atoms: C10_39  and  O4_40 
ROOT
HETATM    1  C2  UNL     1      21.468  36.684  34.069  1.00  0.00     0.126 A 
HETATM    2  N2  UNL     1      21.159  37.890  33.550  1.00  0.00    -0.279 N 
ATOM      3  H2  UNL     1      20.777  38.671  34.085  1.00  0.00     0.184 HD
HETATM    4  N3  UNL     1      21.419  37.921  32.254  1.00  0.00     0.002 NA
HETATM    5  N4  UNL     1      21.898  36.731  31.927  1.00  0.00    -0.051 N 
HETATM    6  C3  UNL     1      22.304  36.285  30.722  1.00  0.00     0.720 A 
HETATM    7  N9  UNL     1      22.752  35.013  30.674  1.00  0.00    -0.168 N 
ATOM      8  H9  UNL     1      23.066  34.640  29.779  1.00  0.00     0.186 HD
HETATM    9  C6  UNL     1      22.802  34.229  31.745  1.00  0.00     0.161 A 
HETATM   10  N13 UNL     1      22.401  34.668  32.942  1.00  0.00    -0.319 N 
ATOM     11  H13 UNL     1      22.437  34.069  33.766  1.00  0.00     0.169 HD
HETATM   12  C13 UNL     1      21.947  35.934  33.016  1.00  0.00     0.174 A 
ENDROOT
BRANCH   9  13
HETATM   13  S1  UNL     1      23.408  32.571  31.588  1.00  0.00    -0.084 SA
BRANCH  13  14
HETATM   14  C7  UNL     1      25.156  32.575  31.139  1.00  0.00     0.185 C 
BRANCH  14  15
HETATM   15  C8  UNL     1      25.565  31.164  30.798  1.00  0.00     0.232 C 
HETATM   16  O3  UNL     1      26.643  31.068  30.115  1.00  0.00    -0.272 OA
HETATM   17  N10 UNL     1      24.791  30.104  31.222  1.00  0.00    -0.315 N 
ATOM     18  H10 UNL     1      23.957  30.334  31.761  1.00  0.00     0.170 HD
BRANCH  17  19
HETATM   19  C9  UNL     1      25.034  28.732  30.988  1.00  0.00     0.098 C 
HETATM   20  N11 UNL     1      25.091  28.286  29.734  1.00  0.00    -0.291 N 
HETATM   21  N12 UNL     1      25.334  26.919  29.572  1.00  0.00    -0.306 N 
ATOM     22  H11 UNL     1      24.964  28.908  28.936  1.00  0.00     0.188 HD
HETATM   23  C10 UNL     1      26.508  26.395  30.276  1.00  0.00     0.233 C 
ATOM     24  H12 UNL     1      24.733  26.325  29.001  1.00  0.00     0.183 HD
HETATM   25  C11 UNL     1      26.521  26.889  31.707  1.00  0.00     0.062 C 
HETATM   26  C12 UNL     1      25.240  27.688  31.992  1.00  0.00     0.082 C 
BRANCH  23  27
HETATM   27  O4  UNL     1      26.531  25.003  30.237  1.00  0.00    -0.376 OA
ATOM     28  H4  UNL     1      26.748  24.644  31.089  1.00  0.00     0.212 HD
ENDBRANCH  23  27
ENDBRANCH  17  19
ENDBRANCH  14  15
ENDBRANCH  13  14
ENDBRANCH   9  13
BRANCH   6  29
HETATM   29  N5  UNL     1      22.264  37.029  29.673  1.00  0.00    -0.019 N 
ATOM     30  H5  UNL     1      21.511  36.921  28.994  1.00  0.00     0.203 HD
BRANCH  29  31
HETATM   31  C4  UNL     1      23.275  37.998  29.473  1.00  0.00     0.715 A 
HETATM   32  N6  UNL     1      24.436  37.889  28.803  1.00  0.00    -0.138 N 
HETATM   33  C5  UNL     1      25.087  39.062  28.869  1.00  0.00     0.353 A 
ATOM     34  H6  UNL     1      24.768  37.052  28.323  1.00  0.00     0.189 HD
HETATM   35  O2  UNL     1      26.208  39.325  28.355  1.00  0.00    -0.245 OA
HETATM   36  N7  UNL     1      24.329  39.898  29.579  1.00  0.00    -0.237 N 
HETATM   37  N8  UNL     1      23.235  39.269  29.949  1.00  0.00    -0.127 N 
ATOM     38  H7  UNL     1      24.559  40.867  29.800  1.00  0.00     0.192 HD
ATOM     39  H8  UNL     1      22.480  39.671  30.503  1.00  0.00     0.205 HD
ENDBRANCH  29  31
ENDBRANCH   6  29
BRANCH   1  40
HETATM   40  C1  UNL     1      21.308  36.286  35.500  1.00  0.00     0.372 C 
BRANCH  40  41
HETATM   41  N1  UNL     1      20.801  37.436  36.226  1.00  0.00    -0.047 N 
ATOM     42  H13 UNL     1      19.992  37.839  35.753  1.00  0.00     0.277 HD
ATOM     43  H12 UNL     1      20.358  37.151  37.099  1.00  0.00     0.277 HD
ATOM     44  H11 UNL     1      21.516  38.144  36.393  1.00  0.00     0.277 HD
ENDBRANCH  40  41
BRANCH  40  45
HETATM   45  O1  UNL     1      20.467  35.201  35.569  1.00  0.00    -0.365 OA
ATOM     46  H1  UNL     1      20.451  34.802  36.431  1.00  0.00     0.212 HD
ENDBRANCH  40  45
ENDBRANCH   1  40
TORSDOF 10
ENDMDL
MODEL 2
REMARK VINA RESULT: -8.198026914      1.387      4.622
REMARK  10 active torsions:
REMARK  status: ('A' for Active; 'I' for Inactive)
REMARK    1  A    between atoms: N1_1  and  C1_5 
REMARK    2  A    between atoms: C1_5  and  O1_6 
REMARK    3  A    between atoms: C1_5  and  C2_8 
REMARK    4  A    between atoms: C3_13  and  N5_14 
REMARK    5  A    between atoms: N5_14  and  C4_16 
REMARK    6  A    between atoms: C6_27  and  S1_28 
REMARK    7  A    between atoms: S1_28  and  C7_29 
REMARK    8  A    between atoms: C7_29  and  C8_30 
REMARK       I    between atoms: C8_30  and  N10_32 
REMARK    9  A    between atoms: N10_32  and  C9_34 
REMARK   10  A    between atoms: C10_39  and  O4_40 
ROOT
HETATM    1  C2  UNL     1      22.971  37.223  29.268  1.00  0.00     0.126 A 
HETATM    2  N2  UNL     1      22.106  38.195  29.626  1.00  0.00    -0.279 N 
ATOM      3  H2  UNL     1      22.051  39.113  29.185  1.00  0.00     0.184 HD
HETATM    4  N3  UNL     1      21.341  37.793  30.627  1.00  0.00     0.002 NA
HETATM    5  N4  UNL     1      21.709  36.556  30.923  1.00  0.00    -0.051 N 
HETATM    6  C3  UNL     1      21.220  35.733  31.871  1.00  0.00     0.720 A 
HETATM    7  N9  UNL     1      21.787  34.512  31.954  1.00  0.00    -0.168 N 
ATOM      8  H9  UNL     1      21.445  33.862  32.661  1.00  0.00     0.186 HD
HETATM    9  C6  UNL     1      22.774  34.122  31.155  1.00  0.00     0.161 A 
HETATM   10  N13 UNL     1      23.261  34.936  30.213  1.00  0.00    -0.319 N 
ATOM     11  H13 UNL     1      24.018  34.641  29.596  1.00  0.00     0.169 HD
HETATM   12  C13 UNL     1      22.712  36.162  30.110  1.00  0.00     0.174 A 
ENDROOT
BRANCH   9  13
HETATM   13  S1  UNL     1      23.458  32.498  31.336  1.00  0.00    -0.084 SA
BRANCH  13  14
HETATM   14  C7  UNL     1      25.192  32.481  30.834  1.00  0.00     0.185 C 
BRANCH  14  15
HETATM   15  C8  UNL     1      25.598  31.054  30.566  1.00  0.00     0.232 C 
HETATM   16  O3  UNL     1      26.684  30.921  29.901  1.00  0.00    -0.272 OA
HETATM   17  N10 UNL     1      24.814  30.019  31.030  1.00  0.00    -0.315 N 
ATOM     18  H10 UNL     1      23.974  30.279  31.547  1.00  0.00     0.170 HD
BRANCH  17  19
HETATM   19  C9  UNL     1      25.052  28.636  30.865  1.00  0.00     0.098 C 
HETATM   20  N11 UNL     1      25.173  28.139  29.635  1.00  0.00    -0.291 N 
HETATM   21  N12 UNL     1      25.408  26.764  29.542  1.00  0.00    -0.306 N 
ATOM     22  H11 UNL     1      25.098  28.729  28.807  1.00  0.00     0.188 HD
HETATM   23  C10 UNL     1      26.535  26.257  30.331  1.00  0.00     0.233 C 
ATOM     24  H12 UNL     1      24.833  26.153  28.963  1.00  0.00     0.183 HD
HETATM   25  C11 UNL     1      26.475  26.809  31.739  1.00  0.00     0.062 C 
HETATM   26  C12 UNL     1      25.190  27.632  31.920  1.00  0.00     0.082 C 
BRANCH  23  27
HETATM   27  O4  UNL     1      26.544  24.865  30.349  1.00  0.00    -0.376 OA
ATOM     28  H4  UNL     1      26.889  24.539  31.172  1.00  0.00     0.212 HD
ENDBRANCH  23  27
ENDBRANCH  17  19
ENDBRANCH  14  15
ENDBRANCH  13  14
ENDBRANCH   9  13
BRANCH   6  29
HETATM   29  N5  UNL     1      20.265  36.091  32.655  1.00  0.00    -0.019 N 
ATOM     30  H5  UNL     1      19.311  36.172  32.302  1.00  0.00     0.203 HD
BRANCH  29  31
HETATM   31  C4  UNL     1      20.551  36.370  34.012  1.00  0.00     0.715 A 
HETATM   32  N6  UNL     1      20.664  37.560  34.630  1.00  0.00    -0.138 N 
HETATM   33  C5  UNL     1      20.943  37.351  35.927  1.00  0.00     0.353 A 
ATOM     34  H6  UNL     1      20.557  38.472  34.185  1.00  0.00     0.189 HD
HETATM   35  O2  UNL     1      21.117  38.238  36.806  1.00  0.00    -0.245 OA
HETATM   36  N7  UNL     1      21.002  36.032  36.113  1.00  0.00    -0.237 N 
HETATM   37  N8  UNL     1      20.768  35.431  34.968  1.00  0.00    -0.127 N 
ATOM     38  H7  UNL     1      21.197  35.566  36.999  1.00  0.00     0.192 HD
ATOM     39  H8  UNL     1      20.752  34.422  34.822  1.00  0.00     0.205 HD
ENDBRANCH  29  31
ENDBRANCH   6  29
BRANCH   1  40
HETATM   40  C1  UNL     1      23.985  37.320  28.175  1.00  0.00     0.372 C 
BRANCH  40  41
HETATM   41  N1  UNL     1      25.287  37.488  28.794  1.00  0.00    -0.047 N 
ATOM     42  H13 UNL     1      25.958  37.879  28.133  1.00  0.00     0.277 HD
ATOM     43  H12 UNL     1      25.272  38.242  29.480  1.00  0.00     0.277 HD
ATOM     44  H11 UNL     1      25.642  36.625  29.207  1.00  0.00     0.277 HD
ENDBRANCH  40  41
BRANCH  40  45
HETATM   45  O1  UNL     1      23.908  36.191  27.395  1.00  0.00    -0.365 OA
ATOM     46  H1  UNL     1      23.303  35.545  27.743  1.00  0.00     0.212 HD
ENDBRANCH  40  45
ENDBRANCH   1  40
TORSDOF 10
ENDMDL
MODEL 3
REMARK VINA RESULT: -8.099520972      1.761      4.371
REMARK  10 active torsions:
REMARK  status: ('A' for Active; 'I' for Inactive)
REMARK    1  A    between atoms: N1_1  and  C1_5 
REMARK    2  A    between atoms: C1_5  and  O1_6 
REMARK    3  A    between atoms: C1_5  and  C2_8 
REMARK    4  A    between atoms: C3_13  and  N5_14 
REMARK    5  A    between atoms: N5_14  and  C4_16 
REMARK    6  A    between atoms: C6_27  and  S1_28 
REMARK    7  A    between atoms: S1_28  and  C7_29 
REMARK    8  A    between atoms: C7_29  and  C8_30 
REMARK       I    between atoms: C8_30  and  N10_32 
REMARK    9  A    between atoms: N10_32  and  C9_34 
REMARK   10  A    between atoms: C10_39  and  O4_40 
ROOT
HETATM    1  C2  UNL     1      21.641  37.239  29.139  1.00  0.00     0.126 A 
HETATM    2  N2  UNL     1      20.606  37.707  29.867  1.00  0.00    -0.279 N 
ATOM      3  H2  UNL     1      19.975  38.451  29.567  1.00  0.00     0.184 HD
HETATM    4  N3  UNL     1      20.523  37.071  31.023  1.00  0.00     0.002 NA
HETATM    5  N4  UNL     1      21.507  36.185  31.049  1.00  0.00    -0.051 N 
HETATM    6  C3  UNL     1      21.828  35.306  32.018  1.00  0.00     0.720 A 
HETATM    7  N9  UNL     1      22.893  34.513  31.778  1.00  0.00    -0.168 N 
ATOM      8  H9  UNL     1      23.168  33.836  32.489  1.00  0.00     0.186 HD
HETATM    9  C6  UNL     1      23.598  34.578  30.655  1.00  0.00     0.161 A 
HETATM   10  N13 UNL     1      23.282  35.449  29.691  1.00  0.00    -0.319 N 
ATOM     11  H13 UNL     1      23.821  35.502  28.826  1.00  0.00     0.169 HD
HETATM   12  C13 UNL     1      22.224  36.253  29.907  1.00  0.00     0.174 A 
ENDROOT
BRANCH   9  13
HETATM   13  S1  UNL     1      24.982  33.495  30.425  1.00  0.00    -0.084 SA
BRANCH  13  14
HETATM   14  C7  UNL     1      25.018  32.230  31.712  1.00  0.00     0.185 C 
BRANCH  14  15
HETATM   15  C8  UNL     1      25.312  30.900  31.066  1.00  0.00     0.232 C 
HETATM   16  O3  UNL     1      25.915  30.973  29.939  1.00  0.00    -0.272 OA
HETATM   17  N10 UNL     1      24.934  29.732  31.695  1.00  0.00    -0.315 N 
ATOM     18  H10 UNL     1      24.460  29.830  32.593  1.00  0.00     0.170 HD
BRANCH  17  19
HETATM   19  C9  UNL     1      25.134  28.415  31.226  1.00  0.00     0.098 C 
HETATM   20  N11 UNL     1      25.092  28.177  29.916  1.00  0.00    -0.291 N 
HETATM   21  N12 UNL     1      25.298  26.852  29.519  1.00  0.00    -0.306 N 
ATOM     22  H11 UNL     1      24.919  28.920  29.240  1.00  0.00     0.188 HD
HETATM   23  C10 UNL     1      26.510  26.214  30.040  1.00  0.00     0.233 C 
ATOM     24  H12 UNL     1      24.647  26.362  28.906  1.00  0.00     0.183 HD
HETATM   25  C11 UNL     1      26.636  26.470  31.527  1.00  0.00     0.062 C 
HETATM   26  C12 UNL     1      25.393  27.221  32.031  1.00  0.00     0.082 C 
BRANCH  23  27
HETATM   27  O4  UNL     1      26.506  24.847  29.777  1.00  0.00    -0.376 OA
ATOM     28  H4  UNL     1      26.949  24.367  30.466  1.00  0.00     0.212 HD
ENDBRANCH  23  27
ENDBRANCH  17  19
ENDBRANCH  14  15
ENDBRANCH  13  14
ENDBRANCH   9  13
BRANCH   6  29
HETATM   29  N5  UNL     1      21.158  35.227  33.113  1.00  0.00    -0.019 N 
ATOM     30  H5  UNL     1      20.490  34.469  33.255  1.00  0.00     0.203 HD
BRANCH  29  31
HETATM   31  C4  UNL     1      21.357  36.201  34.119  1.00  0.00     0.715 A 
HETATM   32  N6  UNL     1      22.142  37.293  34.102  1.00  0.00    -0.138 N 
HETATM   33  C5  UNL     1      22.020  37.934  35.276  1.00  0.00     0.353 A 
ATOM     34  H6  UNL     1      22.734  37.586  33.324  1.00  0.00     0.189 HD
HETATM   35  O2  UNL     1      22.610  38.996  35.612  1.00  0.00    -0.245 OA
HETATM   36  N7  UNL     1      21.159  37.240  36.020  1.00  0.00    -0.237 N 
HETATM   37  N8  UNL     1      20.753  36.194  35.335  1.00  0.00    -0.127 N 
ATOM     38  H7  UNL     1      20.863  37.481  36.966  1.00  0.00     0.192 HD
ATOM     39  H8  UNL     1      20.091  35.491  35.664  1.00  0.00     0.205 HD
ENDBRANCH  29  31
ENDBRANCH   6  29
BRANCH   1  40
HETATM   40  C1  UNL     1      22.037  37.721  27.782  1.00  0.00     0.372 C 
BRANCH  40  41
HETATM   41  N1  UNL     1      22.288  39.147  27.875  1.00  0.00    -0.047 N 
ATOM     42  H13 UNL     1      23.199  39.385  27.481  1.00  0.00     0.277 HD
ATOM     43  H12 UNL     1      21.690  39.666  27.232  1.00  0.00     0.277 HD
ATOM     44  H11 UNL     1      22.197  39.503  28.826  1.00  0.00     0.277 HD
ENDBRANCH  40  41
BRANCH  40  45
HETATM   45  O1  UNL     1      23.139  37.014  27.363  1.00  0.00    -0.365 OA
ATOM     46  H1  UNL     1      23.265  37.052  26.422  1.00  0.00     0.212 HD
ENDBRANCH  40  45
ENDBRANCH   1  40
TORSDOF 10
ENDMDL
MODEL 4
REMARK VINA RESULT: -8.021460049      1.793      4.205
REMARK  10 active torsions:
REMARK  status: ('A' for Active; 'I' for Inactive)
REMARK    1  A    between atoms: N1_1  and  C1_5 
REMARK    2  A    between atoms: C1_5  and  O1_6 
REMARK    3  A    between atoms: C1_5  and  C2_8 
REMARK    4  A    between atoms: C3_13  and  N5_14 
REMARK    5  A    between atoms: N5_14  and  C4_16 
REMARK    6  A    between atoms: C6_27  and  S1_28 
REMARK    7  A    between atoms: S1_28  and  C7_29 
REMARK    8  A    between atoms: C7_29  and  C8_30 
REMARK       I    between atoms: C8_30  and  N10_32 
REMARK    9  A    between atoms: N10_32  and  C9_34 
REMARK   10  A    between atoms: C10_39  and  O4_40 
ROOT
HETATM    1  C2  UNL     1      21.859  36.554  29.741  1.00  0.00     0.126 A 
HETATM    2  N2  UNL     1      21.032  37.485  30.259  1.00  0.00    -0.279 N 
ATOM      3  H2  UNL     1      20.658  38.281  29.742  1.00  0.00     0.184 HD
HETATM    4  N3  UNL     1      20.774  37.225  31.530  1.00  0.00     0.002 NA
HETATM    5  N4  UNL     1      21.435  36.120  31.841  1.00  0.00    -0.051 N 
HETATM    6  C3  UNL     1      21.483  35.467  33.018  1.00  0.00     0.720 A 
HETATM    7  N9  UNL     1      22.245  34.355  33.055  1.00  0.00    -0.168 N 
ATOM      8  H9  UNL     1      22.308  33.834  33.929  1.00  0.00     0.186 HD
HETATM    9  C6  UNL     1      22.918  33.910  32.000  1.00  0.00     0.161 A 
HETATM   10  N13 UNL     1      22.873  34.556  30.830  1.00  0.00    -0.319 N 
ATOM     11  H13 UNL     1      23.388  34.218  30.017  1.00  0.00     0.169 HD
HETATM   12  C13 UNL     1      22.120  35.670  30.768  1.00  0.00     0.174 A 
ENDROOT
BRANCH   9  13
HETATM   13  S1  UNL     1      23.894  32.438  32.140  1.00  0.00    -0.084 SA
BRANCH  13  14
HETATM   14  C7  UNL     1      25.251  32.461  30.950  1.00  0.00     0.185 C 
BRANCH  14  15
HETATM   15  C8  UNL     1      25.624  31.037  30.624  1.00  0.00     0.232 C 
HETATM   16  O3  UNL     1      26.650  30.911  29.868  1.00  0.00    -0.272 OA
HETATM   17  N10 UNL     1      24.876  29.997  31.134  1.00  0.00    -0.315 N 
ATOM     18  H10 UNL     1      24.084  30.251  31.724  1.00  0.00     0.170 HD
BRANCH  17  19
HETATM   19  C9  UNL     1      25.091  28.617  30.925  1.00  0.00     0.098 C 
HETATM   20  N11 UNL     1      25.172  28.152  29.679  1.00  0.00    -0.291 N 
HETATM   21  N12 UNL     1      25.386  26.777  29.542  1.00  0.00    -0.306 N 
ATOM     22  H11 UNL     1      25.083  28.766  28.869  1.00  0.00     0.188 HD
HETATM   23  C10 UNL     1      26.526  26.235  30.286  1.00  0.00     0.233 C 
ATOM     24  H12 UNL     1      24.787  26.190  28.962  1.00  0.00     0.183 HD
HETATM   25  C11 UNL     1      26.512  26.748  31.710  1.00  0.00     0.062 C 
HETATM   26  C12 UNL     1      25.243  27.582  31.947  1.00  0.00     0.082 C 
BRANCH  23  27
HETATM   27  O4  UNL     1      26.517  24.843  30.266  1.00  0.00    -0.376 OA
ATOM     28  H4  UNL     1      26.790  24.489  31.105  1.00  0.00     0.212 HD
ENDBRANCH  23  27
ENDBRANCH  17  19
ENDBRANCH  14  15
ENDBRANCH  13  14
ENDBRANCH   9  13
BRANCH   6  29
HETATM   29  N5  UNL     1      20.838  35.881  34.052  1.00  0.00    -0.019 N 
ATOM     30  H5  UNL     1      19.985  35.408  34.350  1.00  0.00     0.203 HD
BRANCH  29  31
HETATM   31  C4  UNL     1      21.325  36.998  34.770  1.00  0.00     0.715 A 
HETATM   32  N6  UNL     1      22.228  37.922  34.396  1.00  0.00    -0.138 N 
HETATM   33  C5  UNL     1      22.387  38.804  35.397  1.00  0.00     0.353 A 
ATOM     34  H6  UNL     1      22.714  37.949  33.499  1.00  0.00     0.189 HD
HETATM   35  O2  UNL     1      23.155  39.803  35.397  1.00  0.00    -0.245 OA
HETATM   36  N7  UNL     1      21.582  38.426  36.391  1.00  0.00    -0.237 N 
HETATM   37  N8  UNL     1      20.938  37.341  36.026  1.00  0.00    -0.127 N 
ATOM     38  H7  UNL     1      21.482  38.902  37.287  1.00  0.00     0.192 HD
ATOM     39  H8  UNL     1      20.257  36.837  36.594  1.00  0.00     0.205 HD
ENDBRANCH  29  31
ENDBRANCH   6  29
BRANCH   1  40
HETATM   40  C1  UNL     1      22.364  36.525  28.335  1.00  0.00     0.372 C 
BRANCH  40  41
HETATM   41  N1  UNL     1      22.152  37.840  27.762  1.00  0.00    -0.047 N 
ATOM     42  H13 UNL     1      21.946  38.526  28.488  1.00  0.00     0.277 HD
ATOM     43  H12 UNL     1      23.026  38.231  27.409  1.00  0.00     0.277 HD
ATOM     44  H11 UNL     1      21.433  37.845  27.039  1.00  0.00     0.277 HD
ENDBRANCH  40  41
BRANCH  40  45
HETATM   45  O1  UNL     1      23.689  36.156  28.347  1.00  0.00    -0.365 OA
ATOM     46  H1  UNL     1      23.808  35.216  28.417  1.00  0.00     0.212 HD
ENDBRANCH  40  45
ENDBRANCH   1  40
TORSDOF 10
ENDMDL
MODEL 5
REMARK VINA RESULT: -8.001644989      3.616      5.854
REMARK  10 active torsions:
REMARK  status: ('A' for Active; 'I' for Inactive)
REMARK    1  A    between atoms: N1_1  and  C1_5 
REMARK    2  A    between atoms: C1_5  and  O1_6 
REMARK    3  A    between atoms: C1_5  and  C2_8 
REMARK    4  A    between atoms: C3_13  and  N5_14 
REMARK    5  A    between atoms: N5_14  and  C4_16 
REMARK    6  A    between atoms: C6_27  and  S1_28 
REMARK    7  A    between atoms: S1_28  and  C7_29 
REMARK    8  A    between atoms: C7_29  and  C8_30 
REMARK       I    between atoms: C8_30  and  N10_32 
REMARK    9  A    between atoms: N10_32  and  C9_34 
REMARK   10  A    between atoms: C10_39  and  O4_40 
ROOT
HETATM    1  C2  UNL     1      20.951  39.879  31.213  1.00  0.00     0.126 A 
HETATM    2  N2  UNL     1      19.870  40.676  31.334  1.00  0.00    -0.279 N 
ATOM      3  H2  UNL     1      19.745  41.563  30.845  1.00  0.00     0.184 HD
HETATM    4  N3  UNL     1      18.994  40.150  32.174  1.00  0.00     0.002 NA
HETATM    5  N4  UNL     1      19.507  39.007  32.602  1.00  0.00    -0.051 N 
HETATM    6  C3  UNL     1      18.984  38.117  33.468  1.00  0.00     0.720 A 
HETATM    7  N9  UNL     1      19.732  37.025  33.729  1.00  0.00    -0.168 N 
ATOM      8  H9  UNL     1      19.370  36.330  34.381  1.00  0.00     0.186 HD
HETATM    9  C6  UNL     1      20.919  36.818  33.172  1.00  0.00     0.161 A 
HETATM   10  N13 UNL     1      21.441  37.698  32.311  1.00  0.00    -0.319 N 
ATOM     11  H13 UNL     1      22.353  37.543  31.881  1.00  0.00     0.169 HD
HETATM   12  C13 UNL     1      20.715  38.798  32.035  1.00  0.00     0.174 A 
ENDROOT
BRANCH   9  13
HETATM   13  S1  UNL     1      21.831  35.352  33.573  1.00  0.00    -0.084 SA
BRANCH  13  14
HETATM   14  C7  UNL     1      22.837  34.827  32.168  1.00  0.00     0.185 C 
BRANCH  14  15
HETATM   15  C8  UNL     1      23.563  33.562  32.548  1.00  0.00     0.232 C 
HETATM   16  O3  UNL     1      23.800  33.435  33.800  1.00  0.00    -0.272 OA
HETATM   17  N10 UNL     1      23.915  32.653  31.573  1.00  0.00    -0.315 N 
ATOM     18  H10 UNL     1      23.659  32.889  30.614  1.00  0.00     0.170 HD
BRANCH  17  19
HETATM   19  C9  UNL     1      24.594  31.429  31.761  1.00  0.00     0.098 C 
HETATM   20  N11 UNL     1      24.511  30.813  32.940  1.00  0.00    -0.291 N 
HETATM   21  N12 UNL     1      25.206  29.606  33.061  1.00  0.00    -0.306 N 
ATOM     22  H11 UNL     1      23.970  31.202  33.712  1.00  0.00     0.188 HD
HETATM   23  C10 UNL     1      24.927  28.607  32.026  1.00  0.00     0.233 C 
ATOM     24  H12 UNL     1      25.864  29.433  33.820  1.00  0.00     0.183 HD
HETATM   25  C11 UNL     1      24.977  29.248  30.655  1.00  0.00     0.062 C 
HETATM   26  C12 UNL     1      25.416  30.715  30.784  1.00  0.00     0.082 C 
BRANCH  23  27
HETATM   27  O4  UNL     1      25.824  27.545  32.104  1.00  0.00    -0.376 OA
ATOM     28  H4  UNL     1      26.474  27.599  31.413  1.00  0.00     0.212 HD
ENDBRANCH  23  27
ENDBRANCH  17  19
ENDBRANCH  14  15
ENDBRANCH  13  14
ENDBRANCH   9  13
BRANCH   6  29
HETATM   29  N5  UNL     1      17.836  38.300  34.019  1.00  0.00    -0.019 N 
ATOM     30  H5  UNL     1      17.773  38.640  34.978  1.00  0.00     0.203 HD
BRANCH  29  31
HETATM   31  C4  UNL     1      16.662  38.023  33.280  1.00  0.00     0.715 A 
HETATM   32  N6  UNL     1      15.876  38.865  32.585  1.00  0.00    -0.138 N 
HETATM   33  C5  UNL     1      14.867  38.167  32.040  1.00  0.00     0.353 A 
ATOM     34  H6  UNL     1      16.023  39.870  32.489  1.00  0.00     0.189 HD
HETATM   35  O2  UNL     1      13.939  38.631  31.323  1.00  0.00    -0.245 OA
HETATM   36  N7  UNL     1      15.028  36.892  32.396  1.00  0.00    -0.237 N 
HETATM   37  N8  UNL     1      16.104  36.793  33.143  1.00  0.00    -0.127 N 
ATOM     38  H7  UNL     1      14.415  36.120  32.132  1.00  0.00     0.192 HD
ATOM     39  H8  UNL     1      16.462  35.931  33.553  1.00  0.00     0.205 HD
ENDBRANCH  29  31
ENDBRANCH   6  29
BRANCH   1  40
HETATM   40  C1  UNL     1      22.141  40.152  30.350  1.00  0.00     0.372 C 
BRANCH  40  41
HETATM   41  N1  UNL     1      22.777  41.359  30.844  1.00  0.00    -0.047 N 
ATOM     42  H13 UNL     1      22.381  41.641  31.740  1.00  0.00     0.277 HD
ATOM     43  H12 UNL     1      23.736  41.172  31.139  1.00  0.00     0.277 HD
ATOM     44  H11 UNL     1      22.744  42.126  30.172  1.00  0.00     0.277 HD
ENDBRANCH  40  41
BRANCH  40  45
HETATM   45  O1  UNL     1      22.974  39.059  30.384  1.00  0.00    -0.365 OA
ATOM     46  H1  UNL     1      22.804  38.490  31.125  1.00  0.00     0.212 HD
ENDBRANCH  40  45
ENDBRANCH   1  40
TORSDOF 10
ENDMDL
