MODEL 1
REMARK VINA RESULT: -7.835429378      0.000      0.000
REMARK  11 active torsions:
REMARK  status: ('A' for Active; 'I' for Inactive)
REMARK    1  A    between atoms: C2_2  and  C8_16 
REMARK       I    between atoms: N1_3  and  C3_5 
REMARK    2  A    between atoms: C3_5  and  C4_7 
REMARK    3  A    between atoms: C8_16  and  C11_26 
REMARK    4  A    between atoms: N5_17  and  O2_19 
REMARK    5  A    between atoms: O2_19  and  C9_20 
REMARK    6  A    between atoms: C9_20  and  O3_21 
REMARK    7  A    between atoms: C9_20  and  C10_23 
REMARK    8  A    between atoms: C11_26  and  N8_30 
REMARK    9  A    between atoms: N9_32  and  C12_34 
REMARK   10  A    between atoms: C13_35  and  O5_36 
REMARK   11  A    between atoms: C14_40  and  N11_41 
ROOT
HETATM    1  C8  UNL     1      21.102  37.674  32.018  1.00  0.00     0.121 C 
HETATM    2  N5  UNL     1      20.975  38.385  33.072  1.00  0.00    -0.258 N 
ATOM      3  H5  UNL     1      21.232  39.370  33.012  1.00  0.00     0.194 HD
ENDROOT
BRANCH   1   4
HETATM    4  C2  UNL     1      21.599  38.297  30.800  1.00  0.00     0.040 C 
HETATM    5  C1  UNL     1      20.779  38.254  29.534  1.00  0.00     0.071 C 
HETATM    6  N1  UNL     1      22.727  38.900  30.738  1.00  0.00    -0.327 N 
HETATM    7  C3  UNL     1      23.159  39.486  29.534  1.00  0.00     0.244 C 
ATOM      8  H1  UNL     1      23.316  38.956  31.569  1.00  0.00     0.168 HD
HETATM    9  O1  UNL     1      22.411  40.299  28.942  1.00  0.00    -0.271 OA
BRANCH   7  10
HETATM   10  C4  UNL     1      24.475  39.142  28.987  1.00  0.00     0.178 C 
HETATM   11  C5  UNL     1      24.953  40.148  27.968  1.00  0.00     0.054 C 
HETATM   12  C6  UNL     1      26.408  39.840  27.674  1.00  0.00     0.125 C 
HETATM   13  N2  UNL     1      26.652  38.401  27.715  1.00  0.00    -0.365 N 
HETATM   14  C7  UNL     1      25.544  37.479  27.733  1.00  0.00     0.184 C 
ATOM     15  H2  UNL     1      27.609  38.047  27.732  1.00  0.00     0.162 HD
HETATM   16  N3  UNL     1      25.658  36.227  27.080  1.00  0.00    -0.064 NA
HETATM   17  N4  UNL     1      24.468  37.835  28.357  1.00  0.00    -0.351 N 
ATOM     18  H4  UNL     1      23.651  37.225  28.403  1.00  0.00     0.163 HD
ENDBRANCH   7  10
ENDBRANCH   1   4
BRANCH   1  19
HETATM   19  C11 UNL     1      20.760  36.278  32.030  1.00  0.00     0.144 C 
HETATM   20  N7  UNL     1      19.585  35.904  32.357  1.00  0.00    -0.382 N 
ATOM     21  H72 UNL     1      18.883  36.599  32.610  1.00  0.00     0.157 HD
ATOM     22  H71 UNL     1      19.343  34.913  32.365  1.00  0.00     0.157 HD
BRANCH  19  23
HETATM   23  N8  UNL     1      21.735  35.314  31.678  1.00  0.00    -0.283 N 
HETATM   24  N9  UNL     1      22.869  35.280  32.265  1.00  0.00    -0.290 N 
ATOM     25  H9  UNL     1      23.111  35.943  33.001  1.00  0.00     0.187 HD
ATOM     26  H8  UNL     1      21.528  34.636  30.945  1.00  0.00     0.188 HD
BRANCH  24  27
HETATM   27  C12 UNL     1      23.782  34.271  31.840  1.00  0.00     0.168 A 
HETATM   28  C13 UNL     1      24.234  33.307  32.700  1.00  0.00     0.189 A 
HETATM   29  N10 UNL     1      25.085  32.382  32.267  1.00  0.00    -0.168 N 
HETATM   30  C14 UNL     1      25.509  32.381  30.991  1.00  0.00     0.680 A 
ATOM     31  H10 UNL     1      25.420  31.666  32.911  1.00  0.00     0.186 HD
HETATM   32  N12 UNL     1      25.081  33.325  30.104  1.00  0.00    -0.154 N 
HETATM   33  C15 UNL     1      24.228  34.252  30.541  1.00  0.00     0.292 A 
ATOM     34  H12 UNL     1      25.404  33.321  29.136  1.00  0.00     0.187 HD
HETATM   35  O6  UNL     1      23.817  35.137  29.739  1.00  0.00    -0.265 OA
BRANCH  28  36
HETATM   36  O5  UNL     1      23.824  33.267  34.030  1.00  0.00    -0.344 OA
ATOM     37  H5  UNL     1      23.489  32.469  34.424  1.00  0.00     0.219 HD
ENDBRANCH  28  36
BRANCH  30  38
HETATM   38  N11 UNL     1      26.332  31.491  30.561  1.00  0.00    -0.234 N 
ATOM     39 2H11 UNL     1      25.939  30.669  30.103  1.00  0.00     0.174 HD
ATOM     40 1H11 UNL     1      27.340  31.603  30.672  1.00  0.00     0.174 HD
ENDBRANCH  30  38
ENDBRANCH  24  27
ENDBRANCH  19  23
ENDBRANCH   1  19
BRANCH   2  41
HETATM   41  O2  UNL     1      20.521  37.921  34.273  1.00  0.00    -0.238 OA
BRANCH  41  42
HETATM   42  C9  UNL     1      21.475  37.658  35.301  1.00  0.00     0.376 C 
BRANCH  42  43
HETATM   43  O3  UNL     1      22.679  38.271  35.007  1.00  0.00    -0.362 OA
ATOM     44  H3  UNL     1      22.826  39.006  35.591  1.00  0.00     0.213 HD
ENDBRANCH  42  43
BRANCH  42  45
HETATM   45  C10 UNL     1      21.657  36.192  35.376  1.00  0.00     0.288 C 
HETATM   46  N6  UNL     1      20.568  35.294  35.459  1.00  0.00    -0.057 NA
HETATM   47  O4  UNL     1      22.824  35.694  35.366  1.00  0.00    -0.271 OA
ENDBRANCH  42  45
ENDBRANCH  41  42
ENDBRANCH   2  41
TORSDOF 11
ENDMDL
MODEL 2
REMARK VINA RESULT: -7.812013568      1.570      2.248
REMARK  11 active torsions:
REMARK  status: ('A' for Active; 'I' for Inactive)
REMARK    1  A    between atoms: C2_2  and  C8_16 
REMARK       I    between atoms: N1_3  and  C3_5 
REMARK    2  A    between atoms: C3_5  and  C4_7 
REMARK    3  A    between atoms: C8_16  and  C11_26 
REMARK    4  A    between atoms: N5_17  and  O2_19 
REMARK    5  A    between atoms: O2_19  and  C9_20 
REMARK    6  A    between atoms: C9_20  and  O3_21 
REMARK    7  A    between atoms: C9_20  and  C10_23 
REMARK    8  A    between atoms: C11_26  and  N8_30 
REMARK    9  A    between atoms: N9_32  and  C12_34 
REMARK   10  A    between atoms: C13_35  and  O5_36 
REMARK   11  A    between atoms: C14_40  and  N11_41 
ROOT
HETATM    1  C8  UNL     1      21.618  37.333  32.727  1.00  0.00     0.121 C 
HETATM    2  N5  UNL     1      22.161  37.415  33.881  1.00  0.00    -0.258 N 
ATOM      3  H5  UNL     1      22.473  38.334  34.194  1.00  0.00     0.194 HD
ENDROOT
BRANCH   1   4
HETATM    4  C2  UNL     1      21.473  38.541  31.928  1.00  0.00     0.040 C 
HETATM    5  C1  UNL     1      20.267  39.430  32.104  1.00  0.00     0.071 C 
HETATM    6  N1  UNL     1      22.337  38.905  31.056  1.00  0.00    -0.327 N 
HETATM    7  C3  UNL     1      22.147  40.084  30.310  1.00  0.00     0.244 C 
ATOM      8  H1  UNL     1      23.170  38.338  30.902  1.00  0.00     0.168 HD
HETATM    9  O1  UNL     1      21.930  41.163  30.909  1.00  0.00    -0.271 OA
BRANCH   7  10
HETATM   10  C4  UNL     1      22.207  40.038  28.847  1.00  0.00     0.178 C 
HETATM   11  C5  UNL     1      20.883  39.654  28.230  1.00  0.00     0.054 C 
HETATM   12  C6  UNL     1      20.991  39.894  26.737  1.00  0.00     0.125 C 
HETATM   13  N2  UNL     1      22.338  39.593  26.260  1.00  0.00    -0.365 N 
HETATM   14  C7  UNL     1      23.265  38.884  27.105  1.00  0.00     0.184 C 
ATOM     15  H2  UNL     1      22.624  39.887  25.325  1.00  0.00     0.162 HD
HETATM   16  N3  UNL     1      24.200  37.988  26.532  1.00  0.00    -0.064 NA
HETATM   17  N4  UNL     1      23.208  39.096  28.381  1.00  0.00    -0.351 N 
ATOM     18  H4  UNL     1      23.837  38.623  29.029  1.00  0.00     0.163 HD
ENDBRANCH   7  10
ENDBRANCH   1   4
BRANCH   1  19
HETATM   19  C11 UNL     1      21.156  36.070  32.222  1.00  0.00     0.144 C 
HETATM   20  N7  UNL     1      19.908  35.814  32.169  1.00  0.00    -0.382 N 
ATOM     21  H72 UNL     1      19.232  36.510  32.485  1.00  0.00     0.157 HD
ATOM     22  H71 UNL     1      19.580  34.917  31.810  1.00  0.00     0.157 HD
BRANCH  19  23
HETATM   23  N8  UNL     1      22.093  35.105  31.782  1.00  0.00    -0.283 N 
HETATM   24  N9  UNL     1      23.204  34.940  32.391  1.00  0.00    -0.290 N 
ATOM     25  H9  UNL     1      23.452  35.496  33.210  1.00  0.00     0.187 HD
ATOM     26  H8  UNL     1      21.878  34.533  30.966  1.00  0.00     0.188 HD
BRANCH  24  27
HETATM   27  C12 UNL     1      24.080  33.943  31.872  1.00  0.00     0.168 A 
HETATM   28  C13 UNL     1      24.504  32.893  32.641  1.00  0.00     0.189 A 
HETATM   29  N10 UNL     1      25.321  31.983  32.122  1.00  0.00    -0.168 N 
HETATM   30  C14 UNL     1      25.737  32.079  30.847  1.00  0.00     0.680 A 
ATOM     31  H10 UNL     1      25.636  31.202  32.697  1.00  0.00     0.186 HD
HETATM   32  N12 UNL     1      25.336  33.110  30.049  1.00  0.00    -0.154 N 
HETATM   33  C15 UNL     1      24.516  34.023  30.572  1.00  0.00     0.292 A 
ATOM     34  H12 UNL     1      25.652  33.180  29.082  1.00  0.00     0.187 HD
HETATM   35  O6  UNL     1      24.130  34.988  29.855  1.00  0.00    -0.265 OA
BRANCH  28  36
HETATM   36  O5  UNL     1      24.101  32.751  33.966  1.00  0.00    -0.344 OA
ATOM     37  H5  UNL     1      24.190  31.924  34.427  1.00  0.00     0.219 HD
ENDBRANCH  28  36
BRANCH  30  38
HETATM   38  N11 UNL     1      26.527  31.204  30.332  1.00  0.00    -0.234 N 
ATOM     39 2H11 UNL     1      26.989  30.555  30.969  1.00  0.00     0.174 HD
ATOM     40 1H11 UNL     1      26.687  31.159  29.326  1.00  0.00     0.174 HD
ENDBRANCH  30  38
ENDBRANCH  24  27
ENDBRANCH  19  23
ENDBRANCH   1  19
BRANCH   2  41
HETATM   41  O2  UNL     1      22.355  36.359  34.726  1.00  0.00    -0.238 OA
BRANCH  41  42
HETATM   42  C9  UNL     1      21.418  36.159  35.783  1.00  0.00     0.376 C 
BRANCH  42  43
HETATM   43  O3  UNL     1      20.467  35.228  35.412  1.00  0.00    -0.362 OA
ATOM     44  H3  UNL     1      19.747  35.227  36.033  1.00  0.00     0.213 HD
ENDBRANCH  42  43
BRANCH  42  45
HETATM   45  C10 UNL     1      20.773  37.461  36.060  1.00  0.00     0.288 C 
HETATM   46  N6  UNL     1      21.296  38.387  36.992  1.00  0.00    -0.057 NA
HETATM   47  O4  UNL     1      19.708  37.786  35.452  1.00  0.00    -0.271 OA
ENDBRANCH  42  45
ENDBRANCH  41  42
ENDBRANCH   2  41
TORSDOF 11
ENDMDL
MODEL 3
REMARK VINA RESULT: -7.771101164      1.595      2.658
REMARK  11 active torsions:
REMARK  status: ('A' for Active; 'I' for Inactive)
REMARK    1  A    between atoms: C2_2  and  C8_16 
REMARK       I    between atoms: N1_3  and  C3_5 
REMARK    2  A    between atoms: C3_5  and  C4_7 
REMARK    3  A    between atoms: C8_16  and  C11_26 
REMARK    4  A    between atoms: N5_17  and  O2_19 
REMARK    5  A    between atoms: O2_19  and  C9_20 
REMARK    6  A    between atoms: C9_20  and  O3_21 
REMARK    7  A    between atoms: C9_20  and  C10_23 
REMARK    8  A    between atoms: C11_26  and  N8_30 
REMARK    9  A    between atoms: N9_32  and  C12_34 
REMARK   10  A    between atoms: C13_35  and  O5_36 
REMARK   11  A    between atoms: C14_40  and  N11_41 
ROOT
HETATM    1  C8  UNL     1      21.616  37.397  32.710  1.00  0.00     0.121 C 
HETATM    2  N5  UNL     1      22.150  37.465  33.869  1.00  0.00    -0.258 N 
ATOM      3  H5  UNL     1      22.451  38.382  34.199  1.00  0.00     0.194 HD
ENDROOT
BRANCH   1   4
HETATM    4  C2  UNL     1      21.464  38.616  31.929  1.00  0.00     0.040 C 
HETATM    5  C1  UNL     1      20.239  39.480  32.097  1.00  0.00     0.071 C 
HETATM    6  N1  UNL     1      22.339  39.011  31.082  1.00  0.00    -0.327 N 
HETATM    7  C3  UNL     1      22.142  40.199  30.352  1.00  0.00     0.244 C 
ATOM      8  H1  UNL     1      23.185  38.461  30.934  1.00  0.00     0.168 HD
HETATM    9  O1  UNL     1      21.894  41.264  30.966  1.00  0.00    -0.271 OA
BRANCH   7  10
HETATM   10  C4  UNL     1      22.231  40.181  28.890  1.00  0.00     0.178 C 
HETATM   11  C5  UNL     1      20.893  39.934  28.237  1.00  0.00     0.054 C 
HETATM   12  C6  UNL     1      21.056  40.197  26.752  1.00  0.00     0.125 C 
HETATM   13  N2  UNL     1      22.381  39.784  26.296  1.00  0.00    -0.365 N 
HETATM   14  C7  UNL     1      23.219  38.973  27.144  1.00  0.00     0.184 C 
ATOM     15  H2  UNL     1      22.714  40.070  25.376  1.00  0.00     0.162 HD
HETATM   16  N3  UNL     1      24.080  38.007  26.568  1.00  0.00    -0.064 NA
HETATM   17  N4  UNL     1      23.152  39.161  28.423  1.00  0.00    -0.351 N 
ATOM     18  H4  UNL     1      23.720  38.618  29.072  1.00  0.00     0.163 HD
ENDBRANCH   7  10
ENDBRANCH   1   4
BRANCH   1  19
HETATM   19  C11 UNL     1      21.169  36.138  32.181  1.00  0.00     0.144 C 
HETATM   20  N7  UNL     1      19.925  35.864  32.132  1.00  0.00    -0.382 N 
ATOM     21  H72 UNL     1      19.241  36.542  32.470  1.00  0.00     0.157 HD
ATOM     22  H71 UNL     1      19.608  34.969  31.757  1.00  0.00     0.157 HD
BRANCH  19  23
HETATM   23  N8  UNL     1      22.118  35.198  31.713  1.00  0.00    -0.283 N 
HETATM   24  N9  UNL     1      23.156  34.912  32.400  1.00  0.00    -0.290 N 
ATOM     25  H9  UNL     1      23.336  35.349  33.304  1.00  0.00     0.187 HD
ATOM     26  H8  UNL     1      21.970  34.742  30.813  1.00  0.00     0.188 HD
BRANCH  24  27
HETATM   27  C12 UNL     1      24.051  33.952  31.843  1.00  0.00     0.168 A 
HETATM   28  C13 UNL     1      24.487  34.048  30.549  1.00  0.00     0.189 A 
HETATM   29  N10 UNL     1      25.321  33.134  30.065  1.00  0.00    -0.168 N 
HETATM   30  C14 UNL     1      25.745  32.114  30.831  1.00  0.00     0.680 A 
ATOM     31  H10 UNL     1      25.644  33.208  29.100  1.00  0.00     0.186 HD
HETATM   32  N12 UNL     1      25.332  31.984  32.125  1.00  0.00    -0.154 N 
HETATM   33  C15 UNL     1      24.494  32.902  32.609  1.00  0.00     0.292 A 
ATOM     34  H12 UNL     1      25.655  31.210  32.705  1.00  0.00     0.187 HD
HETATM   35  O6  UNL     1      24.098  32.805  33.804  1.00  0.00    -0.265 OA
BRANCH  28  36
HETATM   36  O5  UNL     1      24.077  35.086  29.717  1.00  0.00    -0.344 OA
ATOM     37  H5  UNL     1      24.452  35.209  28.852  1.00  0.00     0.219 HD
ENDBRANCH  28  36
BRANCH  30  38
HETATM   38  N11 UNL     1      26.552  31.223  30.374  1.00  0.00    -0.234 N 
ATOM     39 2H11 UNL     1      27.250  31.525  29.695  1.00  0.00     0.174 HD
ATOM     40 1H11 UNL     1      26.498  30.251  30.678  1.00  0.00     0.174 HD
ENDBRANCH  30  38
ENDBRANCH  24  27
ENDBRANCH  19  23
ENDBRANCH   1  19
BRANCH   2  41
HETATM   41  O2  UNL     1      22.348  36.398  34.698  1.00  0.00    -0.238 OA
BRANCH  41  42
HETATM   42  C9  UNL     1      21.409  36.175  35.749  1.00  0.00     0.376 C 
BRANCH  42  43
HETATM   43  O3  UNL     1      20.459  35.250  35.357  1.00  0.00    -0.362 OA
ATOM     44  H3  UNL     1      20.271  34.650  36.068  1.00  0.00     0.213 HD
ENDBRANCH  42  43
BRANCH  42  45
HETATM   45  C10 UNL     1      20.761  37.470  36.050  1.00  0.00     0.288 C 
HETATM   46  N6  UNL     1      21.289  38.384  36.992  1.00  0.00    -0.057 NA
HETATM   47  O4  UNL     1      19.690  37.800  35.456  1.00  0.00    -0.271 OA
ENDBRANCH  42  45
ENDBRANCH  41  42
ENDBRANCH   2  41
TORSDOF 11
ENDMDL
MODEL 4
REMARK VINA RESULT: -7.713283515      0.099      1.418
REMARK  11 active torsions:
REMARK  status: ('A' for Active; 'I' for Inactive)
REMARK    1  A    between atoms: C2_2  and  C8_16 
REMARK       I    between atoms: N1_3  and  C3_5 
REMARK    2  A    between atoms: C3_5  and  C4_7 
REMARK    3  A    between atoms: C8_16  and  C11_26 
REMARK    4  A    between atoms: N5_17  and  O2_19 
REMARK    5  A    between atoms: O2_19  and  C9_20 
REMARK    6  A    between atoms: C9_20  and  O3_21 
REMARK    7  A    between atoms: C9_20  and  C10_23 
REMARK    8  A    between atoms: C11_26  and  N8_30 
REMARK    9  A    between atoms: N9_32  and  C12_34 
REMARK   10  A    between atoms: C13_35  and  O5_36 
REMARK   11  A    between atoms: C14_40  and  N11_41 
ROOT
HETATM    1  C8  UNL     1      21.090  37.726  32.020  1.00  0.00     0.121 C 
HETATM    2  N5  UNL     1      20.939  38.421  33.082  1.00  0.00    -0.258 N 
ATOM      3  H5  UNL     1      21.174  39.412  33.037  1.00  0.00     0.194 HD
ENDROOT
BRANCH   1   4
HETATM    4  C2  UNL     1      21.581  38.377  30.814  1.00  0.00     0.040 C 
HETATM    5  C1  UNL     1      20.732  38.409  29.567  1.00  0.00     0.071 C 
HETATM    6  N1  UNL     1      22.728  38.942  30.747  1.00  0.00    -0.327 N 
HETATM    7  C3  UNL     1      23.153  39.557  29.555  1.00  0.00     0.244 C 
ATOM      8  H1  UNL     1      23.337  38.947  31.565  1.00  0.00     0.168 HD
HETATM    9  O1  UNL     1      22.421  40.417  29.011  1.00  0.00    -0.271 OA
BRANCH   7  10
HETATM   10  C4  UNL     1      24.443  39.189  28.964  1.00  0.00     0.178 C 
HETATM   11  C5  UNL     1      24.855  40.128  27.856  1.00  0.00     0.054 C 
HETATM   12  C6  UNL     1      26.298  39.814  27.508  1.00  0.00     0.125 C 
HETATM   13  N2  UNL     1      26.561  38.383  27.634  1.00  0.00    -0.365 N 
HETATM   14  C7  UNL     1      25.468  37.454  27.773  1.00  0.00     0.184 C 
ATOM     15  H2  UNL     1      27.522  38.040  27.625  1.00  0.00     0.162 HD
HETATM   16  N3  UNL     1      25.564  36.162  27.201  1.00  0.00    -0.064 NA
HETATM   17  N4  UNL     1      24.420  37.842  28.426  1.00  0.00    -0.351 N 
ATOM     18  H4  UNL     1      23.615  37.229  28.556  1.00  0.00     0.163 HD
ENDBRANCH   7  10
ENDBRANCH   1   4
BRANCH   1  19
HETATM   19  C11 UNL     1      20.780  36.323  32.012  1.00  0.00     0.144 C 
HETATM   20  N7  UNL     1      19.622  35.916  32.357  1.00  0.00    -0.382 N 
ATOM     21  H72 UNL     1      18.910  36.589  32.641  1.00  0.00     0.157 HD
ATOM     22  H71 UNL     1      19.403  34.920  32.351  1.00  0.00     0.157 HD
BRANCH  19  23
HETATM   23  N8  UNL     1      21.768  35.389  31.618  1.00  0.00    -0.283 N 
HETATM   24  N9  UNL     1      22.809  35.192  32.331  1.00  0.00    -0.290 N 
ATOM     25  H9  UNL     1      22.964  35.698  33.204  1.00  0.00     0.187 HD
ATOM     26  H8  UNL     1      21.647  34.866  30.751  1.00  0.00     0.188 HD
BRANCH  24  27
HETATM   27  C12 UNL     1      23.745  34.230  31.850  1.00  0.00     0.168 A 
HETATM   28  C13 UNL     1      24.204  34.262  30.560  1.00  0.00     0.189 A 
HETATM   29  N10 UNL     1      25.076  33.348  30.147  1.00  0.00    -0.168 N 
HETATM   30  C14 UNL     1      25.516  32.390  30.982  1.00  0.00     0.680 A 
ATOM     31  H10 UNL     1      25.415  33.374  29.186  1.00  0.00     0.186 HD
HETATM   32  N12 UNL     1      25.083  32.326  32.274  1.00  0.00    -0.154 N 
HETATM   33  C15 UNL     1      24.207  33.244  32.686  1.00  0.00     0.292 A 
ATOM     34  H12 UNL     1      25.419  31.599  32.906  1.00  0.00     0.187 HD
HETATM   35  O6  UNL     1      23.790  33.206  33.878  1.00  0.00    -0.265 OA
BRANCH  28  36
HETATM   36  O5  UNL     1      23.777  35.234  29.659  1.00  0.00    -0.344 OA
ATOM     37  H5  UNL     1      23.355  35.001  28.839  1.00  0.00     0.219 HD
ENDBRANCH  28  36
BRANCH  30  38
HETATM   38  N11 UNL     1      26.360  31.501  30.595  1.00  0.00    -0.234 N 
ATOM     39 2H11 UNL     1      26.686  31.550  29.629  1.00  0.00     0.174 HD
ATOM     40 1H11 UNL     1      26.693  30.773  31.228  1.00  0.00     0.174 HD
ENDBRANCH  30  38
ENDBRANCH  24  27
ENDBRANCH  19  23
ENDBRANCH   1  19
BRANCH   2  41
HETATM   41  O2  UNL     1      20.488  37.931  34.274  1.00  0.00    -0.238 OA
BRANCH  41  42
HETATM   42  C9  UNL     1      21.437  37.702  35.314  1.00  0.00     0.376 C 
BRANCH  42  43
HETATM   43  O3  UNL     1      22.634  38.326  35.018  1.00  0.00    -0.362 OA
ATOM     44  H3  UNL     1      23.359  37.846  35.401  1.00  0.00     0.213 HD
ENDBRANCH  42  43
BRANCH  42  45
HETATM   45  C10 UNL     1      21.639  36.241  35.419  1.00  0.00     0.288 C 
HETATM   46  N6  UNL     1      20.564  35.323  35.442  1.00  0.00    -0.057 NA
HETATM   47  O4  UNL     1      22.812  35.764  35.492  1.00  0.00    -0.271 OA
ENDBRANCH  42  45
ENDBRANCH  41  42
ENDBRANCH   2  41
TORSDOF 11
ENDMDL
MODEL 5
REMARK VINA RESULT: -7.653099375      1.076      1.514
REMARK  11 active torsions:
REMARK  status: ('A' for Active; 'I' for Inactive)
REMARK    1  A    between atoms: C2_2  and  C8_16 
REMARK       I    between atoms: N1_3  and  C3_5 
REMARK    2  A    between atoms: C3_5  and  C4_7 
REMARK    3  A    between atoms: C8_16  and  C11_26 
REMARK    4  A    between atoms: N5_17  and  O2_19 
REMARK    5  A    between atoms: O2_19  and  C9_20 
REMARK    6  A    between atoms: C9_20  and  O3_21 
REMARK    7  A    between atoms: C9_20  and  C10_23 
REMARK    8  A    between atoms: C11_26  and  N8_30 
REMARK    9  A    between atoms: N9_32  and  C12_34 
REMARK   10  A    between atoms: C13_35  and  O5_36 
REMARK   11  A    between atoms: C14_40  and  N11_41 
ROOT
HETATM    1  C8  UNL     1      21.218  37.757  31.806  1.00  0.00     0.121 C 
HETATM    2  N5  UNL     1      21.148  38.514  32.835  1.00  0.00    -0.258 N 
ATOM      3  H5  UNL     1      21.407  39.493  32.720  1.00  0.00     0.194 HD
ENDROOT
BRANCH   1   4
HETATM    4  C2  UNL     1      21.656  38.325  30.540  1.00  0.00     0.040 C 
HETATM    5  C1  UNL     1      21.047  37.853  29.243  1.00  0.00     0.071 C 
HETATM    6  N1  UNL     1      22.557  39.231  30.460  1.00  0.00    -0.327 N 
HETATM    7  C3  UNL     1      22.944  39.745  29.208  1.00  0.00     0.244 C 
ATOM      8  H1  UNL     1      22.998  39.582  31.310  1.00  0.00     0.168 HD
HETATM    9  O1  UNL     1      22.070  40.197  28.432  1.00  0.00    -0.271 OA
BRANCH   7  10
HETATM   10  C4  UNL     1      24.359  39.750  28.827  1.00  0.00     0.178 C 
HETATM   11  C5  UNL     1      24.981  38.377  28.911  1.00  0.00     0.054 C 
HETATM   12  C6  UNL     1      26.345  38.454  28.253  1.00  0.00     0.125 C 
HETATM   13  N2  UNL     1      26.967  39.752  28.502  1.00  0.00    -0.365 N 
HETATM   14  C7  UNL     1      26.419  40.639  29.497  1.00  0.00     0.184 C 
ATOM     15  H2  UNL     1      27.792  40.031  27.971  1.00  0.00     0.162 HD
HETATM   16  N3  UNL     1      27.282  41.469  30.254  1.00  0.00    -0.064 NA
HETATM   17  N4  UNL     1      25.136  40.645  29.664  1.00  0.00    -0.351 N 
ATOM     18  H4  UNL     1      24.691  41.252  30.353  1.00  0.00     0.163 HD
ENDBRANCH   7  10
ENDBRANCH   1   4
BRANCH   1  19
HETATM   19  C11 UNL     1      20.869  36.366  31.895  1.00  0.00     0.144 C 
HETATM   20  N7  UNL     1      19.698  36.017  32.262  1.00  0.00    -0.382 N 
ATOM     21  H72 UNL     1      19.005  36.728  32.494  1.00  0.00     0.157 HD
ATOM     22  H71 UNL     1      19.451  35.029  32.325  1.00  0.00     0.157 HD
BRANCH  19  23
HETATM   23  N8  UNL     1      21.831  35.380  31.574  1.00  0.00    -0.283 N 
HETATM   24  N9  UNL     1      22.927  35.292  32.224  1.00  0.00    -0.290 N 
ATOM     25  H9  UNL     1      23.145  35.926  32.993  1.00  0.00     0.187 HD
ATOM     26  H8  UNL     1      21.647  34.729  30.810  1.00  0.00     0.188 HD
BRANCH  24  27
HETATM   27  C12 UNL     1      23.831  34.265  31.825  1.00  0.00     0.168 A 
HETATM   28  C13 UNL     1      24.255  33.303  32.703  1.00  0.00     0.189 A 
HETATM   29  N10 UNL     1      25.098  32.362  32.294  1.00  0.00    -0.168 N 
HETATM   30  C14 UNL     1      25.542  32.339  31.025  1.00  0.00     0.680 A 
ATOM     31  H10 UNL     1      25.412  31.647  32.950  1.00  0.00     0.186 HD
HETATM   32  N12 UNL     1      25.142  33.280  30.120  1.00  0.00    -0.154 N 
HETATM   33  C15 UNL     1      24.296  34.224  30.534  1.00  0.00     0.292 A 
ATOM     34  H12 UNL     1      25.479  33.260  29.158  1.00  0.00     0.187 HD
HETATM   35  O6  UNL     1      23.911  35.107  29.716  1.00  0.00    -0.265 OA
BRANCH  28  36
HETATM   36  O5  UNL     1      23.823  33.285  34.027  1.00  0.00    -0.344 OA
ATOM     37  H5  UNL     1      23.494  34.068  34.453  1.00  0.00     0.219 HD
ENDBRANCH  28  36
BRANCH  30  38
HETATM   38  N11 UNL     1      26.358  31.433  30.617  1.00  0.00    -0.234 N 
ATOM     39 2H11 UNL     1      27.353  31.590  30.773  1.00  0.00     0.174 HD
ATOM     40 1H11 UNL     1      26.023  30.588  30.154  1.00  0.00     0.174 HD
ENDBRANCH  30  38
ENDBRANCH  24  27
ENDBRANCH  19  23
ENDBRANCH   1  19
BRANCH   2  41
HETATM   41  O2  UNL     1      20.752  38.105  34.075  1.00  0.00    -0.238 OA
BRANCH  41  42
HETATM   42  C9  UNL     1      21.756  37.856  35.058  1.00  0.00     0.376 C 
BRANCH  42  43
HETATM   43  O3  UNL     1      22.976  38.347  34.633  1.00  0.00    -0.362 OA
ATOM     44  H3  UNL     1      23.601  38.343  35.349  1.00  0.00     0.213 HD
ENDBRANCH  42  43
BRANCH  42  45
HETATM   45  C10 UNL     1      21.839  36.391  35.250  1.00  0.00     0.288 C 
HETATM   46  N6  UNL     1      20.694  35.584  35.440  1.00  0.00    -0.057 NA
HETATM   47  O4  UNL     1      22.966  35.811  35.249  1.00  0.00    -0.271 OA
ENDBRANCH  42  45
ENDBRANCH  41  42
ENDBRANCH   2  41
TORSDOF 11
ENDMDL
