MODEL 1
REMARK VINA RESULT: -7.568553796      0.000      0.000
REMARK  11 active torsions:
REMARK  status: ('A' for Active; 'I' for Inactive)
REMARK    1  A    between atoms: N1_1  and  N2_4 
REMARK       I    between atoms: C1_6  and  N3_7 
REMARK       I    between atoms: C1_6  and  N7_18 
REMARK    2  A    between atoms: N3_7  and  N4_9 
REMARK       I    between atoms: N4_9  and  C2_11 
REMARK       I    between atoms: C2_11  and  N5_13 
REMARK    3  A    between atoms: N5_13  and  N6_15 
REMARK    4  A    between atoms: N7_18  and  C3_19 
REMARK    5  A    between atoms: N7_18  and  C5_23 
REMARK    6  A    between atoms: C3_19  and  C4_20 
REMARK    7  A    between atoms: C4_20  and  O2_21 
REMARK    8  A    between atoms: N10_28  and  C6_29 
REMARK    9  A    between atoms: C6_29  and  S1_30 
REMARK   10  A    between atoms: S1_30  and  C7_31 
REMARK   11  A    between atoms: C12_43  and  O3_44 
ROOT
HETATM    1  C5  UNL     1      22.560  34.711  33.270  1.00  0.00     0.192 A 
HETATM    2  N8  UNL     1      21.630  33.691  33.193  1.00  0.00    -0.267 N 
ATOM      3  H8  UNL     1      20.625  33.782  33.348  1.00  0.00     0.190 HD
HETATM    4  N9  UNL     1      22.256  32.601  32.889  1.00  0.00    -0.236 N 
ATOM      5  H9  UNL     1      21.804  31.694  32.772  1.00  0.00     0.208 HD
HETATM    6  N10 UNL     1      23.594  32.816  32.745  1.00  0.00    -0.244 N 
HETATM    7  C12 UNL     1      23.757  34.108  32.985  1.00  0.00     0.206 A 
ENDROOT
BRANCH   1   8
HETATM    8  N7  UNL     1      22.214  36.055  33.564  1.00  0.00    -0.158 N 
HETATM    9  C1  UNL     1      21.941  36.965  32.471  1.00  0.00     0.715 C 
HETATM   10  N2  UNL     1      22.087  38.194  32.586  1.00  0.00    -0.137 N 
HETATM   11  N3  UNL     1      21.501  36.450  31.202  1.00  0.00    -0.127 N 
ATOM     12  H2  UNL     1      22.400  38.468  33.518  1.00  0.00     0.205 HD
ATOM     13  H3  UNL     1      20.754  35.755  31.202  1.00  0.00     0.206 HD
BRANCH  10  14
HETATM   14  N1  UNL     1      21.924  39.251  31.756  1.00  0.00    -0.331 N 
ATOM     15  H12 UNL     1      22.472  39.142  30.902  1.00  0.00     0.177 HD
ATOM     16  H11 UNL     1      21.385  40.116  31.796  1.00  0.00     0.177 HD
ENDBRANCH  10  14
BRANCH  11  17
HETATM   17  N4  UNL     1      22.030  36.839  29.975  1.00  0.00    -0.236 N 
HETATM   18  C2  UNL     1      23.220  36.306  29.436  1.00  0.00     0.353 C 
HETATM   19  O1  UNL     1      23.898  35.434  30.031  1.00  0.00    -0.244 OA
HETATM   20  N5  UNL     1      23.701  36.743  28.180  1.00  0.00    -0.257 N 
ATOM     21  H5  UNL     1      23.160  37.451  27.685  1.00  0.00     0.191 HD
ATOM     22  H4  UNL     1      21.531  37.548  29.437  1.00  0.00     0.192 HD
BRANCH  20  23
HETATM   23  N6  UNL     1      24.858  36.274  27.576  1.00  0.00    -0.341 N 
ATOM     24  H62 UNL     1      25.740  36.658  27.916  1.00  0.00     0.177 HD
ATOM     25  H61 UNL     1      24.879  35.582  26.826  1.00  0.00     0.177 HD
ENDBRANCH  20  23
ENDBRANCH  11  17
BRANCH   8  26
HETATM   26  C3  UNL     1      22.259  36.526  34.900  1.00  0.00     0.175 C 
BRANCH  26  27
HETATM   27  C4  UNL     1      21.006  36.326  35.691  1.00  0.00     0.185 C 
BRANCH  27  28
HETATM   28  O2  UNL     1      20.392  35.111  35.639  1.00  0.00    -0.399 OA
ATOM     29  H2  UNL     1      20.931  34.335  35.551  1.00  0.00     0.209 HD
ENDBRANCH  27  28
ENDBRANCH  26  27
ENDBRANCH   8  26
ENDBRANCH   1   8
BRANCH   7  30
HETATM   30  O3  UNL     1      25.010  34.761  32.949  1.00  0.00    -0.342 OA
ATOM     31  H3  UNL     1      25.258  35.435  32.327  1.00  0.00     0.219 HD
ENDBRANCH   7  30
BRANCH   6  32
HETATM   32  C6  UNL     1      24.467  31.751  32.314  1.00  0.00     0.235 C 
BRANCH  32  33
HETATM   33  S1  UNL     1      25.036  31.982  30.635  1.00  0.00    -0.070 SA
BRANCH  33  34
HETATM   34  C7  UNL     1      26.250  30.744  30.192  1.00  0.00     0.178 A 
HETATM   35  N11 UNL     1      27.476  30.770  29.726  1.00  0.00    -0.265 N 
HETATM   36  N12 UNL     1      27.940  29.515  29.607  1.00  0.00    -0.130 N 
ATOM     37  H11 UNL     1      27.997  31.615  29.491  1.00  0.00     0.189 HD
HETATM   38  C8  UNL     1      26.992  28.656  30.006  1.00  0.00     0.697 A 
ATOM     39  H12 UNL     1      28.866  29.257  29.267  1.00  0.00     0.205 HD
HETATM   40  N13 UNL     1      25.956  29.425  30.364  1.00  0.00    -0.159 N 
HETATM   41  N14 UNL     1      26.860  27.243  30.114  1.00  0.00    -0.225 N 
HETATM   42  C9  UNL     1      24.779  28.739  30.891  1.00  0.00     0.151 C 
HETATM   43  C10 UNL     1      25.342  27.724  31.887  1.00  0.00     0.041 C 
HETATM   44  C11 UNL     1      25.935  26.612  31.045  1.00  0.00     0.139 C 
ATOM     45  H14 UNL     1      27.436  26.649  29.517  1.00  0.00     0.177 HD
ENDBRANCH  33  34
ENDBRANCH  32  33
ENDBRANCH   6  32
TORSDOF 11
ENDMDL
MODEL 2
REMARK VINA RESULT: -7.462800751      1.596      1.733
REMARK  11 active torsions:
REMARK  status: ('A' for Active; 'I' for Inactive)
REMARK    1  A    between atoms: N1_1  and  N2_4 
REMARK       I    between atoms: C1_6  and  N3_7 
REMARK       I    between atoms: C1_6  and  N7_18 
REMARK    2  A    between atoms: N3_7  and  N4_9 
REMARK       I    between atoms: N4_9  and  C2_11 
REMARK       I    between atoms: C2_11  and  N5_13 
REMARK    3  A    between atoms: N5_13  and  N6_15 
REMARK    4  A    between atoms: N7_18  and  C3_19 
REMARK    5  A    between atoms: N7_18  and  C5_23 
REMARK    6  A    between atoms: C3_19  and  C4_20 
REMARK    7  A    between atoms: C4_20  and  O2_21 
REMARK    8  A    between atoms: N10_28  and  C6_29 
REMARK    9  A    between atoms: C6_29  and  S1_30 
REMARK   10  A    between atoms: S1_30  and  C7_31 
REMARK   11  A    between atoms: C12_43  and  O3_44 
ROOT
HETATM    1  C5  UNL     1      22.370  34.806  32.885  1.00  0.00     0.192 A 
HETATM    2  N8  UNL     1      21.571  33.747  33.270  1.00  0.00    -0.267 N 
ATOM      3  H8  UNL     1      20.772  33.796  33.903  1.00  0.00     0.190 HD
HETATM    4  N9  UNL     1      22.013  32.681  32.686  1.00  0.00    -0.236 N 
ATOM      5  H9  UNL     1      21.603  31.753  32.801  1.00  0.00     0.208 HD
HETATM    6  N10 UNL     1      23.093  32.950  31.901  1.00  0.00    -0.244 N 
HETATM    7  C12 UNL     1      23.295  34.251  32.040  1.00  0.00     0.206 A 
ENDROOT
BRANCH   1   8
HETATM    8  N7  UNL     1      22.156  36.139  33.323  1.00  0.00    -0.158 N 
HETATM    9  C1  UNL     1      21.807  37.151  32.348  1.00  0.00     0.715 C 
HETATM   10  N2  UNL     1      22.048  38.355  32.535  1.00  0.00    -0.137 N 
HETATM   11  N3  UNL     1      21.175  36.769  31.113  1.00  0.00    -0.127 N 
ATOM     12  H2  UNL     1      22.495  38.532  33.435  1.00  0.00     0.205 HD
ATOM     13  H3  UNL     1      20.389  36.120  31.160  1.00  0.00     0.206 HD
BRANCH  10  14
HETATM   14  N1  UNL     1      21.852  39.486  31.816  1.00  0.00    -0.331 N 
ATOM     15  H12 UNL     1      20.990  39.436  31.271  1.00  0.00     0.177 HD
ATOM     16  H11 UNL     1      22.366  40.359  31.702  1.00  0.00     0.177 HD
ENDBRANCH  10  14
BRANCH  11  17
HETATM   17  N4  UNL     1      21.567  37.229  29.860  1.00  0.00    -0.236 N 
HETATM   18  C2  UNL     1      20.688  37.853  28.950  1.00  0.00     0.353 C 
HETATM   19  O1  UNL     1      19.473  38.038  29.204  1.00  0.00    -0.244 OA
HETATM   20  N5  UNL     1      21.152  38.303  27.692  1.00  0.00    -0.257 N 
ATOM     21  H5  UNL     1      22.138  38.160  27.471  1.00  0.00     0.191 HD
ATOM     22  H4  UNL     1      22.542  37.109  29.585  1.00  0.00     0.192 HD
BRANCH  20  23
HETATM   23  N6  UNL     1      20.361  38.925  26.738  1.00  0.00    -0.341 N 
ATOM     24  H62 UNL     1      19.999  39.849  26.975  1.00  0.00     0.177 HD
ATOM     25  H61 UNL     1      20.124  38.522  25.832  1.00  0.00     0.177 HD
ENDBRANCH  20  23
ENDBRANCH  11  17
BRANCH   8  26
HETATM   26  C3  UNL     1      22.402  36.493  34.673  1.00  0.00     0.175 C 
BRANCH  26  27
HETATM   27  C4  UNL     1      21.216  36.419  35.581  1.00  0.00     0.185 C 
BRANCH  27  28
HETATM   28  O2  UNL     1      20.533  35.244  35.661  1.00  0.00    -0.399 OA
ATOM     29  H2  UNL     1      20.766  34.630  36.347  1.00  0.00     0.209 HD
ENDBRANCH  27  28
ENDBRANCH  26  27
ENDBRANCH   8  26
ENDBRANCH   1   8
BRANCH   7  30
HETATM   30  O3  UNL     1      24.336  34.958  31.394  1.00  0.00    -0.342 OA
ATOM     31  H3  UNL     1      24.858  34.625  30.674  1.00  0.00     0.219 HD
ENDBRANCH   7  30
BRANCH   6  32
HETATM   32  C6  UNL     1      23.685  31.917  31.086  1.00  0.00     0.235 C 
BRANCH  32  33
HETATM   33  S1  UNL     1      25.014  31.070  31.930  1.00  0.00    -0.070 SA
BRANCH  33  34
HETATM   34  C7  UNL     1      26.051  30.186  30.770  1.00  0.00     0.178 A 
HETATM   35  N11 UNL     1      27.000  30.523  29.929  1.00  0.00    -0.265 N 
HETATM   36  N12 UNL     1      27.471  29.424  29.317  1.00  0.00    -0.130 N 
ATOM     37  H11 UNL     1      27.329  31.475  29.765  1.00  0.00     0.189 HD
HETATM   38  C8  UNL     1      26.813  28.351  29.773  1.00  0.00     0.697 A 
ATOM     39  H12 UNL     1      28.212  29.409  28.616  1.00  0.00     0.205 HD
HETATM   40  N13 UNL     1      25.941  28.833  30.668  1.00  0.00    -0.159 N 
HETATM   41  N14 UNL     1      26.834  26.948  29.531  1.00  0.00    -0.225 N 
HETATM   42  C9  UNL     1      25.107  27.857  31.366  1.00  0.00     0.151 C 
HETATM   43  C10 UNL     1      26.080  26.753  31.784  1.00  0.00     0.041 C 
HETATM   44  C11 UNL     1      26.383  25.977  30.518  1.00  0.00     0.139 C 
ATOM     45  H14 UNL     1      27.178  26.610  28.632  1.00  0.00     0.177 HD
ENDBRANCH  33  34
ENDBRANCH  32  33
ENDBRANCH   6  32
TORSDOF 11
ENDMDL
MODEL 3
REMARK VINA RESULT: -7.354555757      1.551      1.674
REMARK  11 active torsions:
REMARK  status: ('A' for Active; 'I' for Inactive)
REMARK    1  A    between atoms: N1_1  and  N2_4 
REMARK       I    between atoms: C1_6  and  N3_7 
REMARK       I    between atoms: C1_6  and  N7_18 
REMARK    2  A    between atoms: N3_7  and  N4_9 
REMARK       I    between atoms: N4_9  and  C2_11 
REMARK       I    between atoms: C2_11  and  N5_13 
REMARK    3  A    between atoms: N5_13  and  N6_15 
REMARK    4  A    between atoms: N7_18  and  C3_19 
REMARK    5  A    between atoms: N7_18  and  C5_23 
REMARK    6  A    between atoms: C3_19  and  C4_20 
REMARK    7  A    between atoms: C4_20  and  O2_21 
REMARK    8  A    between atoms: N10_28  and  C6_29 
REMARK    9  A    between atoms: C6_29  and  S1_30 
REMARK   10  A    between atoms: S1_30  and  C7_31 
REMARK   11  A    between atoms: C12_43  and  O3_44 
ROOT
HETATM    1  C5  UNL     1      22.620  35.030  32.234  1.00  0.00     0.192 A 
HETATM    2  N8  UNL     1      23.490  35.199  31.173  1.00  0.00    -0.267 N 
ATOM      3  H8  UNL     1      23.801  36.091  30.788  1.00  0.00     0.190 HD
HETATM    4  N9  UNL     1      23.841  34.027  30.754  1.00  0.00    -0.236 N 
ATOM      5  H9  UNL     1      24.479  33.865  29.974  1.00  0.00     0.208 HD
HETATM    6  N10 UNL     1      23.254  33.037  31.482  1.00  0.00    -0.244 N 
HETATM    7  C12 UNL     1      22.511  33.671  32.376  1.00  0.00     0.206 A 
ENDROOT
BRANCH   1   8
HETATM    8  N7  UNL     1      22.053  36.114  32.952  1.00  0.00    -0.158 N 
HETATM    9  C1  UNL     1      21.224  37.067  32.246  1.00  0.00     0.715 C 
HETATM   10  N2  UNL     1      21.078  38.235  32.645  1.00  0.00    -0.137 N 
HETATM   11  N3  UNL     1      20.551  36.674  31.036  1.00  0.00    -0.127 N 
ATOM     12  H2  UNL     1      21.589  38.423  33.508  1.00  0.00     0.205 HD
ATOM     13  H3  UNL     1      20.047  35.787  31.036  1.00  0.00     0.206 HD
BRANCH  10  14
HETATM   14  N1  UNL     1      20.395  39.314  32.195  1.00  0.00    -0.331 N 
ATOM     15  H12 UNL     1      19.469  39.372  32.619  1.00  0.00     0.177 HD
ATOM     16  H11 UNL     1      20.599  40.067  31.537  1.00  0.00     0.177 HD
ENDBRANCH  10  14
BRANCH  11  17
HETATM   17  N4  UNL     1      20.544  37.428  29.867  1.00  0.00    -0.236 N 
HETATM   18  C2  UNL     1      21.705  37.709  29.115  1.00  0.00     0.353 C 
HETATM   19  O1  UNL     1      22.842  37.297  29.451  1.00  0.00    -0.244 OA
HETATM   20  N5  UNL     1      21.629  38.479  27.931  1.00  0.00    -0.257 N 
ATOM     21  H5  UNL     1      20.711  38.820  27.645  1.00  0.00     0.191 HD
ATOM     22  H4  UNL     1      19.653  37.798  29.535  1.00  0.00     0.192 HD
BRANCH  20  23
HETATM   23  N6  UNL     1      22.715  38.802  27.132  1.00  0.00    -0.341 N 
ATOM     24  H62 UNL     1      22.581  39.558  26.461  1.00  0.00     0.177 HD
ATOM     25  H61 UNL     1      23.623  38.337  27.174  1.00  0.00     0.177 HD
ENDBRANCH  20  23
ENDBRANCH  11  17
BRANCH   8  26
HETATM   26  C3  UNL     1      22.398  36.325  34.311  1.00  0.00     0.175 C 
BRANCH  26  27
HETATM   27  C4  UNL     1      21.279  36.157  35.289  1.00  0.00     0.185 C 
BRANCH  27  28
HETATM   28  O2  UNL     1      20.500  35.044  35.199  1.00  0.00    -0.399 OA
ATOM     29  H2  UNL     1      20.492  34.562  34.381  1.00  0.00     0.209 HD
ENDBRANCH  27  28
ENDBRANCH  26  27
ENDBRANCH   8  26
ENDBRANCH   1   8
BRANCH   7  30
HETATM   30  O3  UNL     1      21.715  33.015  33.344  1.00  0.00    -0.342 OA
ATOM     31  H3  UNL     1      22.040  32.629  34.149  1.00  0.00     0.219 HD
ENDBRANCH   7  30
BRANCH   6  32
HETATM   32  C6  UNL     1      23.583  31.653  31.241  1.00  0.00     0.235 C 
BRANCH  32  33
HETATM   33  S1  UNL     1      25.160  31.201  31.951  1.00  0.00    -0.070 SA
BRANCH  33  34
HETATM   34  C7  UNL     1      26.155  30.288  30.776  1.00  0.00     0.178 A 
HETATM   35  N11 UNL     1      27.104  30.597  29.925  1.00  0.00    -0.265 N 
HETATM   36  N12 UNL     1      27.533  29.485  29.304  1.00  0.00    -0.130 N 
ATOM     37  H11 UNL     1      27.461  31.538  29.759  1.00  0.00     0.189 HD
HETATM   38  C8  UNL     1      26.846  28.432  29.766  1.00  0.00     0.697 A 
ATOM     39  H12 UNL     1      28.264  29.449  28.595  1.00  0.00     0.205 HD
HETATM   40  N13 UNL     1      26.000  28.939  30.673  1.00  0.00    -0.159 N 
HETATM   41  N14 UNL     1      26.820  27.030  29.521  1.00  0.00    -0.225 N 
HETATM   42  C9  UNL     1      25.145  27.989  31.379  1.00  0.00     0.151 C 
HETATM   43  C10 UNL     1      26.087  26.853  31.782  1.00  0.00     0.041 C 
HETATM   44  C11 UNL     1      26.350  26.071  30.511  1.00  0.00     0.139 C 
ATOM     45  H14 UNL     1      27.142  26.683  28.617  1.00  0.00     0.177 HD
ENDBRANCH  33  34
ENDBRANCH  32  33
ENDBRANCH   6  32
TORSDOF 11
ENDMDL
MODEL 4
REMARK VINA RESULT: -7.316908515      3.157      4.671
REMARK  11 active torsions:
REMARK  status: ('A' for Active; 'I' for Inactive)
REMARK    1  A    between atoms: N1_1  and  N2_4 
REMARK       I    between atoms: C1_6  and  N3_7 
REMARK       I    between atoms: C1_6  and  N7_18 
REMARK    2  A    between atoms: N3_7  and  N4_9 
REMARK       I    between atoms: N4_9  and  C2_11 
REMARK       I    between atoms: C2_11  and  N5_13 
REMARK    3  A    between atoms: N5_13  and  N6_15 
REMARK    4  A    between atoms: N7_18  and  C3_19 
REMARK    5  A    between atoms: N7_18  and  C5_23 
REMARK    6  A    between atoms: C3_19  and  C4_20 
REMARK    7  A    between atoms: C4_20  and  O2_21 
REMARK    8  A    between atoms: N10_28  and  C6_29 
REMARK    9  A    between atoms: C6_29  and  S1_30 
REMARK   10  A    between atoms: S1_30  and  C7_31 
REMARK   11  A    between atoms: C12_43  and  O3_44 
ROOT
HETATM    1  C5  UNL     1      21.361  36.525  32.670  1.00  0.00     0.192 A 
HETATM    2  N8  UNL     1      21.529  37.066  31.409  1.00  0.00    -0.267 N 
ATOM      3  H8  UNL     1      21.252  38.004  31.117  1.00  0.00     0.190 HD
HETATM    4  N9  UNL     1      22.100  36.176  30.665  1.00  0.00    -0.236 N 
ATOM      5  H9  UNL     1      22.338  36.316  29.683  1.00  0.00     0.208 HD
HETATM    6  N10 UNL     1      22.344  35.027  31.356  1.00  0.00    -0.244 N 
HETATM    7  C12 UNL     1      21.882  35.261  32.575  1.00  0.00     0.206 A 
ENDROOT
BRANCH   1   8
HETATM    8  N7  UNL     1      20.782  37.241  33.750  1.00  0.00    -0.158 N 
HETATM    9  C1  UNL     1      19.345  37.410  33.791  1.00  0.00     0.715 C 
HETATM   10  N2  UNL     1      18.811  38.358  34.391  1.00  0.00    -0.137 N 
HETATM   11  N3  UNL     1      18.493  36.471  33.110  1.00  0.00    -0.127 N 
ATOM     12  H2  UNL     1      19.490  38.971  34.843  1.00  0.00     0.205 HD
ATOM     13  H3  UNL     1      18.677  35.476  33.242  1.00  0.00     0.206 HD
BRANCH  10  14
HETATM   14  N1  UNL     1      17.533  38.763  34.580  1.00  0.00    -0.331 N 
ATOM     15  H12 UNL     1      16.957  38.012  34.962  1.00  0.00     0.177 HD
ATOM     16  H11 UNL     1      17.029  39.637  34.428  1.00  0.00     0.177 HD
ENDBRANCH  10  14
BRANCH  11  17
HETATM   17  N4  UNL     1      17.434  36.835  32.285  1.00  0.00    -0.236 N 
HETATM   18  C2  UNL     1      16.110  36.381  32.472  1.00  0.00     0.353 C 
HETATM   19  O1  UNL     1      15.788  35.606  33.404  1.00  0.00    -0.244 OA
HETATM   20  N5  UNL     1      15.078  36.793  31.598  1.00  0.00    -0.257 N 
ATOM     21  H5  UNL     1      15.324  37.423  30.835  1.00  0.00     0.191 HD
ATOM     22  H4  UNL     1      17.624  37.462  31.503  1.00  0.00     0.192 HD
BRANCH  20  23
HETATM   23  N6  UNL     1      13.752  36.398  31.706  1.00  0.00    -0.341 N 
ATOM     24  H62 UNL     1      13.577  35.504  32.165  1.00  0.00     0.177 HD
ATOM     25  H61 UNL     1      12.958  36.938  31.361  1.00  0.00     0.177 HD
ENDBRANCH  20  23
ENDBRANCH  11  17
BRANCH   8  26
HETATM   26  C3  UNL     1      21.612  37.883  34.703  1.00  0.00     0.175 C 
BRANCH  26  27
HETATM   27  C4  UNL     1      21.566  37.308  36.083  1.00  0.00     0.185 C 
BRANCH  27  28
HETATM   28  O2  UNL     1      21.690  35.960  36.229  1.00  0.00    -0.399 OA
ATOM     29  H2  UNL     1      21.354  35.557  37.021  1.00  0.00     0.209 HD
ENDBRANCH  27  28
ENDBRANCH  26  27
ENDBRANCH   8  26
ENDBRANCH   1   8
BRANCH   7  30
HETATM   30  O3  UNL     1      21.928  34.318  33.627  1.00  0.00    -0.342 OA
ATOM     31  H3  UNL     1      22.666  33.753  33.823  1.00  0.00     0.219 HD
ENDBRANCH   7  30
BRANCH   6  32
HETATM   32  C6  UNL     1      23.060  33.937  30.740  1.00  0.00     0.235 C 
BRANCH  32  33
HETATM   33  S1  UNL     1      24.681  33.704  31.456  1.00  0.00    -0.070 SA
BRANCH  33  34
HETATM   34  C7  UNL     1      24.699  32.294  32.559  1.00  0.00     0.178 A 
HETATM   35  N11 UNL     1      24.424  32.103  33.827  1.00  0.00    -0.265 N 
HETATM   36  N12 UNL     1      24.580  30.803  34.132  1.00  0.00    -0.130 N 
ATOM     37  H11 UNL     1      24.136  32.830  34.482  1.00  0.00     0.189 HD
HETATM   38  C8  UNL     1      24.965  30.138  33.035  1.00  0.00     0.697 A 
ATOM     39  H12 UNL     1      24.430  30.390  35.052  1.00  0.00     0.205 HD
HETATM   40  N13 UNL     1      25.035  31.067  32.072  1.00  0.00    -0.159 N 
HETATM   41  N14 UNL     1      25.289  28.792  32.705  1.00  0.00    -0.225 N 
HETATM   42  C9  UNL     1      25.395  30.603  30.735  1.00  0.00     0.151 C 
HETATM   43  C10 UNL     1      24.533  29.357  30.517  1.00  0.00     0.041 C 
HETATM   44  C11 UNL     1      25.175  28.267  31.352  1.00  0.00     0.139 C 
ATOM     45  H14 UNL     1      25.614  28.170  33.446  1.00  0.00     0.177 HD
ENDBRANCH  33  34
ENDBRANCH  32  33
ENDBRANCH   6  32
TORSDOF 11
ENDMDL
MODEL 5
REMARK VINA RESULT: -7.286204339      3.805      6.047
REMARK  11 active torsions:
REMARK  status: ('A' for Active; 'I' for Inactive)
REMARK    1  A    between atoms: N1_1  and  N2_4 
REMARK       I    between atoms: C1_6  and  N3_7 
REMARK       I    between atoms: C1_6  and  N7_18 
REMARK    2  A    between atoms: N3_7  and  N4_9 
REMARK       I    between atoms: N4_9  and  C2_11 
REMARK       I    between atoms: C2_11  and  N5_13 
REMARK    3  A    between atoms: N5_13  and  N6_15 
REMARK    4  A    between atoms: N7_18  and  C3_19 
REMARK    5  A    between atoms: N7_18  and  C5_23 
REMARK    6  A    between atoms: C3_19  and  C4_20 
REMARK    7  A    between atoms: C4_20  and  O2_21 
REMARK    8  A    between atoms: N10_28  and  C6_29 
REMARK    9  A    between atoms: C6_29  and  S1_30 
REMARK   10  A    between atoms: S1_30  and  C7_31 
REMARK   11  A    between atoms: C12_43  and  O3_44 
ROOT
HETATM    1  C5  UNL     1      24.894  30.791  31.511  1.00  0.00     0.192 A 
HETATM    2  N8  UNL     1      25.022  30.738  32.885  1.00  0.00    -0.267 N 
ATOM      3  H8  UNL     1      25.051  31.540  33.517  1.00  0.00     0.190 HD
HETATM    4  N9  UNL     1      25.098  29.495  33.232  1.00  0.00    -0.236 N 
ATOM      5  H9  UNL     1      25.200  29.174  34.195  1.00  0.00     0.208 HD
HETATM    6  N10 UNL     1      25.024  28.668  32.152  1.00  0.00    -0.244 N 
HETATM    7  C12 UNL     1      24.904  29.480  31.113  1.00  0.00     0.206 A 
ENDROOT
BRANCH   1   8
HETATM    8  N7  UNL     1      24.762  32.006  30.789  1.00  0.00    -0.158 N 
HETATM    9  C1  UNL     1      25.756  32.341  29.791  1.00  0.00     0.715 C 
HETATM   10  N2  UNL     1      25.986  33.517  29.462  1.00  0.00    -0.137 N 
HETATM   11  N3  UNL     1      26.517  31.297  29.159  1.00  0.00    -0.127 N 
ATOM     12  H2  UNL     1      25.400  34.188  29.959  1.00  0.00     0.205 HD
ATOM     13  H3  UNL     1      26.014  30.481  28.812  1.00  0.00     0.206 HD
BRANCH  10  14
HETATM   14  N1  UNL     1      26.840  34.110  28.593  1.00  0.00    -0.331 N 
ATOM     15  H12 UNL     1      27.810  33.884  28.812  1.00  0.00     0.177 HD
ATOM     16  H11 UNL     1      26.727  34.721  27.785  1.00  0.00     0.177 HD
ENDBRANCH  10  14
BRANCH  11  17
HETATM   17  N4  UNL     1      27.899  31.331  28.991  1.00  0.00    -0.236 N 
HETATM   18  C2  UNL     1      28.637  30.281  28.407  1.00  0.00     0.353 C 
HETATM   19  O1  UNL     1      28.099  29.226  27.993  1.00  0.00    -0.244 OA
HETATM   20  N5  UNL     1      30.040  30.381  28.261  1.00  0.00    -0.257 N 
ATOM     21  H5  UNL     1      30.493  31.233  28.592  1.00  0.00     0.191 HD
ATOM     22  H4  UNL     1      28.403  32.160  29.307  1.00  0.00     0.192 HD
BRANCH  20  23
HETATM   23  N6  UNL     1      30.844  29.400  27.699  1.00  0.00    -0.341 N 
ATOM     24  H62 UNL     1      31.635  29.080  28.258  1.00  0.00     0.177 HD
ATOM     25  H61 UNL     1      30.695  28.988  26.778  1.00  0.00     0.177 HD
ENDBRANCH  20  23
ENDBRANCH  11  17
BRANCH   8  26
HETATM   26  C3  UNL     1      23.744  32.931  31.133  1.00  0.00     0.175 C 
BRANCH  26  27
HETATM   27  C4  UNL     1      24.133  33.967  32.139  1.00  0.00     0.185 C 
BRANCH  27  28
HETATM   28  O2  UNL     1      25.070  33.645  33.073  1.00  0.00    -0.399 OA
ATOM     29  H2  UNL     1      25.535  34.350  33.509  1.00  0.00     0.209 HD
ENDBRANCH  27  28
ENDBRANCH  26  27
ENDBRANCH   8  26
ENDBRANCH   1   8
BRANCH   7  30
HETATM   30  O3  UNL     1      24.801  29.033  29.775  1.00  0.00    -0.342 OA
ATOM     31  H3  UNL     1      23.991  28.949  29.287  1.00  0.00     0.219 HD
ENDBRANCH   7  30
BRANCH   6  32
HETATM   32  C6  UNL     1      24.995  27.236  32.324  1.00  0.00     0.235 C 
BRANCH  32  33
HETATM   33  S1  UNL     1      26.527  26.465  31.819  1.00  0.00    -0.070 SA
BRANCH  33  34
HETATM   34  C7  UNL     1      26.517  26.103  30.066  1.00  0.00     0.178 A 
HETATM   35  N11 UNL     1      26.513  26.823  28.969  1.00  0.00    -0.265 N 
HETATM   36  N12 UNL     1      26.540  26.012  27.898  1.00  0.00    -0.130 N 
ATOM     37  H11 UNL     1      26.492  27.842  28.935  1.00  0.00     0.189 HD
HETATM   38  C8  UNL     1      26.564  24.739  28.311  1.00  0.00     0.697 A 
ATOM     39  H12 UNL     1      26.543  26.318  26.925  1.00  0.00     0.205 HD
HETATM   40  N13 UNL     1      26.550  24.807  29.649  1.00  0.00    -0.159 N 
HETATM   41  N14 UNL     1      26.592  23.455  27.696  1.00  0.00    -0.225 N 
HETATM   42  C9  UNL     1      26.615  23.540  30.374  1.00  0.00     0.151 C 
HETATM   43  C10 UNL     1      27.726  22.756  29.673  1.00  0.00     0.041 C 
HETATM   44  C11 UNL     1      27.125  22.277  28.366  1.00  0.00     0.139 C 
ATOM     45  H14 UNL     1      26.224  23.356  26.750  1.00  0.00     0.177 HD
ENDBRANCH  33  34
ENDBRANCH  32  33
ENDBRANCH   6  32
TORSDOF 11
ENDMDL
