MODEL 1
REMARK VINA RESULT: -7.576184250      0.000      0.000
REMARK  12 active torsions:
REMARK  status: ('A' for Active; 'I' for Inactive)
REMARK    1  A    between atoms: N3_7  and  N4_8 
REMARK    2  A    between atoms: C5_16  and  N7_17 
REMARK    3  A    between atoms: N8_19  and  N9_21 
REMARK    4  A    between atoms: C7_26  and  O1_27 
REMARK    5  A    between atoms: C8_29  and  C9_30 
REMARK    6  A    between atoms: C9_30  and  C10_31 
REMARK    7  A    between atoms: C10_31  and  O2_32 
REMARK    8  A    between atoms: N11_34  and  C11_35 
REMARK    9  A    between atoms: C11_35  and  C12_36 
REMARK   10  A    between atoms: C12_36  and  O3_37 
REMARK   11  A    between atoms: C12_36  and  O4_39 
REMARK   12  A    between atoms: O4_39  and  N12_40 
ROOT
HETATM    1  N7  UNL     1      23.479  33.042  32.107  1.00  0.00    -0.266 N 
ATOM      2  H7  UNL     1      22.554  32.615  32.133  1.00  0.00     0.190 HD
HETATM    3  N8  UNL     1      23.736  34.038  32.851  1.00  0.00    -0.227 N 
ATOM      4  H8  UNL     1      24.661  34.469  32.828  1.00  0.00     0.209 HD
ENDROOT
BRANCH   3   5
HETATM    5  N9  UNL     1      22.741  34.543  33.705  1.00  0.00    -0.117 N 
HETATM    6  C6  UNL     1      21.778  35.279  33.252  1.00  0.00     0.702 A 
HETATM    7  N10 UNL     1      21.645  35.619  31.941  1.00  0.00    -0.167 N 
HETATM    8  N11 UNL     1      20.761  35.842  33.891  1.00  0.00    -0.176 N 
HETATM    9  C7  UNL     1      20.555  36.386  31.773  1.00  0.00     0.179 A 
ATOM     10  H10 UNL     1      22.278  35.332  31.195  1.00  0.00     0.186 HD
HETATM   11  C8  UNL     1      19.996  36.524  33.018  1.00  0.00     0.082 A 
ATOM     12  H9  UNL     1      22.778  34.327  34.701  1.00  0.00     0.207 HD
BRANCH   9  13
HETATM   13  O1  UNL     1      20.147  36.894  30.550  1.00  0.00    -0.344 OA
ATOM     14  H1  UNL     1      19.980  37.815  30.387  1.00  0.00     0.219 HD
ENDBRANCH   9  13
BRANCH  11  15
HETATM   15  C9  UNL     1      18.764  37.301  33.292  1.00  0.00     0.088 C 
BRANCH  15  16
HETATM   16  C10 UNL     1      19.019  38.801  33.265  1.00  0.00     0.170 C 
BRANCH  16  17
HETATM   17  O2  UNL     1      20.386  38.994  33.402  1.00  0.00    -0.400 OA
ATOM     18  H2  UNL     1      20.517  39.854  33.784  1.00  0.00     0.209 HD
ENDBRANCH  16  17
ENDBRANCH  15  16
ENDBRANCH  11  15
BRANCH   8  19
HETATM   19  C11 UNL     1      20.503  35.749  35.297  1.00  0.00     0.210 C 
BRANCH  19  20
HETATM   20  C12 UNL     1      21.198  36.856  36.077  1.00  0.00     0.303 C 
BRANCH  20  21
HETATM   21  O3  UNL     1      20.317  37.900  36.346  1.00  0.00    -0.367 OA
ATOM     22  H3  UNL     1      20.557  38.679  35.859  1.00  0.00     0.212 HD
ENDBRANCH  20  21
BRANCH  20  23
HETATM   23  O4  UNL     1      22.273  37.369  35.372  1.00  0.00    -0.253 OA
BRANCH  23  24
HETATM   24  N12 UNL     1      22.299  38.716  35.525  1.00  0.00    -0.308 N 
ATOM     25 2H12 UNL     1      22.009  39.209  36.368  1.00  0.00     0.184 HD
ATOM     26 1H12 UNL     1      22.651  39.140  34.667  1.00  0.00     0.184 HD
ENDBRANCH  23  24
ENDBRANCH  20  23
ENDBRANCH  19  20
ENDBRANCH   8  19
ENDBRANCH   3   5
BRANCH   1  27
HETATM   27  C5  UNL     1      24.479  32.520  31.235  1.00  0.00     0.191 A 
HETATM   28  N6  UNL     1      24.737  31.201  31.254  1.00  0.00    -0.331 N 
HETATM   29  C4  UNL     1      25.687  30.732  30.416  1.00  0.00     0.123 A 
ATOM     30  H6  UNL     1      24.231  30.574  31.880  1.00  0.00     0.168 HD
HETATM   31  C3  UNL     1      25.965  29.371  30.427  1.00  0.00     0.186 A 
HETATM   32  C14 UNL     1      26.403  31.521  29.550  1.00  0.00     0.156 A 
HETATM   33  N3  UNL     1      26.900  28.856  29.615  1.00  0.00    -0.076 N 
HETATM   34  N5  UNL     1      25.257  28.498  31.303  1.00  0.00    -0.077 NA
HETATM   35  C2  UNL     1      27.591  29.659  28.768  1.00  0.00     0.701 A 
HETATM   36  N1  UNL     1      27.339  31.004  28.736  1.00  0.00    -0.169 N 
HETATM   37  N2  UNL     1      28.476  29.089  28.029  1.00  0.00    -0.233 N 
HETATM   38  C1  UNL     1      28.121  31.755  27.801  1.00  0.00     0.177 C 
ATOM     39  H22 UNL     1      28.996  29.693  27.393  1.00  0.00     0.174 HD
ATOM     40  H21 UNL     1      28.665  28.087  28.053  1.00  0.00     0.174 HD
HETATM   41  N13 UNL     1      26.147  32.837  29.530  1.00  0.00    -0.304 N 
HETATM   42  C13 UNL     1      25.189  33.322  30.372  1.00  0.00     0.292 A 
ATOM     43  H13 UNL     1      26.656  33.459  28.902  1.00  0.00     0.171 HD
HETATM   44  O5  UNL     1      24.919  34.553  30.384  1.00  0.00    -0.264 OA
BRANCH  33  45
HETATM   45  N4  UNL     1      27.159  27.483  29.646  1.00  0.00    -0.323 N 
ATOM     46  H42 UNL     1      27.339  26.986  28.773  1.00  0.00     0.178 HD
ATOM     47  H41 UNL     1      27.167  26.983  30.535  1.00  0.00     0.178 HD
ENDBRANCH  33  45
ENDBRANCH   1  27
TORSDOF 12
ENDMDL
MODEL 2
REMARK VINA RESULT: -7.545902430      1.890      2.798
REMARK  12 active torsions:
REMARK  status: ('A' for Active; 'I' for Inactive)
REMARK    1  A    between atoms: N3_7  and  N4_8 
REMARK    2  A    between atoms: C5_16  and  N7_17 
REMARK    3  A    between atoms: N8_19  and  N9_21 
REMARK    4  A    between atoms: C7_26  and  O1_27 
REMARK    5  A    between atoms: C8_29  and  C9_30 
REMARK    6  A    between atoms: C9_30  and  C10_31 
REMARK    7  A    between atoms: C10_31  and  O2_32 
REMARK    8  A    between atoms: N11_34  and  C11_35 
REMARK    9  A    between atoms: C11_35  and  C12_36 
REMARK   10  A    between atoms: C12_36  and  O3_37 
REMARK   11  A    between atoms: C12_36  and  O4_39 
REMARK   12  A    between atoms: O4_39  and  N12_40 
ROOT
HETATM    1  N7  UNL     1      24.127  33.653  33.138  1.00  0.00    -0.266 N 
ATOM      2  H7  UNL     1      24.780  34.308  33.566  1.00  0.00     0.190 HD
HETATM    3  N8  UNL     1      22.898  33.954  33.047  1.00  0.00    -0.227 N 
ATOM      4  H8  UNL     1      22.240  33.302  32.619  1.00  0.00     0.209 HD
ENDROOT
BRANCH   3   5
HETATM    5  N9  UNL     1      22.447  35.191  33.540  1.00  0.00    -0.117 N 
HETATM    6  C6  UNL     1      21.942  36.084  32.751  1.00  0.00     0.702 A 
HETATM    7  N10 UNL     1      21.804  35.909  31.409  1.00  0.00    -0.167 N 
HETATM    8  N11 UNL     1      21.469  37.293  33.022  1.00  0.00    -0.176 N 
HETATM    9  C7  UNL     1      21.251  37.002  30.856  1.00  0.00     0.179 A 
ATOM     10  H10 UNL     1      22.079  35.071  30.897  1.00  0.00     0.186 HD
HETATM   11  C8  UNL     1      21.040  37.879  31.889  1.00  0.00     0.082 A 
ATOM     12  H9  UNL     1      22.519  35.389  34.538  1.00  0.00     0.207 HD
BRANCH   9  13
HETATM   13  O1  UNL     1      20.981  37.133  29.503  1.00  0.00    -0.344 OA
ATOM     14  H1  UNL     1      20.105  37.196  29.141  1.00  0.00     0.219 HD
ENDBRANCH   9  13
BRANCH  11  15
HETATM   15  C9  UNL     1      20.440  39.225  31.723  1.00  0.00     0.088 C 
BRANCH  15  16
HETATM   16  C10 UNL     1      21.368  40.175  30.982  1.00  0.00     0.170 C 
BRANCH  16  17
HETATM   17  O2  UNL     1      22.293  40.655  31.900  1.00  0.00    -0.400 OA
ATOM     18  H2  UNL     1      22.976  41.099  31.411  1.00  0.00     0.209 HD
ENDBRANCH  16  17
ENDBRANCH  15  16
ENDBRANCH  11  15
BRANCH   8  19
HETATM   19  C11 UNL     1      21.418  37.899  34.319  1.00  0.00     0.210 C 
BRANCH  19  20
HETATM   20  C12 UNL     1      22.781  38.411  34.763  1.00  0.00     0.303 C 
BRANCH  20  21
HETATM   21  O3  UNL     1      23.599  37.357  35.164  1.00  0.00    -0.367 OA
ATOM     22  H3  UNL     1      23.494  37.182  36.091  1.00  0.00     0.212 HD
ENDBRANCH  20  21
BRANCH  20  23
HETATM   23  O4  UNL     1      22.666  39.294  35.822  1.00  0.00    -0.253 OA
BRANCH  23  24
HETATM   24  N12 UNL     1      23.476  40.358  35.600  1.00  0.00    -0.308 N 
ATOM     25 2H12 UNL     1      23.578  40.833  34.703  1.00  0.00     0.184 HD
ATOM     26 1H12 UNL     1      23.957  40.596  36.467  1.00  0.00     0.184 HD
ENDBRANCH  23  24
ENDBRANCH  20  23
ENDBRANCH  19  20
ENDBRANCH   8  19
ENDBRANCH   3   5
BRANCH   1  27
HETATM   27  C5  UNL     1      24.597  32.401  32.642  1.00  0.00     0.191 A 
HETATM   28  N6  UNL     1      25.324  32.377  31.511  1.00  0.00    -0.331 N 
HETATM   29  C4  UNL     1      25.759  31.179  31.066  1.00  0.00     0.123 A 
ATOM     30  H6  UNL     1      25.540  33.237  31.007  1.00  0.00     0.168 HD
HETATM   31  C3  UNL     1      26.510  31.141  29.898  1.00  0.00     0.186 A 
HETATM   32  C14 UNL     1      25.505  29.987  31.699  1.00  0.00     0.156 A 
HETATM   33  N3  UNL     1      26.965  29.975  29.413  1.00  0.00    -0.076 N 
HETATM   34  N5  UNL     1      26.808  32.343  29.194  1.00  0.00    -0.077 NA
HETATM   35  C2  UNL     1      26.698  28.813  30.060  1.00  0.00     0.701 A 
HETATM   36  N1  UNL     1      25.961  28.821  31.214  1.00  0.00    -0.169 N 
HETATM   37  N2  UNL     1      27.163  27.739  29.526  1.00  0.00    -0.233 N 
HETATM   38  C1  UNL     1      25.747  27.539  31.815  1.00  0.00     0.177 C 
ATOM     39  H22 UNL     1      26.963  26.865  30.012  1.00  0.00     0.174 HD
ATOM     40  H21 UNL     1      27.712  27.733  28.666  1.00  0.00     0.174 HD
HETATM   41  N13 UNL     1      24.780  30.008  32.827  1.00  0.00    -0.304 N 
HETATM   42  C13 UNL     1      24.335  31.213  33.286  1.00  0.00     0.292 A 
ATOM     43  H13 UNL     1      24.567  29.146  33.327  1.00  0.00     0.171 HD
HETATM   44  O5  UNL     1      23.651  31.277  34.343  1.00  0.00    -0.264 OA
BRANCH  33  45
HETATM   45  N4  UNL     1      27.717  29.965  28.236  1.00  0.00    -0.323 N 
ATOM     46  H42 UNL     1      28.098  29.084  27.890  1.00  0.00     0.178 HD
ATOM     47  H41 UNL     1      27.883  30.834  27.727  1.00  0.00     0.178 HD
ENDBRANCH  33  45
ENDBRANCH   1  27
TORSDOF 12
ENDMDL
MODEL 3
REMARK VINA RESULT: -7.420290125      1.736      2.663
REMARK  12 active torsions:
REMARK  status: ('A' for Active; 'I' for Inactive)
REMARK    1  A    between atoms: N3_7  and  N4_8 
REMARK    2  A    between atoms: C5_16  and  N7_17 
REMARK    3  A    between atoms: N8_19  and  N9_21 
REMARK    4  A    between atoms: C7_26  and  O1_27 
REMARK    5  A    between atoms: C8_29  and  C9_30 
REMARK    6  A    between atoms: C9_30  and  C10_31 
REMARK    7  A    between atoms: C10_31  and  O2_32 
REMARK    8  A    between atoms: N11_34  and  C11_35 
REMARK    9  A    between atoms: C11_35  and  C12_36 
REMARK   10  A    between atoms: C12_36  and  O3_37 
REMARK   11  A    between atoms: C12_36  and  O4_39 
REMARK   12  A    between atoms: O4_39  and  N12_40 
ROOT
HETATM    1  N7  UNL     1      24.323  33.769  33.270  1.00  0.00    -0.266 N 
ATOM      2  H7  UNL     1      25.015  34.367  33.721  1.00  0.00     0.190 HD
HETATM    3  N8  UNL     1      23.117  34.153  33.182  1.00  0.00    -0.227 N 
ATOM      4  H8  UNL     1      22.420  33.559  32.732  1.00  0.00     0.209 HD
ENDROOT
BRANCH   3   5
HETATM    5  N9  UNL     1      22.745  35.403  33.708  1.00  0.00    -0.117 N 
HETATM    6  C6  UNL     1      22.039  36.238  33.017  1.00  0.00     0.702 A 
HETATM    7  N10 UNL     1      21.602  35.987  31.753  1.00  0.00    -0.167 N 
HETATM    8  N11 UNL     1      21.596  37.447  33.334  1.00  0.00    -0.176 N 
HETATM    9  C7  UNL     1      20.896  37.034  31.294  1.00  0.00     0.179 A 
ATOM     10  H10 UNL     1      21.782  35.130  31.231  1.00  0.00     0.186 HD
HETATM   11  C8  UNL     1      20.896  37.960  32.305  1.00  0.00     0.082 A 
ATOM     12  H9  UNL     1      23.038  35.657  34.651  1.00  0.00     0.207 HD
BRANCH   9  13
HETATM   13  O1  UNL     1      20.316  37.085  30.036  1.00  0.00    -0.344 OA
ATOM     14  H1  UNL     1      20.699  36.694  29.259  1.00  0.00     0.219 HD
ENDBRANCH   9  13
BRANCH  11  15
HETATM   15  C9  UNL     1      20.223  39.279  32.221  1.00  0.00     0.088 C 
BRANCH  15  16
HETATM   16  C10 UNL     1      20.875  40.186  31.188  1.00  0.00     0.170 C 
BRANCH  16  17
HETATM   17  O2  UNL     1      22.120  40.551  31.681  1.00  0.00    -0.400 OA
ATOM     18  H2  UNL     1      22.555  41.063  31.008  1.00  0.00     0.209 HD
ENDBRANCH  16  17
ENDBRANCH  15  16
ENDBRANCH  11  15
BRANCH   8  19
HETATM   19  C11 UNL     1      21.823  38.122  34.578  1.00  0.00     0.210 C 
BRANCH  19  20
HETATM   20  C12 UNL     1      20.916  37.597  35.682  1.00  0.00     0.303 C 
BRANCH  20  21
HETATM   21  O3  UNL     1      19.593  37.965  35.452  1.00  0.00    -0.367 OA
ATOM     22  H3  UNL     1      19.217  38.373  36.223  1.00  0.00     0.212 HD
ENDBRANCH  20  21
BRANCH  20  23
HETATM   23  O4  UNL     1      21.293  38.092  36.919  1.00  0.00    -0.253 OA
BRANCH  23  24
HETATM   24  N12 UNL     1      21.993  39.239  36.741  1.00  0.00    -0.308 N 
ATOM     25 2H12 UNL     1      22.391  39.544  35.853  1.00  0.00     0.184 HD
ATOM     26 1H12 UNL     1      22.052  39.733  37.631  1.00  0.00     0.184 HD
ENDBRANCH  23  24
ENDBRANCH  20  23
ENDBRANCH  19  20
ENDBRANCH   8  19
ENDBRANCH   3   5
BRANCH   1  27
HETATM   27  C5  UNL     1      24.713  32.503  32.742  1.00  0.00     0.191 A 
HETATM   28  N6  UNL     1      25.426  32.462  31.603  1.00  0.00    -0.331 N 
HETATM   29  C4  UNL     1      25.784  31.251  31.126  1.00  0.00     0.123 A 
ATOM     30  H6  UNL     1      25.687  33.318  31.115  1.00  0.00     0.168 HD
HETATM   31  C3  UNL     1      26.519  31.195  29.949  1.00  0.00     0.186 A 
HETATM   32  C14 UNL     1      25.465  30.062  31.734  1.00  0.00     0.156 A 
HETATM   33  N3  UNL     1      26.899  30.015  29.433  1.00  0.00    -0.076 N 
HETATM   34  N5  UNL     1      26.882  32.393  29.269  1.00  0.00    -0.077 NA
HETATM   35  C2  UNL     1      26.570  28.857  30.056  1.00  0.00     0.701 A 
HETATM   36  N1  UNL     1      25.847  28.882  31.218  1.00  0.00    -0.169 N 
HETATM   37  N2  UNL     1      26.965  27.770  29.493  1.00  0.00    -0.233 N 
HETATM   38  C1  UNL     1      25.562  27.601  31.793  1.00  0.00     0.177 C 
ATOM     39  H22 UNL     1      26.717  26.898  29.962  1.00  0.00     0.174 HD
ATOM     40  H21 UNL     1      27.504  27.751  28.627  1.00  0.00     0.174 HD
HETATM   41  N13 UNL     1      24.754  30.100  32.871  1.00  0.00    -0.304 N 
HETATM   42  C13 UNL     1      24.386  31.319  33.362  1.00  0.00     0.292 A 
ATOM     43  H13 UNL     1      24.495  29.240  33.354  1.00  0.00     0.171 HD
HETATM   44  O5  UNL     1      23.717  31.398  34.428  1.00  0.00    -0.264 OA
BRANCH  33  45
HETATM   45  N4  UNL     1      27.638  29.988  28.247  1.00  0.00    -0.323 N 
ATOM     46  H42 UNL     1      27.632  29.146  27.671  1.00  0.00     0.178 HD
ATOM     47  H41 UNL     1      28.179  30.805  27.962  1.00  0.00     0.178 HD
ENDBRANCH  33  45
ENDBRANCH   1  27
TORSDOF 12
ENDMDL
MODEL 4
REMARK VINA RESULT: -7.354063830      3.671      6.330
REMARK  12 active torsions:
REMARK  status: ('A' for Active; 'I' for Inactive)
REMARK    1  A    between atoms: N3_7  and  N4_8 
REMARK    2  A    between atoms: C5_16  and  N7_17 
REMARK    3  A    between atoms: N8_19  and  N9_21 
REMARK    4  A    between atoms: C7_26  and  O1_27 
REMARK    5  A    between atoms: C8_29  and  C9_30 
REMARK    6  A    between atoms: C9_30  and  C10_31 
REMARK    7  A    between atoms: C10_31  and  O2_32 
REMARK    8  A    between atoms: N11_34  and  C11_35 
REMARK    9  A    between atoms: C11_35  and  C12_36 
REMARK   10  A    between atoms: C12_36  and  O3_37 
REMARK   11  A    between atoms: C12_36  and  O4_39 
REMARK   12  A    between atoms: O4_39  and  N12_40 
ROOT
HETATM    1  N7  UNL     1      24.643  29.021  30.495  1.00  0.00    -0.266 N 
ATOM      2  H7  UNL     1      23.840  29.238  29.905  1.00  0.00     0.190 HD
HETATM    3  N8  UNL     1      25.127  29.912  31.258  1.00  0.00    -0.227 N 
ATOM      4  H8  UNL     1      25.930  29.699  31.850  1.00  0.00     0.209 HD
ENDROOT
BRANCH   3   5
HETATM    5  N9  UNL     1      24.550  31.194  31.284  1.00  0.00    -0.117 N 
HETATM    6  C6  UNL     1      25.038  32.163  30.580  1.00  0.00     0.702 A 
HETATM    7  N10 UNL     1      26.124  32.032  29.771  1.00  0.00    -0.167 N 
HETATM    8  N11 UNL     1      24.641  33.424  30.473  1.00  0.00    -0.176 N 
HETATM    9  C7  UNL     1      26.396  33.203  29.172  1.00  0.00     0.179 A 
ATOM     10  H10 UNL     1      26.655  31.171  29.639  1.00  0.00     0.186 HD
HETATM   11  C8  UNL     1      25.448  34.085  29.622  1.00  0.00     0.082 A 
ATOM     12  H9  UNL     1      23.731  31.363  31.868  1.00  0.00     0.207 HD
BRANCH   9  13
HETATM   13  O1  UNL     1      27.444  33.394  28.286  1.00  0.00    -0.344 OA
ATOM     14  H1  UNL     1      28.207  33.929  28.474  1.00  0.00     0.219 HD
ENDBRANCH   9  13
BRANCH  11  15
HETATM   15  C9  UNL     1      25.375  35.507  29.207  1.00  0.00     0.088 C 
BRANCH  15  16
HETATM   16  C10 UNL     1      25.349  35.658  27.693  1.00  0.00     0.170 C 
BRANCH  16  17
HETATM   17  O2  UNL     1      24.284  36.488  27.375  1.00  0.00    -0.400 OA
ATOM     18  H2  UNL     1      24.646  37.301  27.041  1.00  0.00     0.209 HD
ENDBRANCH  16  17
ENDBRANCH  15  16
ENDBRANCH  11  15
BRANCH   8  19
HETATM   19  C11 UNL     1      23.526  34.010  31.156  1.00  0.00     0.210 C 
BRANCH  19  20
HETATM   20  C12 UNL     1      23.741  34.057  32.662  1.00  0.00     0.303 C 
BRANCH  20  21
HETATM   21  O3  UNL     1      25.092  33.920  32.973  1.00  0.00    -0.367 OA
ATOM     22  H3  UNL     1      25.571  34.710  32.753  1.00  0.00     0.212 HD
ENDBRANCH  20  21
BRANCH  20  23
HETATM   23  O4  UNL     1      23.047  33.044  33.300  1.00  0.00    -0.253 OA
BRANCH  23  24
HETATM   24  N12 UNL     1      21.724  33.179  33.034  1.00  0.00    -0.308 N 
ATOM     25 2H12 UNL     1      21.311  33.964  32.532  1.00  0.00     0.184 HD
ATOM     26 1H12 UNL     1      21.225  32.376  33.417  1.00  0.00     0.184 HD
ENDBRANCH  23  24
ENDBRANCH  20  23
ENDBRANCH  19  20
ENDBRANCH   8  19
ENDBRANCH   3   5
BRANCH   1  27
HETATM   27  C5  UNL     1      25.218  27.717  30.459  1.00  0.00     0.191 A 
HETATM   28  N6  UNL     1      25.543  27.179  29.270  1.00  0.00    -0.331 N 
HETATM   29  C4  UNL     1      26.089  25.944  29.264  1.00  0.00     0.123 A 
ATOM     30  H6  UNL     1      25.383  27.688  28.401  1.00  0.00     0.168 HD
HETATM   31  C3  UNL     1      26.428  25.376  28.042  1.00  0.00     0.186 A 
HETATM   32  C14 UNL     1      26.332  25.207  30.397  1.00  0.00     0.156 A 
HETATM   33  N3  UNL     1      26.972  24.151  27.983  1.00  0.00    -0.076 N 
HETATM   34  N5  UNL     1      26.201  26.089  26.830  1.00  0.00    -0.077 NA
HETATM   35  C2  UNL     1      27.201  23.447  29.120  1.00  0.00     0.701 A 
HETATM   36  N1  UNL     1      26.878  23.981  30.338  1.00  0.00    -0.169 N 
HETATM   37  N2  UNL     1      27.718  22.277  28.976  1.00  0.00    -0.233 N 
HETATM   38  C1  UNL     1      27.169  23.154  31.469  1.00  0.00     0.177 C 
ATOM     39  H22 UNL     1      27.890  21.748  29.831  1.00  0.00     0.174 HD
ATOM     40  H21 UNL     1      27.958  21.879  28.069  1.00  0.00     0.174 HD
HETATM   41  N13 UNL     1      26.009  25.742  31.584  1.00  0.00    -0.304 N 
HETATM   42  C13 UNL     1      25.456  26.989  31.602  1.00  0.00     0.292 A 
ATOM     43  H13 UNL     1      26.171  25.228  32.450  1.00  0.00     0.171 HD
HETATM   44  O5  UNL     1      25.138  27.527  32.697  1.00  0.00    -0.264 OA
BRANCH  33  45
HETATM   45  N4  UNL     1      27.303  23.604  26.741  1.00  0.00    -0.323 N 
ATOM     46  H42 UNL     1      28.040  22.901  26.682  1.00  0.00     0.178 HD
ATOM     47  H41 UNL     1      26.810  23.906  25.900  1.00  0.00     0.178 HD
ENDBRANCH  33  45
ENDBRANCH   1  27
TORSDOF 12
ENDMDL
MODEL 5
REMARK VINA RESULT: -7.289045414      3.293      6.222
REMARK  12 active torsions:
REMARK  status: ('A' for Active; 'I' for Inactive)
REMARK    1  A    between atoms: N3_7  and  N4_8 
REMARK    2  A    between atoms: C5_16  and  N7_17 
REMARK    3  A    between atoms: N8_19  and  N9_21 
REMARK    4  A    between atoms: C7_26  and  O1_27 
REMARK    5  A    between atoms: C8_29  and  C9_30 
REMARK    6  A    between atoms: C9_30  and  C10_31 
REMARK    7  A    between atoms: C10_31  and  O2_32 
REMARK    8  A    between atoms: N11_34  and  C11_35 
REMARK    9  A    between atoms: C11_35  and  C12_36 
REMARK   10  A    between atoms: C12_36  and  O3_37 
REMARK   11  A    between atoms: C12_36  and  O4_39 
REMARK   12  A    between atoms: O4_39  and  N12_40 
ROOT
HETATM    1  N7  UNL     1      24.925  29.402  30.252  1.00  0.00    -0.266 N 
ATOM      2  H7  UNL     1      23.928  29.612  30.201  1.00  0.00     0.190 HD
HETATM    3  N8  UNL     1      25.772  30.345  30.206  1.00  0.00    -0.227 N 
ATOM      4  H8  UNL     1      26.770  30.141  30.257  1.00  0.00     0.209 HD
ENDROOT
BRANCH   3   5
HETATM    5  N9  UNL     1      25.328  31.674  30.084  1.00  0.00    -0.117 N 
HETATM    6  C6  UNL     1      24.843  32.314  31.097  1.00  0.00     0.702 A 
HETATM    7  N10 UNL     1      24.723  31.775  32.341  1.00  0.00    -0.167 N 
HETATM    8  N11 UNL     1      24.378  33.554  31.181  1.00  0.00    -0.176 N 
HETATM    9  C7  UNL     1      24.188  32.674  33.183  1.00  0.00     0.179 A 
ATOM     10  H10 UNL     1      25.000  30.827  32.597  1.00  0.00     0.186 HD
HETATM   11  C8  UNL     1      23.971  33.805  32.439  1.00  0.00     0.082 A 
ATOM     12  H9  UNL     1      25.390  32.141  29.180  1.00  0.00     0.207 HD
BRANCH   9  13
HETATM   13  O1  UNL     1      23.939  32.426  34.524  1.00  0.00    -0.344 OA
ATOM     14  H1  UNL     1      24.188  31.626  34.971  1.00  0.00     0.219 HD
ENDBRANCH   9  13
BRANCH  11  15
HETATM   15  C9  UNL     1      23.387  35.055  32.981  1.00  0.00     0.088 C 
BRANCH  15  16
HETATM   16  C10 UNL     1      21.865  35.019  32.983  1.00  0.00     0.170 C 
BRANCH  16  17
HETATM   17  O2  UNL     1      21.467  34.313  34.110  1.00  0.00    -0.400 OA
ATOM     18  H2  UNL     1      20.747  33.748  33.853  1.00  0.00     0.209 HD
ENDBRANCH  16  17
ENDBRANCH  15  16
ENDBRANCH  11  15
BRANCH   8  19
HETATM   19  C11 UNL     1      24.311  34.495  30.103  1.00  0.00     0.210 C 
BRANCH  19  20
HETATM   20  C12 UNL     1      25.693  34.885  29.599  1.00  0.00     0.303 C 
BRANCH  20  21
HETATM   21  O3  UNL     1      25.700  36.200  29.141  1.00  0.00    -0.367 OA
ATOM     22  H3  UNL     1      26.183  36.762  29.735  1.00  0.00     0.212 HD
ENDBRANCH  20  21
BRANCH  20  23
HETATM   23  O4  UNL     1      26.100  34.064  28.562  1.00  0.00    -0.253 OA
BRANCH  23  24
HETATM   24  N12 UNL     1      26.795  34.801  27.662  1.00  0.00    -0.308 N 
ATOM     25 2H12 UNL     1      26.473  35.020  26.719  1.00  0.00     0.184 HD
ATOM     26 1H12 UNL     1      27.678  35.092  28.081  1.00  0.00     0.184 HD
ENDBRANCH  23  24
ENDBRANCH  20  23
ENDBRANCH  19  20
ENDBRANCH   8  19
ENDBRANCH   3   5
BRANCH   1  27
HETATM   27  C5  UNL     1      25.361  28.050  30.375  1.00  0.00     0.191 A 
HETATM   28  N6  UNL     1      25.713  27.374  29.268  1.00  0.00    -0.331 N 
HETATM   29  C4  UNL     1      26.125  26.097  29.413  1.00  0.00     0.123 A 
ATOM     30  H6  UNL     1      25.670  27.812  28.348  1.00  0.00     0.168 HD
HETATM   31  C3  UNL     1      26.490  25.386  28.275  1.00  0.00     0.186 A 
HETATM   32  C14 UNL     1      26.206  25.449  30.621  1.00  0.00     0.156 A 
HETATM   33  N3  UNL     1      26.905  24.113  28.367  1.00  0.00    -0.076 N 
HETATM   34  N5  UNL     1      26.428  26.001  26.992  1.00  0.00    -0.077 NA
HETATM   35  C2  UNL     1      26.976  23.500  29.574  1.00  0.00     0.701 A 
HETATM   36  N1  UNL     1      26.624  24.175  30.711  1.00  0.00    -0.169 N 
HETATM   37  N2  UNL     1      27.376  22.277  29.574  1.00  0.00    -0.233 N 
HETATM   38  C1  UNL     1      26.744  23.433  31.929  1.00  0.00     0.177 C 
ATOM     39  H22 UNL     1      27.429  21.816  30.482  1.00  0.00     0.174 HD
ATOM     40  H21 UNL     1      27.638  21.773  28.727  1.00  0.00     0.174 HD
HETATM   41  N13 UNL     1      25.856  26.121  31.727  1.00  0.00    -0.304 N 
HETATM   42  C13 UNL     1      25.438  27.413  31.593  1.00  0.00     0.292 A 
ATOM     43  H13 UNL     1      25.901  25.678  32.644  1.00  0.00     0.171 HD
HETATM   44  O5  UNL     1      25.100  28.080  32.607  1.00  0.00    -0.264 OA
BRANCH  33  45
HETATM   45  N4  UNL     1      27.266  23.422  27.207  1.00  0.00    -0.323 N 
ATOM     46  H42 UNL     1      26.878  23.712  26.308  1.00  0.00     0.178 HD
ATOM     47  H41 UNL     1      27.912  22.635  27.260  1.00  0.00     0.178 HD
ENDBRANCH  33  45
ENDBRANCH   1  27
TORSDOF 12
ENDMDL
