MODEL 1
REMARK VINA RESULT: -7.782680051      0.000      0.000
REMARK  13 active torsions:
REMARK  status: ('A' for Active; 'I' for Inactive)
REMARK    1  A    between atoms: C2_2  and  N1_3 
REMARK    2  A    between atoms: C2_2  and  C3_7 
REMARK    3  A    between atoms: C3_7  and  O2_9 
REMARK    4  A    between atoms: O2_9  and  C4_10 
REMARK    5  A    between atoms: C4_10  and  C5_11 
REMARK    6  A    between atoms: C6_12  and  O3_13 
REMARK    7  A    between atoms: C8_17  and  O5_18 
REMARK    8  A    between atoms: C9_20  and  N2_21 
REMARK       I    between atoms: N2_21  and  C10_23 
REMARK    9  A    between atoms: C10_23  and  C11_25 
REMARK   10  A    between atoms: C12_28  and  C13_29 
REMARK   11  A    between atoms: C13_29  and  N5_31 
REMARK   12  A    between atoms: N5_31  and  N6_33 
REMARK   13  A    between atoms: N8_39  and  N9_41 
ROOT
HETATM    1  N2  UNL     1      22.876  34.947  32.858  1.00  0.00    -0.304 N 
ATOM      2  H2  UNL     1      23.623  35.404  32.334  1.00  0.00     0.171 HD
HETATM    3  C10 UNL     1      22.899  33.582  32.802  1.00  0.00     0.291 C 
HETATM    4  O6  UNL     1      22.197  32.768  33.431  1.00  0.00    -0.264 OA
ENDROOT
BRANCH   1   5
HETATM    5  C9  UNL     1      21.995  35.836  33.518  1.00  0.00     0.148 A 
HETATM    6  C8  UNL     1      22.029  36.143  34.857  1.00  0.00     0.164 A 
HETATM    7  C7  UNL     1      21.043  36.980  35.414  1.00  0.00     0.243 A 
HETATM    8  C6  UNL     1      20.043  37.506  34.675  1.00  0.00     0.144 A 
HETATM    9  O4  UNL     1      21.107  37.238  36.642  1.00  0.00    -0.282 OA
HETATM   10  C5  UNL     1      20.017  37.186  33.315  1.00  0.00     0.075 A 
HETATM   11  N11 UNL     1      20.959  36.392  32.784  1.00  0.00    -0.334 N 
HETATM   12  C15 UNL     1      20.932  36.109  31.362  1.00  0.00     0.158 C 
BRANCH   6  13
HETATM   13  O5  UNL     1      23.005  35.661  35.694  1.00  0.00    -0.354 OA
ATOM     14  H5  UNL     1      23.152  34.722  35.706  1.00  0.00     0.218 HD
ENDBRANCH   6  13
BRANCH   8  15
HETATM   15  O3  UNL     1      19.075  38.330  35.237  1.00  0.00    -0.355 OA
ATOM     16  H3  UNL     1      19.315  39.041  35.818  1.00  0.00     0.218 HD
ENDBRANCH   8  15
BRANCH  10  17
HETATM   17  C4  UNL     1      18.805  37.682  32.600  1.00  0.00     0.239 C 
BRANCH  17  18
HETATM   18  O2  UNL     1      17.672  36.907  33.020  1.00  0.00    -0.314 OA
BRANCH  18  19
HETATM   19  C3  UNL     1      16.398  37.438  32.988  1.00  0.00     0.289 C 
HETATM   20  O1  UNL     1      16.158  38.511  33.616  1.00  0.00    -0.263 OA
BRANCH  19  21
HETATM   21  C2  UNL     1      15.346  36.718  32.202  1.00  0.00     0.278 C 
HETATM   22  C1  UNL     1      14.271  37.709  31.746  1.00  0.00     0.050 C 
BRANCH  21  23
HETATM   23  N1  UNL     1      14.734  35.767  33.122  1.00  0.00    -0.066 N 
ATOM     24  H13 UNL     1      14.030  36.199  33.721  1.00  0.00     0.275 HD
ATOM     25  H12 UNL     1      14.123  35.101  32.649  1.00  0.00     0.275 HD
ATOM     26  H11 UNL     1      15.475  35.311  33.654  1.00  0.00     0.275 HD
ENDBRANCH  21  23
ENDBRANCH  19  21
ENDBRANCH  18  19
ENDBRANCH  17  18
ENDBRANCH  10  17
ENDBRANCH   1   5
BRANCH   3  27
HETATM   27  C11 UNL     1      23.867  32.899  31.871  1.00  0.00     0.191 A 
HETATM   28  N3  UNL     1      24.043  31.572  31.930  1.00  0.00    -0.320 N 
HETATM   29  C12 UNL     1      24.867  30.888  31.091  1.00  0.00     0.165 A 
ATOM     30  H3  UNL     1      23.532  31.046  32.640  1.00  0.00     0.169 HD
HETATM   31  N7  UNL     1      25.528  31.615  30.165  1.00  0.00    -0.172 N 
HETATM   32  C14 UNL     1      25.386  32.935  30.070  1.00  0.00     0.699 A 
ATOM     33  H7  UNL     1      26.156  31.138  29.518  1.00  0.00     0.186 HD
HETATM   34  N8  UNL     1      26.047  33.612  29.179  1.00  0.00    -0.138 N 
HETATM   35  N10 UNL     1      24.542  33.570  30.941  1.00  0.00    -0.170 N 
ATOM     36  H8  UNL     1      26.693  33.169  28.525  1.00  0.00     0.205 HD
ATOM     37  H10 UNL     1      24.428  34.581  30.875  1.00  0.00     0.186 HD
BRANCH  29  38
HETATM   38  C13 UNL     1      25.035  29.453  31.218  1.00  0.00     0.175 C 
HETATM   39  N4  UNL     1      25.080  28.666  30.037  1.00  0.00    -0.077 NA
BRANCH  38  40
HETATM   40  N5  UNL     1      25.121  28.910  32.365  1.00  0.00    -0.291 N 
ATOM     41  H5  UNL     1      24.925  29.514  33.162  1.00  0.00     0.187 HD
BRANCH  40  42
HETATM   42  N6  UNL     1      25.451  27.595  32.664  1.00  0.00    -0.344 N 
ATOM     43  H62 UNL     1      26.428  27.350  32.501  1.00  0.00     0.176 HD
ATOM     44  H61 UNL     1      24.840  26.860  33.020  1.00  0.00     0.176 HD
ENDBRANCH  40  42
ENDBRANCH  38  40
ENDBRANCH  29  38
BRANCH  34  45
HETATM   45  N9  UNL     1      25.805  35.023  29.179  1.00  0.00    -0.331 N 
ATOM     46  H92 UNL     1      25.127  35.446  29.813  1.00  0.00     0.177 HD
ATOM     47  H91 UNL     1      26.354  35.560  28.508  1.00  0.00     0.177 HD
ENDBRANCH  34  45
ENDBRANCH   3  27
TORSDOF 13
ENDMDL
MODEL 2
REMARK VINA RESULT: -7.562627400      4.023     10.051
REMARK  13 active torsions:
REMARK  status: ('A' for Active; 'I' for Inactive)
REMARK    1  A    between atoms: C2_2  and  N1_3 
REMARK    2  A    between atoms: C2_2  and  C3_7 
REMARK    3  A    between atoms: C3_7  and  O2_9 
REMARK    4  A    between atoms: O2_9  and  C4_10 
REMARK    5  A    between atoms: C4_10  and  C5_11 
REMARK    6  A    between atoms: C6_12  and  O3_13 
REMARK    7  A    between atoms: C8_17  and  O5_18 
REMARK    8  A    between atoms: C9_20  and  N2_21 
REMARK       I    between atoms: N2_21  and  C10_23 
REMARK    9  A    between atoms: C10_23  and  C11_25 
REMARK   10  A    between atoms: C12_28  and  C13_29 
REMARK   11  A    between atoms: C13_29  and  N5_31 
REMARK   12  A    between atoms: N5_31  and  N6_33 
REMARK   13  A    between atoms: N8_39  and  N9_41 
ROOT
HETATM    1  N2  UNL     1      24.319  33.063  30.698  1.00  0.00    -0.304 N 
ATOM      2  H2  UNL     1      23.512  33.114  30.076  1.00  0.00     0.171 HD
HETATM    3  C10 UNL     1      24.229  33.855  31.809  1.00  0.00     0.291 C 
HETATM    4  O6  UNL     1      24.995  33.907  32.789  1.00  0.00    -0.264 OA
ENDROOT
BRANCH   1   5
HETATM    5  C9  UNL     1      25.340  32.185  30.264  1.00  0.00     0.148 A 
HETATM    6  C8  UNL     1      26.298  32.481  29.324  1.00  0.00     0.164 A 
HETATM    7  C7  UNL     1      27.212  31.491  28.914  1.00  0.00     0.243 A 
HETATM    8  C6  UNL     1      27.190  30.237  29.413  1.00  0.00     0.144 A 
HETATM    9  O4  UNL     1      28.074  31.799  28.052  1.00  0.00    -0.282 OA
HETATM   10  C5  UNL     1      26.211  29.947  30.368  1.00  0.00     0.075 A 
HETATM   11  N11 UNL     1      25.342  30.891  30.761  1.00  0.00    -0.334 N 
HETATM   12  C15 UNL     1      24.362  30.575  31.783  1.00  0.00     0.158 C 
BRANCH   6  13
HETATM   13  O5  UNL     1      26.406  33.725  28.756  1.00  0.00    -0.354 OA
ATOM     14  H5  UNL     1      25.876  34.425  29.119  1.00  0.00     0.218 HD
ENDBRANCH   6  13
BRANCH   8  15
HETATM   15  O3  UNL     1      28.096  29.269  28.999  1.00  0.00    -0.355 OA
ATOM     16  H3  UNL     1      28.666  29.419  28.255  1.00  0.00     0.218 HD
ENDBRANCH   8  15
BRANCH  10  17
HETATM   17  C4  UNL     1      26.156  28.509  30.760  1.00  0.00     0.239 C 
BRANCH  17  18
HETATM   18  O2  UNL     1      25.612  27.753  29.668  1.00  0.00    -0.314 OA
BRANCH  18  19
HETATM   19  C3  UNL     1      25.996  26.444  29.450  1.00  0.00     0.289 C 
HETATM   20  O1  UNL     1      26.205  25.687  30.444  1.00  0.00    -0.263 OA
BRANCH  19  21
HETATM   21  C2  UNL     1      26.147  25.971  28.037  1.00  0.00     0.278 C 
HETATM   22  C1  UNL     1      26.546  24.494  28.026  1.00  0.00     0.050 C 
BRANCH  21  23
HETATM   23  N1  UNL     1      27.242  26.747  27.467  1.00  0.00    -0.066 N 
ATOM     24  H13 UNL     1      26.951  27.682  27.179  1.00  0.00     0.275 HD
ATOM     25  H12 UNL     1      27.932  27.025  28.165  1.00  0.00     0.275 HD
ATOM     26  H11 UNL     1      27.652  26.212  26.702  1.00  0.00     0.275 HD
ENDBRANCH  21  23
ENDBRANCH  19  21
ENDBRANCH  18  19
ENDBRANCH  17  18
ENDBRANCH  10  17
ENDBRANCH   1   5
BRANCH   3  27
HETATM   27  C11 UNL     1      23.083  34.827  31.929  1.00  0.00     0.191 A 
HETATM   28  N3  UNL     1      22.513  35.059  33.119  1.00  0.00    -0.320 N 
HETATM   29  C12 UNL     1      21.506  35.955  33.304  1.00  0.00     0.165 A 
ATOM     30  H3  UNL     1      22.852  34.538  33.928  1.00  0.00     0.169 HD
HETATM   31  N7  UNL     1      21.083  36.625  32.212  1.00  0.00    -0.172 N 
HETATM   32  C14 UNL     1      21.618  36.427  31.010  1.00  0.00     0.699 A 
ATOM     33  H7  UNL     1      20.329  37.305  32.311  1.00  0.00     0.186 HD
HETATM   34  N8  UNL     1      21.180  37.075  29.972  1.00  0.00    -0.138 N 
HETATM   35  N10 UNL     1      22.629  35.513  30.882  1.00  0.00    -0.170 N 
ATOM     36  H8  UNL     1      20.419  37.752  30.032  1.00  0.00     0.205 HD
ATOM     37  H10 UNL     1      23.044  35.354  29.965  1.00  0.00     0.186 HD
BRANCH  29  38
HETATM   38  C13 UNL     1      20.912  36.146  34.613  1.00  0.00     0.175 C 
HETATM   39  N4  UNL     1      20.473  35.003  35.334  1.00  0.00    -0.077 NA
BRANCH  38  40
HETATM   40  N5  UNL     1      20.773  37.313  35.098  1.00  0.00    -0.291 N 
ATOM     41  H5  UNL     1      20.556  38.053  34.430  1.00  0.00     0.187 HD
BRANCH  40  42
HETATM   42  N6  UNL     1      20.878  37.705  36.426  1.00  0.00    -0.344 N 
ATOM     43  H62 UNL     1      21.501  38.495  36.591  1.00  0.00     0.176 HD
ATOM     44  H61 UNL     1      20.414  37.300  37.239  1.00  0.00     0.176 HD
ENDBRANCH  40  42
ENDBRANCH  38  40
ENDBRANCH  29  38
BRANCH  34  45
HETATM   45  N9  UNL     1      21.839  36.771  28.738  1.00  0.00    -0.331 N 
ATOM     46  H92 UNL     1      22.805  36.444  28.717  1.00  0.00     0.177 HD
ATOM     47  H91 UNL     1      21.277  36.906  27.898  1.00  0.00     0.177 HD
ENDBRANCH  34  45
ENDBRANCH   3  27
TORSDOF 13
ENDMDL
MODEL 3
REMARK VINA RESULT: -7.510872449      0.614      2.953
REMARK  13 active torsions:
REMARK  status: ('A' for Active; 'I' for Inactive)
REMARK    1  A    between atoms: C2_2  and  N1_3 
REMARK    2  A    between atoms: C2_2  and  C3_7 
REMARK    3  A    between atoms: C3_7  and  O2_9 
REMARK    4  A    between atoms: O2_9  and  C4_10 
REMARK    5  A    between atoms: C4_10  and  C5_11 
REMARK    6  A    between atoms: C6_12  and  O3_13 
REMARK    7  A    between atoms: C8_17  and  O5_18 
REMARK    8  A    between atoms: C9_20  and  N2_21 
REMARK       I    between atoms: N2_21  and  C10_23 
REMARK    9  A    between atoms: C10_23  and  C11_25 
REMARK   10  A    between atoms: C12_28  and  C13_29 
REMARK   11  A    between atoms: C13_29  and  N5_31 
REMARK   12  A    between atoms: N5_31  and  N6_33 
REMARK   13  A    between atoms: N8_39  and  N9_41 
ROOT
HETATM    1  N2  UNL     1      22.891  34.893  33.024  1.00  0.00    -0.304 N 
ATOM      2  H2  UNL     1      23.676  35.350  32.560  1.00  0.00     0.171 HD
HETATM    3  C10 UNL     1      22.885  33.531  32.919  1.00  0.00     0.291 C 
HETATM    4  O6  UNL     1      22.130  32.713  33.478  1.00  0.00    -0.264 OA
ENDROOT
BRANCH   1   5
HETATM    5  C9  UNL     1      21.994  35.780  33.666  1.00  0.00     0.148 A 
HETATM    6  C8  UNL     1      21.974  36.055  35.013  1.00  0.00     0.164 A 
HETATM    7  C7  UNL     1      20.976  36.894  35.545  1.00  0.00     0.243 A 
HETATM    8  C6  UNL     1      20.017  37.452  34.777  1.00  0.00     0.144 A 
HETATM    9  O4  UNL     1      20.990  37.123  36.781  1.00  0.00    -0.282 OA
HETATM   10  C5  UNL     1      20.046  37.165  33.409  1.00  0.00     0.075 A 
HETATM   11  N11 UNL     1      21.000  36.368  32.901  1.00  0.00    -0.334 N 
HETATM   12  C15 UNL     1      21.031  36.119  31.473  1.00  0.00     0.158 C 
BRANCH   6  13
HETATM   13  O5  UNL     1      22.904  35.539  35.879  1.00  0.00    -0.354 OA
ATOM     14  H5  UNL     1      23.088  34.608  35.827  1.00  0.00     0.218 HD
ENDBRANCH   6  13
BRANCH   8  15
HETATM   15  O3  UNL     1      19.037  38.277  35.315  1.00  0.00    -0.355 OA
ATOM     16  H3  UNL     1      18.713  39.029  34.835  1.00  0.00     0.218 HD
ENDBRANCH   8  15
BRANCH  10  17
HETATM   17  C4  UNL     1      18.874  37.695  32.654  1.00  0.00     0.239 C 
BRANCH  17  18
HETATM   18  O2  UNL     1      17.713  36.928  33.006  1.00  0.00    -0.314 OA
BRANCH  18  19
HETATM   19  C3  UNL     1      16.454  37.495  32.982  1.00  0.00     0.289 C 
HETATM   20  O1  UNL     1      16.241  38.558  33.637  1.00  0.00    -0.263 OA
BRANCH  19  21
HETATM   21  C2  UNL     1      15.385  36.824  32.175  1.00  0.00     0.278 C 
HETATM   22  C1  UNL     1      14.346  37.857  31.733  1.00  0.00     0.050 C 
BRANCH  21  23
HETATM   23  N1  UNL     1      14.737  35.875  33.072  1.00  0.00    -0.066 N 
ATOM     24  H13 UNL     1      14.763  34.919  32.717  1.00  0.00     0.275 HD
ATOM     25  H12 UNL     1      15.269  35.719  33.929  1.00  0.00     0.275 HD
ATOM     26  H11 UNL     1      13.788  36.200  33.254  1.00  0.00     0.275 HD
ENDBRANCH  21  23
ENDBRANCH  19  21
ENDBRANCH  18  19
ENDBRANCH  17  18
ENDBRANCH  10  17
ENDBRANCH   1   5
BRANCH   3  27
HETATM   27  C11 UNL     1      23.889  32.857  32.019  1.00  0.00     0.191 A 
HETATM   28  N3  UNL     1      24.466  33.537  31.019  1.00  0.00    -0.320 N 
HETATM   29  C12 UNL     1      25.411  33.002  30.199  1.00  0.00     0.165 A 
ATOM     30  H3  UNL     1      24.184  34.505  30.865  1.00  0.00     0.169 HD
HETATM   31  N7  UNL     1      25.759  31.719  30.431  1.00  0.00    -0.172 N 
HETATM   32  C14 UNL     1      25.212  31.004  31.411  1.00  0.00     0.699 A 
ATOM     33  H7  UNL     1      26.463  31.283  29.836  1.00  0.00     0.186 HD
HETATM   34  N8  UNL     1      25.554  29.765  31.602  1.00  0.00    -0.138 N 
HETATM   35  N10 UNL     1      24.266  31.594  32.206  1.00  0.00    -0.170 N 
ATOM     36  H8  UNL     1      26.246  29.294  31.019  1.00  0.00     0.205 HD
ATOM     37  H10 UNL     1      23.841  31.054  32.960  1.00  0.00     0.186 HD
BRANCH  29  38
HETATM   38  C13 UNL     1      25.983  33.780  29.118  1.00  0.00     0.175 C 
HETATM   39  N4  UNL     1      27.008  33.196  28.327  1.00  0.00    -0.077 NA
BRANCH  38  40
HETATM   40  N5  UNL     1      25.587  34.968  28.893  1.00  0.00    -0.291 N 
ATOM     41  H5  UNL     1      24.603  35.073  28.649  1.00  0.00     0.187 HD
BRANCH  40  42
HETATM   42  N6  UNL     1      26.332  36.139  28.940  1.00  0.00    -0.344 N 
ATOM     43  H62 UNL     1      25.981  36.844  29.587  1.00  0.00     0.176 HD
ATOM     44  H61 UNL     1      27.173  36.370  28.410  1.00  0.00     0.176 HD
ENDBRANCH  40  42
ENDBRANCH  38  40
ENDBRANCH  29  38
BRANCH  34  45
HETATM   45  N9  UNL     1      24.894  29.108  32.689  1.00  0.00    -0.331 N 
ATOM     46  H92 UNL     1      23.876  29.061  32.743  1.00  0.00     0.177 HD
ATOM     47  H91 UNL     1      25.510  28.700  33.392  1.00  0.00     0.177 HD
ENDBRANCH  34  45
ENDBRANCH   3  27
TORSDOF 13
ENDMDL
MODEL 4
REMARK VINA RESULT: -7.457073482      3.013      4.677
REMARK  13 active torsions:
REMARK  status: ('A' for Active; 'I' for Inactive)
REMARK    1  A    between atoms: C2_2  and  N1_3 
REMARK    2  A    between atoms: C2_2  and  C3_7 
REMARK    3  A    between atoms: C3_7  and  O2_9 
REMARK    4  A    between atoms: O2_9  and  C4_10 
REMARK    5  A    between atoms: C4_10  and  C5_11 
REMARK    6  A    between atoms: C6_12  and  O3_13 
REMARK    7  A    between atoms: C8_17  and  O5_18 
REMARK    8  A    between atoms: C9_20  and  N2_21 
REMARK       I    between atoms: N2_21  and  C10_23 
REMARK    9  A    between atoms: C10_23  and  C11_25 
REMARK   10  A    between atoms: C12_28  and  C13_29 
REMARK   11  A    between atoms: C13_29  and  N5_31 
REMARK   12  A    between atoms: N5_31  and  N6_33 
REMARK   13  A    between atoms: N8_39  and  N9_41 
ROOT
HETATM    1  N2  UNL     1      23.277  34.785  29.943  1.00  0.00    -0.304 N 
ATOM      2  H2  UNL     1      22.785  33.909  30.120  1.00  0.00     0.171 HD
HETATM    3  C10 UNL     1      24.626  34.652  29.772  1.00  0.00     0.291 C 
HETATM    4  O6  UNL     1      25.454  35.518  29.428  1.00  0.00    -0.264 OA
ENDROOT
BRANCH   1   5
HETATM    5  C9  UNL     1      22.445  35.928  29.915  1.00  0.00     0.148 A 
HETATM    6  C8  UNL     1      22.370  36.835  28.885  1.00  0.00     0.164 A 
HETATM    7  C7  UNL     1      21.562  37.982  29.012  1.00  0.00     0.243 A 
HETATM    8  C6  UNL     1      20.842  38.237  30.125  1.00  0.00     0.144 A 
HETATM    9  O4  UNL     1      21.520  38.788  28.049  1.00  0.00    -0.282 OA
HETATM   10  C5  UNL     1      20.926  37.309  31.167  1.00  0.00     0.075 A 
HETATM   11  N11 UNL     1      21.693  36.214  31.044  1.00  0.00    -0.334 N 
HETATM   12  C15 UNL     1      21.730  35.247  32.124  1.00  0.00     0.158 C 
BRANCH   6  13
HETATM   13  O5  UNL     1      23.062  36.667  27.712  1.00  0.00    -0.354 OA
ATOM     14  H5  UNL     1      23.661  37.356  27.449  1.00  0.00     0.218 HD
ENDBRANCH   6  13
BRANCH   8  15
HETATM   15  O3  UNL     1      20.050  39.372  30.238  1.00  0.00    -0.355 OA
ATOM     16  H3  UNL     1      19.108  39.325  30.134  1.00  0.00     0.218 HD
ENDBRANCH   8  15
BRANCH  10  17
HETATM   17  C4  UNL     1      20.223  37.733  32.413  1.00  0.00     0.239 C 
BRANCH  17  18
HETATM   18  O2  UNL     1      20.989  38.769  33.045  1.00  0.00    -0.314 OA
BRANCH  18  19
HETATM   19  C3  UNL     1      21.763  38.501  34.157  1.00  0.00     0.289 C 
HETATM   20  O1  UNL     1      22.672  39.317  34.489  1.00  0.00    -0.263 OA
BRANCH  19  21
HETATM   21  C2  UNL     1      21.491  37.247  34.929  1.00  0.00     0.278 C 
HETATM   22  C1  UNL     1      20.991  37.602  36.332  1.00  0.00     0.050 C 
BRANCH  21  23
HETATM   23  N1  UNL     1      22.773  36.565  35.058  1.00  0.00    -0.066 N 
ATOM     24  H13 UNL     1      22.670  35.579  35.300  1.00  0.00     0.275 HD
ATOM     25  H12 UNL     1      23.243  36.440  34.161  1.00  0.00     0.275 HD
ATOM     26  H11 UNL     1      23.345  37.077  35.731  1.00  0.00     0.275 HD
ENDBRANCH  21  23
ENDBRANCH  19  21
ENDBRANCH  18  19
ENDBRANCH  17  18
ENDBRANCH  10  17
ENDBRANCH   1   5
BRANCH   3  27
HETATM   27  C11 UNL     1      25.273  33.315  30.026  1.00  0.00     0.191 A 
HETATM   28  N3  UNL     1      24.910  32.576  31.083  1.00  0.00    -0.320 N 
HETATM   29  C12 UNL     1      25.422  31.343  31.345  1.00  0.00     0.165 A 
ATOM     30  H3  UNL     1      24.214  32.957  31.724  1.00  0.00     0.169 HD
HETATM   31  N7  UNL     1      26.342  30.871  30.477  1.00  0.00    -0.172 N 
HETATM   32  C14 UNL     1      26.734  31.570  29.414  1.00  0.00     0.699 A 
ATOM     33  H7  UNL     1      26.749  29.951  30.641  1.00  0.00     0.186 HD
HETATM   34  N8  UNL     1      27.633  31.098  28.603  1.00  0.00    -0.138 N 
HETATM   35  N10 UNL     1      26.184  32.805  29.200  1.00  0.00    -0.170 N 
ATOM     36  H8  UNL     1      28.071  30.187  28.744  1.00  0.00     0.205 HD
ATOM     37  H10 UNL     1      26.480  33.348  28.389  1.00  0.00     0.186 HD
BRANCH  29  38
HETATM   38  C13 UNL     1      25.007  30.600  32.519  1.00  0.00     0.175 C 
HETATM   39  N4  UNL     1      24.921  29.184  32.433  1.00  0.00    -0.077 NA
BRANCH  38  40
HETATM   40  N5  UNL     1      24.710  31.204  33.597  1.00  0.00    -0.291 N 
ATOM     41  H5  UNL     1      24.026  31.956  33.515  1.00  0.00     0.187 HD
BRANCH  40  42
HETATM   42  N6  UNL     1      25.202  30.966  34.874  1.00  0.00    -0.344 N 
ATOM     43  H62 UNL     1      24.528  31.103  35.626  1.00  0.00     0.176 HD
ATOM     44  H61 UNL     1      26.143  30.675  35.139  1.00  0.00     0.176 HD
ENDBRANCH  40  42
ENDBRANCH  38  40
ENDBRANCH  29  38
BRANCH  34  45
HETATM   45  N9  UNL     1      27.967  31.946  27.499  1.00  0.00    -0.331 N 
ATOM     46  H92 UNL     1      28.157  32.940  27.630  1.00  0.00     0.177 HD
ATOM     47  H91 UNL     1      27.998  31.486  26.590  1.00  0.00     0.177 HD
ENDBRANCH  34  45
ENDBRANCH   3  27
TORSDOF 13
ENDMDL
MODEL 5
REMARK VINA RESULT: -7.353350888      2.620      3.596
REMARK  13 active torsions:
REMARK  status: ('A' for Active; 'I' for Inactive)
REMARK    1  A    between atoms: C2_2  and  N1_3 
REMARK    2  A    between atoms: C2_2  and  C3_7 
REMARK    3  A    between atoms: C3_7  and  O2_9 
REMARK    4  A    between atoms: O2_9  and  C4_10 
REMARK    5  A    between atoms: C4_10  and  C5_11 
REMARK    6  A    between atoms: C6_12  and  O3_13 
REMARK    7  A    between atoms: C8_17  and  O5_18 
REMARK    8  A    between atoms: C9_20  and  N2_21 
REMARK       I    between atoms: N2_21  and  C10_23 
REMARK    9  A    between atoms: C10_23  and  C11_25 
REMARK   10  A    between atoms: C12_28  and  C13_29 
REMARK   11  A    between atoms: C13_29  and  N5_31 
REMARK   12  A    between atoms: N5_31  and  N6_33 
REMARK   13  A    between atoms: N8_39  and  N9_41 
ROOT
HETATM    1  N2  UNL     1      23.166  34.654  30.253  1.00  0.00    -0.304 N 
ATOM      2  H2  UNL     1      22.713  33.781  30.523  1.00  0.00     0.171 HD
HETATM    3  C10 UNL     1      24.486  34.528  29.923  1.00  0.00     0.291 C 
HETATM    4  O6  UNL     1      25.252  35.388  29.448  1.00  0.00    -0.264 OA
ENDROOT
BRANCH   1   5
HETATM    5  C9  UNL     1      22.320  35.788  30.286  1.00  0.00     0.148 A 
HETATM    6  C8  UNL     1      22.123  36.665  29.246  1.00  0.00     0.164 A 
HETATM    7  C7  UNL     1      21.318  37.806  29.429  1.00  0.00     0.243 A 
HETATM    8  C6  UNL     1      20.718  38.085  30.606  1.00  0.00     0.144 A 
HETATM    9  O4  UNL     1      21.161  38.585  28.455  1.00  0.00    -0.282 OA
HETATM   10  C5  UNL     1      20.926  37.187  31.657  1.00  0.00     0.075 A 
HETATM   11  N11 UNL     1      21.690  36.097  31.481  1.00  0.00    -0.334 N 
HETATM   12  C15 UNL     1      21.856  35.161  32.576  1.00  0.00     0.158 C 
BRANCH   6  13
HETATM   13  O5  UNL     1      22.687  36.472  28.010  1.00  0.00    -0.354 OA
ATOM     14  H5  UNL     1      23.118  37.213  27.600  1.00  0.00     0.218 HD
ENDBRANCH   6  13
BRANCH   8  15
HETATM   15  O3  UNL     1      19.928  39.214  30.773  1.00  0.00    -0.355 OA
ATOM     16  H3  UNL     1      19.187  39.382  30.204  1.00  0.00     0.218 HD
ENDBRANCH   8  15
BRANCH  10  17
HETATM   17  C4  UNL     1      20.356  37.638  32.959  1.00  0.00     0.239 C 
BRANCH  17  18
HETATM   18  O2  UNL     1      18.980  37.237  33.024  1.00  0.00    -0.314 OA
BRANCH  18  19
HETATM   19  C3  UNL     1      17.983  38.158  33.279  1.00  0.00     0.289 C 
HETATM   20  O1  UNL     1      18.259  39.394  33.246  1.00  0.00    -0.263 OA
BRANCH  19  21
HETATM   21  C2  UNL     1      16.606  37.653  33.583  1.00  0.00     0.278 C 
HETATM   22  C1  UNL     1      16.286  36.454  32.688  1.00  0.00     0.050 C 
BRANCH  21  23
HETATM   23  N1  UNL     1      15.693  38.738  33.242  1.00  0.00    -0.066 N 
ATOM     24  H13 UNL     1      15.460  38.757  32.249  1.00  0.00     0.275 HD
ATOM     25  H12 UNL     1      14.751  38.586  33.603  1.00  0.00     0.275 HD
ATOM     26  H11 UNL     1      16.100  39.615  33.566  1.00  0.00     0.275 HD
ENDBRANCH  21  23
ENDBRANCH  19  21
ENDBRANCH  18  19
ENDBRANCH  17  18
ENDBRANCH  10  17
ENDBRANCH   1   5
BRANCH   3  27
HETATM   27  C11 UNL     1      25.179  33.209  30.146  1.00  0.00     0.191 A 
HETATM   28  N3  UNL     1      24.830  32.425  31.176  1.00  0.00    -0.320 N 
HETATM   29  C12 UNL     1      25.384  31.204  31.408  1.00  0.00     0.165 A 
ATOM     30  H3  UNL     1      24.112  32.761  31.819  1.00  0.00     0.169 HD
HETATM   31  N7  UNL     1      26.330  30.793  30.538  1.00  0.00    -0.172 N 
HETATM   32  C14 UNL     1      26.709  31.537  29.502  1.00  0.00     0.699 A 
ATOM     33  H7  UNL     1      26.769  29.883  30.680  1.00  0.00     0.186 HD
HETATM   34  N8  UNL     1      27.635  31.123  28.689  1.00  0.00    -0.138 N 
HETATM   35  N10 UNL     1      26.118  32.758  29.317  1.00  0.00    -0.170 N 
ATOM     36  H8  UNL     1      28.104  30.225  28.808  1.00  0.00     0.205 HD
ATOM     37  H10 UNL     1      26.402  33.335  28.526  1.00  0.00     0.186 HD
BRANCH  29  38
HETATM   38  C13 UNL     1      24.982  30.412  32.554  1.00  0.00     0.175 C 
HETATM   39  N4  UNL     1      24.981  28.996  32.435  1.00  0.00    -0.077 NA
BRANCH  38  40
HETATM   40  N5  UNL     1      24.622  30.973  33.636  1.00  0.00    -0.291 N 
ATOM     41  H5  UNL     1      23.766  31.526  33.591  1.00  0.00     0.187 HD
BRANCH  40  42
HETATM   42  N6  UNL     1      25.252  30.926  34.873  1.00  0.00    -0.344 N 
ATOM     43  H62 UNL     1      25.650  31.811  35.185  1.00  0.00     0.176 HD
ATOM     44  H61 UNL     1      25.360  30.122  35.493  1.00  0.00     0.176 HD
ENDBRANCH  40  42
ENDBRANCH  38  40
ENDBRANCH  29  38
BRANCH  34  45
HETATM   45  N9  UNL     1      27.950  32.015  27.615  1.00  0.00    -0.331 N 
ATOM     46  H92 UNL     1      28.489  32.868  27.772  1.00  0.00     0.177 HD
ATOM     47  H91 UNL     1      27.600  31.736  26.699  1.00  0.00     0.177 HD
ENDBRANCH  34  45
ENDBRANCH   3  27
TORSDOF 13
ENDMDL
