MODEL 1
REMARK VINA RESULT: -10.017063976      0.000      0.000
REMARK  4 active torsions:
REMARK  status: ('A' for Active; 'I' for Inactive)
REMARK    1  A    between atoms: C2_2  and  C3_3 
REMARK    2  A    between atoms: C3_3  and  C4_5 
REMARK    3  A    between atoms: C10_11  and  O2_12 
REMARK    4  A    between atoms: C15_20  and  O4_21 
ROOT
HETATM    1  C4  UNL     1      21.627   7.138  22.346  1.00  0.00     0.050 A 
HETATM    2  C5  UNL     1      22.362   6.008  22.520  1.00  0.00    -0.044 A 
HETATM    3  C6  UNL     1      22.359   5.316  23.861  1.00  0.00     0.049 C 
HETATM    4  C7  UNL     1      23.132   5.451  21.493  1.00  0.00     0.021 A 
HETATM    5  C8  UNL     1      23.195   6.006  20.247  1.00  0.00    -0.007 A 
HETATM    6  C9  UNL     1      22.469   7.137  20.047  1.00  0.00     0.060 A 
HETATM    7  C10 UNL     1      21.682   7.724  21.065  1.00  0.00     0.095 A 
HETATM    8  C11 UNL     1      22.492   7.776  18.745  1.00  0.00     0.198 A 
HETATM    9  O3  UNL     1      21.793   8.827  18.624  1.00  0.00    -0.286 OA
HETATM   10  C12 UNL     1      23.285   7.237  17.615  1.00  0.00     0.042 A 
HETATM   11  C13 UNL     1      23.313   7.834  16.382  1.00  0.00    -0.004 A 
HETATM   12  C14 UNL     1      22.595   9.089  15.922  1.00  0.00     0.057 C 
HETATM   13  S1  UNL     1      24.342   6.845  15.476  1.00  0.00    -0.069 SA
HETATM   14  C15 UNL     1      24.715   5.684  16.703  1.00  0.00     0.119 A 
HETATM   15  C16 UNL     1      24.008   6.122  17.792  1.00  0.00     0.031 A 
HETATM   16  C17 UNL     1      23.991   5.439  19.164  1.00  0.00    -0.000 A 
HETATM   17  C18 UNL     1      24.704   4.373  19.300  1.00  0.00     0.106 C 
HETATM   18  C19 UNL     1      24.974   3.474  20.327  1.00  0.00     0.088 C 
HETATM   19  N1  UNL     1      25.237   2.695  21.140  1.00  0.00    -0.192 NA
ENDROOT
BRANCH  14  20
HETATM   20  O4  UNL     1      25.570   4.600  16.464  1.00  0.00    -0.353 OA
ATOM     21  H4  UNL     1      26.287   4.652  15.843  1.00  0.00     0.218 HD
ENDBRANCH  14  20
BRANCH   7  22
HETATM   22  O2  UNL     1      21.016   8.806  20.789  1.00  0.00    -0.359 OA
ATOM     23  H2  UNL     1      20.954   9.520  21.414  1.00  0.00     0.217 HD
ENDBRANCH   7  22
BRANCH   1  24
HETATM   24  C3  UNL     1      20.817   7.762  23.358  1.00  0.00     0.162 C 
HETATM   25  O1  UNL     1      19.591   7.434  23.451  1.00  0.00    -0.292 OA
BRANCH  24  26
HETATM   26  C2  UNL     1      21.270   8.775  24.335  1.00  0.00     0.079 C 
HETATM   27  C1  UNL     1      20.859   8.381  25.759  1.00  0.00     0.013 C 
ENDBRANCH  24  26
ENDBRANCH   1  24
TORSDOF 4
ENDMDL
MODEL 2
REMARK VINA RESULT: -9.607976306      2.483      6.008
REMARK  4 active torsions:
REMARK  status: ('A' for Active; 'I' for Inactive)
REMARK    1  A    between atoms: C2_2  and  C3_3 
REMARK    2  A    between atoms: C3_3  and  C4_5 
REMARK    3  A    between atoms: C10_11  and  O2_12 
REMARK    4  A    between atoms: C15_20  and  O4_21 
ROOT
HETATM    1  C4  UNL     1      24.109   6.525  17.923  1.00  0.00     0.050 A 
HETATM    2  C5  UNL     1      24.571   5.288  18.243  1.00  0.00    -0.044 A 
HETATM    3  C6  UNL     1      25.438   4.539  17.263  1.00  0.00     0.049 C 
HETATM    4  C7  UNL     1      24.272   4.672  19.463  1.00  0.00     0.021 A 
HETATM    5  C8  UNL     1      23.496   5.273  20.412  1.00  0.00    -0.007 A 
HETATM    6  C9  UNL     1      23.021   6.511  20.115  1.00  0.00     0.060 A 
HETATM    7  C10 UNL     1      23.306   7.160  18.891  1.00  0.00     0.095 A 
HETATM    8  C11 UNL     1      22.191   7.205  21.082  1.00  0.00     0.198 A 
HETATM    9  O3  UNL     1      21.781   8.356  20.744  1.00  0.00    -0.286 OA
HETATM   10  C12 UNL     1      21.838   6.609  22.391  1.00  0.00     0.042 A 
HETATM   11  C13 UNL     1      21.055   7.257  23.311  1.00  0.00    -0.004 A 
HETATM   12  C14 UNL     1      20.415   8.630  23.207  1.00  0.00     0.057 C 
HETATM   13  S1  UNL     1      20.959   6.169  24.601  1.00  0.00    -0.069 SA
HETATM   14  C15 UNL     1      21.929   4.904  23.931  1.00  0.00     0.119 A 
HETATM   15  C16 UNL     1      22.297   5.389  22.704  1.00  0.00     0.031 A 
HETATM   16  C17 UNL     1      23.174   4.646  21.690  1.00  0.00    -0.000 A 
HETATM   17  C18 UNL     1      23.592   3.472  22.021  1.00  0.00     0.106 C 
HETATM   18  C19 UNL     1      24.374   2.484  21.430  1.00  0.00     0.088 C 
HETATM   19  N1  UNL     1      25.014   1.628  20.992  1.00  0.00    -0.192 NA
ENDROOT
BRANCH  14  20
HETATM   20  O4  UNL     1      22.181   3.714  24.627  1.00  0.00    -0.353 OA
ATOM     21  H4  UNL     1      22.969   3.203  24.483  1.00  0.00     0.218 HD
ENDBRANCH  14  20
BRANCH   7  22
HETATM   22  O2  UNL     1      22.812   8.345  18.687  1.00  0.00    -0.359 OA
ATOM     23  H2  UNL     1      21.897   8.466  18.460  1.00  0.00     0.217 HD
ENDBRANCH   7  22
BRANCH   1  24
HETATM   24  C3  UNL     1      24.377   7.213  16.687  1.00  0.00     0.162 C 
HETATM   25  O1  UNL     1      25.301   8.088  16.661  1.00  0.00    -0.292 OA
BRANCH  24  26
HETATM   26  C2  UNL     1      23.673   7.007  15.404  1.00  0.00     0.079 C 
HETATM   27  C1  UNL     1      22.925   8.279  14.983  1.00  0.00     0.013 C 
ENDBRANCH  24  26
ENDBRANCH   1  24
TORSDOF 4
ENDMDL
MODEL 3
REMARK VINA RESULT: -9.542697074      3.157      6.819
REMARK  4 active torsions:
REMARK  status: ('A' for Active; 'I' for Inactive)
REMARK    1  A    between atoms: C2_2  and  C3_3 
REMARK    2  A    between atoms: C3_3  and  C4_5 
REMARK    3  A    between atoms: C10_11  and  O2_12 
REMARK    4  A    between atoms: C15_20  and  O4_21 
ROOT
HETATM    1  C4  UNL     1      24.687   4.241  19.167  1.00  0.00     0.050 A 
HETATM    2  C5  UNL     1      24.359   5.215  18.278  1.00  0.00    -0.044 A 
HETATM    3  C6  UNL     1      24.910   5.162  16.875  1.00  0.00     0.049 C 
HETATM    4  C7  UNL     1      23.517   6.282  18.615  1.00  0.00     0.021 A 
HETATM    5  C8  UNL     1      22.971   6.414  19.859  1.00  0.00    -0.007 A 
HETATM    6  C9  UNL     1      23.284   5.452  20.766  1.00  0.00     0.060 A 
HETATM    7  C10 UNL     1      24.131   4.362  20.456  1.00  0.00     0.095 A 
HETATM    8  C11 UNL     1      22.735   5.533  22.107  1.00  0.00     0.198 A 
HETATM    9  O3  UNL     1      23.066   4.605  22.905  1.00  0.00    -0.286 OA
HETATM   10  C12 UNL     1      21.838   6.635  22.527  1.00  0.00     0.042 A 
HETATM   11  C13 UNL     1      21.314   6.720  23.791  1.00  0.00    -0.004 A 
HETATM   12  C14 UNL     1      21.518   5.777  24.963  1.00  0.00     0.057 C 
HETATM   13  S1  UNL     1      20.381   8.128  23.749  1.00  0.00    -0.069 SA
HETATM   14  C15 UNL     1      20.683   8.578  22.107  1.00  0.00     0.119 A 
HETATM   15  C16 UNL     1      21.517   7.593  21.647  1.00  0.00     0.031 A 
HETATM   16  C17 UNL     1      22.092   7.518  20.228  1.00  0.00    -0.000 A 
HETATM   17  C18 UNL     1      21.766   8.460  19.410  1.00  0.00     0.106 C 
HETATM   18  C19 UNL     1      22.051   8.778  18.085  1.00  0.00     0.088 C 
HETATM   19  N1  UNL     1      22.250   9.094  16.992  1.00  0.00    -0.192 NA
ENDROOT
BRANCH  14  20
HETATM   20  O4  UNL     1      20.119   9.728  21.537  1.00  0.00    -0.353 OA
ATOM     21  H4  UNL     1      19.235   9.735  21.192  1.00  0.00     0.218 HD
ENDBRANCH  14  20
BRANCH   7  22
HETATM   22  O2  UNL     1      24.380   3.485  21.384  1.00  0.00    -0.359 OA
ATOM     23  H2  UNL     1      25.167   2.954  21.362  1.00  0.00     0.217 HD
ENDBRANCH   7  22
BRANCH   1  24
HETATM   24  C3  UNL     1      25.546   3.121  18.886  1.00  0.00     0.162 C 
HETATM   25  O1  UNL     1      26.715   3.104  19.387  1.00  0.00    -0.292 OA
BRANCH  24  26
HETATM   26  C2  UNL     1      25.205   1.949  18.052  1.00  0.00     0.079 C 
HETATM   27  C1  UNL     1      23.736   1.552  18.245  1.00  0.00     0.013 C 
ENDBRANCH  24  26
ENDBRANCH   1  24
TORSDOF 4
ENDMDL
MODEL 4
REMARK VINA RESULT: -9.479265958      2.166      5.817
REMARK  4 active torsions:
REMARK  status: ('A' for Active; 'I' for Inactive)
REMARK    1  A    between atoms: C2_2  and  C3_3 
REMARK    2  A    between atoms: C3_3  and  C4_5 
REMARK    3  A    between atoms: C10_11  and  O2_12 
REMARK    4  A    between atoms: C15_20  and  O4_21 
ROOT
HETATM    1  C4  UNL     1      25.482   3.550  18.568  1.00  0.00     0.050 A 
HETATM    2  C5  UNL     1      24.970   3.611  19.826  1.00  0.00    -0.044 A 
HETATM    3  C6  UNL     1      25.376   2.577  20.847  1.00  0.00     0.049 C 
HETATM    4  C7  UNL     1      24.069   4.607  20.219  1.00  0.00     0.021 A 
HETATM    5  C8  UNL     1      23.645   5.583  19.365  1.00  0.00    -0.007 A 
HETATM    6  C9  UNL     1      24.142   5.545  18.101  1.00  0.00     0.060 A 
HETATM    7  C10 UNL     1      25.054   4.552  17.674  1.00  0.00     0.095 A 
HETATM    8  C11 UNL     1      23.733   6.556  17.145  1.00  0.00     0.198 A 
HETATM    9  O3  UNL     1      24.233   6.464  15.983  1.00  0.00    -0.286 OA
HETATM   10  C12 UNL     1      22.783   7.637  17.497  1.00  0.00     0.042 A 
HETATM   11  C13 UNL     1      22.390   8.596  16.600  1.00  0.00    -0.004 A 
HETATM   12  C14 UNL     1      22.803   8.759  15.149  1.00  0.00     0.057 C 
HETATM   13  S1  UNL     1      21.327   9.568  17.485  1.00  0.00    -0.069 SA
HETATM   14  C15 UNL     1      21.411   8.720  18.990  1.00  0.00     0.119 A 
HETATM   15  C16 UNL     1      22.281   7.693  18.739  1.00  0.00     0.031 A 
HETATM   16  C17 UNL     1      22.707   6.630  19.757  1.00  0.00    -0.000 A 
HETATM   17  C18 UNL     1      22.199   6.711  20.940  1.00  0.00     0.106 C 
HETATM   18  C19 UNL     1      22.300   5.986  22.124  1.00  0.00     0.088 C 
HETATM   19  N1  UNL     1      22.341   5.425  23.133  1.00  0.00    -0.192 NA
ENDROOT
BRANCH  14  20
HETATM   20  O4  UNL     1      20.682   9.132  20.115  1.00  0.00    -0.353 OA
ATOM     21  H4  UNL     1      20.289   8.509  20.714  1.00  0.00     0.218 HD
ENDBRANCH  14  20
BRANCH   7  22
HETATM   22  O2  UNL     1      25.482   4.588  16.446  1.00  0.00    -0.359 OA
ATOM     23  H2  UNL     1      24.967   4.228  15.734  1.00  0.00     0.217 HD
ENDBRANCH   7  22
BRANCH   1  24
HETATM   24  C3  UNL     1      26.409   2.554  18.100  1.00  0.00     0.162 C 
HETATM   25  O1  UNL     1      27.615   2.893  17.880  1.00  0.00    -0.292 OA
BRANCH  24  26
HETATM   26  C2  UNL     1      26.101   1.132  17.838  1.00  0.00     0.079 C 
HETATM   27  C1  UNL     1      24.627   0.956  17.452  1.00  0.00     0.013 C 
ENDBRANCH  24  26
ENDBRANCH   1  24
TORSDOF 4
ENDMDL
MODEL 5
REMARK VINA RESULT: -9.392046380      2.826      4.103
REMARK  4 active torsions:
REMARK  status: ('A' for Active; 'I' for Inactive)
REMARK    1  A    between atoms: C2_2  and  C3_3 
REMARK    2  A    between atoms: C3_3  and  C4_5 
REMARK    3  A    between atoms: C10_11  and  O2_12 
REMARK    4  A    between atoms: C15_20  and  O4_21 
ROOT
HETATM    1  C4  UNL     1      21.766   7.304  21.706  1.00  0.00     0.050 A 
HETATM    2  C5  UNL     1      20.961   8.217  21.100  1.00  0.00    -0.044 A 
HETATM    3  C6  UNL     1      19.900   8.925  21.904  1.00  0.00     0.049 C 
HETATM    4  C7  UNL     1      21.079   8.532  19.742  1.00  0.00     0.021 A 
HETATM    5  C8  UNL     1      22.011   7.943  18.935  1.00  0.00    -0.007 A 
HETATM    6  C9  UNL     1      22.827   7.027  19.518  1.00  0.00     0.060 A 
HETATM    7  C10 UNL     1      22.733   6.687  20.887  1.00  0.00     0.095 A 
HETATM    8  C11 UNL     1      23.840   6.366  18.716  1.00  0.00     0.198 A 
HETATM    9  O3  UNL     1      24.569   5.522  19.319  1.00  0.00    -0.286 OA
HETATM   10  C12 UNL     1      24.018   6.654  17.274  1.00  0.00     0.042 A 
HETATM   11  C13 UNL     1      24.971   6.035  16.508  1.00  0.00    -0.004 A 
HETATM   12  C14 UNL     1      25.987   4.988  16.929  1.00  0.00     0.057 C 
HETATM   13  S1  UNL     1      24.757   6.706  14.972  1.00  0.00    -0.069 SA
HETATM   14  C15 UNL     1      23.446   7.770  15.346  1.00  0.00     0.119 A 
HETATM   15  C16 UNL     1      23.222   7.556  16.680  1.00  0.00     0.031 A 
HETATM   16  C17 UNL     1      22.149   8.260  17.518  1.00  0.00    -0.000 A 
HETATM   17  C18 UNL     1      21.397   9.116  16.913  1.00  0.00     0.106 C 
HETATM   18  C19 UNL     1      20.339   9.947  17.269  1.00  0.00     0.088 C 
HETATM   19  N1  UNL     1      19.459  10.657  17.504  1.00  0.00    -0.192 NA
ENDROOT
BRANCH  14  20
HETATM   20  O4  UNL     1      22.862   8.597  14.377  1.00  0.00    -0.353 OA
ATOM     21  H4  UNL     1      22.296   8.252  13.696  1.00  0.00     0.218 HD
ENDBRANCH  14  20
BRANCH   7  22
HETATM   22  O2  UNL     1      23.555   5.799  21.365  1.00  0.00    -0.359 OA
ATOM     23  H2  UNL     1      24.305   5.502  20.864  1.00  0.00     0.217 HD
ENDBRANCH   7  22
BRANCH   1  24
HETATM   24  C3  UNL     1      21.697   6.934  23.095  1.00  0.00     0.162 C 
HETATM   25  O1  UNL     1      21.711   5.700  23.401  1.00  0.00    -0.292 OA
BRANCH  24  26
HETATM   26  C2  UNL     1      21.608   7.863  24.241  1.00  0.00     0.079 C 
HETATM   27  C1  UNL     1      20.827   7.226  25.398  1.00  0.00     0.013 C 
ENDBRANCH  24  26
ENDBRANCH   1  24
TORSDOF 4
ENDMDL
