MODEL 1
REMARK VINA RESULT: -10.086139124      0.000      0.000
REMARK  6 active torsions:
REMARK  status: ('A' for Active; 'I' for Inactive)
REMARK    1  A    between atoms: C4_4  and  C5_5 
REMARK    2  A    between atoms: C5_5  and  C6_6 
REMARK    3  A    between atoms: C8_9  and  O2_10 
REMARK    4  A    between atoms: C11_14  and  O3_15 
REMARK    5  A    between atoms: C16_23  and  C17_24 
REMARK    6  A    between atoms: C17_24  and  O6_26 
ROOT
HETATM    1  C6  UNL     1      22.091   8.497  17.844  1.00  0.00     0.064 A 
HETATM    2  O1  UNL     1      22.691   7.553  18.559  1.00  0.00    -0.310 OA
HETATM    3  C7  UNL     1      22.207   7.486  19.769  1.00  0.00     0.123 A 
HETATM    4  C8  UNL     1      22.527   6.665  20.838  1.00  0.00     0.117 A 
HETATM    5  C9  UNL     1      21.827   6.832  22.017  1.00  0.00     0.084 A 
HETATM    6  C10 UNL     1      20.830   7.799  22.129  1.00  0.00     0.130 A 
HETATM    7  C11 UNL     1      20.528   8.609  21.045  1.00  0.00     0.114 A 
HETATM    8  C12 UNL     1      21.223   8.445  19.866  1.00  0.00     0.045 A 
HETATM    9  C13 UNL     1      21.134   9.098  18.658  1.00  0.00    -0.016 A 
HETATM   10  C14 UNL     1      20.214  10.220  18.316  1.00  0.00     0.052 C 
HETATM   11  O4  UNL     1      20.121   7.972  23.315  1.00  0.00    -0.274 OA
HETATM   12  C15 UNL     1      20.383   7.182  24.443  1.00  0.00     0.278 C 
HETATM   13  O5  UNL     1      19.547   7.182  25.382  1.00  0.00    -0.264 OA
HETATM   14  C16 UNL     1      21.610   6.358  24.545  1.00  0.00     0.189 C 
HETATM   15  C19 UNL     1      22.094   6.017  23.185  1.00  0.00     0.181 C 
HETATM   16  O7  UNL     1      22.771   4.969  23.037  1.00  0.00    -0.291 OA
ENDROOT
BRANCH   1  17
HETATM   17  C5  UNL     1      22.359   8.867  16.461  1.00  0.00     0.093 C 
BRANCH  17  18
HETATM   18  C4  UNL     1      23.179   8.014  15.615  1.00  0.00    -0.018 C 
HETATM   19  C2  UNL     1      24.389   7.582  15.699  1.00  0.00    -0.091 C 
HETATM   20  C1  UNL     1      25.373   7.852  16.765  1.00  0.00     0.042 C 
HETATM   21  C3  UNL     1      24.913   6.672  14.579  1.00  0.00     0.042 C 
ENDBRANCH  17  18
ENDBRANCH   1  17
BRANCH   4  22
HETATM   22  O2  UNL     1      23.512   5.689  20.772  1.00  0.00    -0.357 OA
ATOM     23  H2  UNL     1      24.386   5.813  21.121  1.00  0.00     0.217 HD
ENDBRANCH   4  22
BRANCH   7  24
HETATM   24  O3  UNL     1      19.539   9.587  21.117  1.00  0.00    -0.357 OA
ATOM     25  H3  UNL     1      19.144   9.835  21.945  1.00  0.00     0.217 HD
ENDBRANCH   7  24
BRANCH  14  26
HETATM   26  C17 UNL     1      21.383   5.083  25.335  1.00  0.00     0.135 C 
HETATM   27  C18 UNL     1      21.464   5.300  26.811  1.00  0.00     0.040 C 
BRANCH  26  28
HETATM   28  O6  UNL     1      20.136   4.571  25.004  1.00  0.00    -0.395 OA
ATOM     29  H6  UNL     1      20.081   4.489  24.059  1.00  0.00     0.210 HD
ENDBRANCH  26  28
ENDBRANCH  14  26
TORSDOF 6
ENDMDL
MODEL 2
REMARK VINA RESULT: -9.983865768      1.233      1.843
REMARK  6 active torsions:
REMARK  status: ('A' for Active; 'I' for Inactive)
REMARK    1  A    between atoms: C4_4  and  C5_5 
REMARK    2  A    between atoms: C5_5  and  C6_6 
REMARK    3  A    between atoms: C8_9  and  O2_10 
REMARK    4  A    between atoms: C11_14  and  O3_15 
REMARK    5  A    between atoms: C16_23  and  C17_24 
REMARK    6  A    between atoms: C17_24  and  O6_26 
ROOT
HETATM    1  C6  UNL     1      23.179   7.090  19.190  1.00  0.00     0.064 A 
HETATM    2  O1  UNL     1      23.379   6.343  20.269  1.00  0.00    -0.310 OA
HETATM    3  C7  UNL     1      22.588   6.690  21.247  1.00  0.00     0.123 A 
HETATM    4  C8  UNL     1      22.452   6.193  22.534  1.00  0.00     0.117 A 
HETATM    5  C9  UNL     1      21.509   6.776  23.358  1.00  0.00     0.084 A 
HETATM    6  C10 UNL     1      20.719   7.833  22.910  1.00  0.00     0.130 A 
HETATM    7  C11 UNL     1      20.874   8.311  21.618  1.00  0.00     0.114 A 
HETATM    8  C12 UNL     1      21.812   7.733  20.792  1.00  0.00     0.045 A 
HETATM    9  C13 UNL     1      22.171   8.003  19.491  1.00  0.00    -0.016 A 
HETATM   10  C14 UNL     1      21.603   9.064  18.611  1.00  0.00     0.052 C 
HETATM   11  O4  UNL     1      19.767   8.423  23.737  1.00  0.00    -0.274 OA
HETATM   12  C15 UNL     1      19.567   7.981  25.051  1.00  0.00     0.278 C 
HETATM   13  O5  UNL     1      18.528   8.348  25.656  1.00  0.00    -0.264 OA
HETATM   14  C16 UNL     1      20.545   7.099  25.731  1.00  0.00     0.189 C 
HETATM   15  C19 UNL     1      21.299   6.321  24.718  1.00  0.00     0.181 C 
HETATM   16  O7  UNL     1      21.781   5.211  25.054  1.00  0.00    -0.291 OA
ENDROOT
BRANCH   1  17
HETATM   17  C5  UNL     1      23.868   7.002  17.910  1.00  0.00     0.093 C 
BRANCH  17  18
HETATM   18  C4  UNL     1      23.296   7.612  16.721  1.00  0.00    -0.018 C 
HETATM   19  C2  UNL     1      23.617   7.595  15.474  1.00  0.00    -0.091 C 
HETATM   20  C1  UNL     1      24.752   6.895  14.841  1.00  0.00     0.042 C 
HETATM   21  C3  UNL     1      22.740   8.383  14.489  1.00  0.00     0.042 C 
ENDBRANCH  17  18
ENDBRANCH   1  17
BRANCH   4  22
HETATM   22  O2  UNL     1      23.217   5.143  23.023  1.00  0.00    -0.357 OA
ATOM     23  H2  UNL     1      23.282   4.939  23.948  1.00  0.00     0.217 HD
ENDBRANCH   4  22
BRANCH   7  24
HETATM   24  O3  UNL     1      20.103   9.366  21.134  1.00  0.00    -0.357 OA
ATOM     25  H3  UNL     1      20.314   9.802  20.316  1.00  0.00     0.217 HD
ENDBRANCH   7  24
BRANCH  14  26
HETATM   26  C17 UNL     1      19.881   6.147  26.707  1.00  0.00     0.135 C 
HETATM   27  C18 UNL     1      19.437   6.828  27.961  1.00  0.00     0.040 C 
BRANCH  26  28
HETATM   28  O6  UNL     1      18.790   5.558  26.083  1.00  0.00    -0.395 OA
ATOM     29  H6  UNL     1      18.774   4.635  26.306  1.00  0.00     0.210 HD
ENDBRANCH  26  28
ENDBRANCH  14  26
TORSDOF 6
ENDMDL
MODEL 3
REMARK VINA RESULT: -9.713872365      3.406      4.288
REMARK  6 active torsions:
REMARK  status: ('A' for Active; 'I' for Inactive)
REMARK    1  A    between atoms: C4_4  and  C5_5 
REMARK    2  A    between atoms: C5_5  and  C6_6 
REMARK    3  A    between atoms: C8_9  and  O2_10 
REMARK    4  A    between atoms: C11_14  and  O3_15 
REMARK    5  A    between atoms: C16_23  and  C17_24 
REMARK    6  A    between atoms: C17_24  and  O6_26 
ROOT
HETATM    1  C6  UNL     1      24.139   6.128  18.506  1.00  0.00     0.064 A 
HETATM    2  O1  UNL     1      24.207   4.802  18.493  1.00  0.00    -0.310 OA
HETATM    3  C7  UNL     1      23.496   4.276  19.453  1.00  0.00     0.123 A 
HETATM    4  C8  UNL     1      23.279   2.955  19.811  1.00  0.00     0.117 A 
HETATM    5  C9  UNL     1      22.460   2.704  20.895  1.00  0.00     0.084 A 
HETATM    6  C10 UNL     1      21.870   3.746  21.607  1.00  0.00     0.130 A 
HETATM    7  C11 UNL     1      22.103   5.059  21.228  1.00  0.00     0.114 A 
HETATM    8  C12 UNL     1      22.918   5.315  20.147  1.00  0.00     0.045 A 
HETATM    9  C13 UNL     1      23.313   6.498  19.565  1.00  0.00    -0.016 A 
HETATM   10  C14 UNL     1      22.941   7.875  19.999  1.00  0.00     0.052 C 
HETATM   11  O4  UNL     1      21.044   3.497  22.700  1.00  0.00    -0.274 OA
HETATM   12  C15 UNL     1      20.774   2.191  23.128  1.00  0.00     0.278 C 
HETATM   13  O5  UNL     1      19.820   2.006  23.926  1.00  0.00    -0.264 OA
HETATM   14  C16 UNL     1      21.580   1.039  22.661  1.00  0.00     0.189 C 
HETATM   15  C19 UNL     1      22.178   1.353  21.340  1.00  0.00     0.181 C 
HETATM   16  O7  UNL     1      22.454   0.402  20.567  1.00  0.00    -0.291 OA
ENDROOT
BRANCH   1  17
HETATM   17  C5  UNL     1      24.795   7.058  17.597  1.00  0.00     0.093 C 
BRANCH  17  18
HETATM   18  C4  UNL     1      24.237   7.322  16.281  1.00  0.00    -0.018 C 
HETATM   19  C2  UNL     1      23.328   8.125  15.848  1.00  0.00    -0.091 C 
HETATM   20  C1  UNL     1      22.524   9.086  16.628  1.00  0.00     0.042 C 
HETATM   21  C3  UNL     1      23.009   8.115  14.346  1.00  0.00     0.042 C 
ENDBRANCH  17  18
ENDBRANCH   1  17
BRANCH   4  22
HETATM   22  O2  UNL     1      23.845   1.885  19.132  1.00  0.00    -0.357 OA
ATOM     23  H2  UNL     1      23.500   1.002  19.181  1.00  0.00     0.217 HD
ENDBRANCH   4  22
BRANCH   7  24
HETATM   24  O3  UNL     1      21.532   6.129  21.915  1.00  0.00    -0.357 OA
ATOM     25  H3  UNL     1      21.558   6.182  22.863  1.00  0.00     0.217 HD
ENDBRANCH   7  24
BRANCH  14  26
HETATM   26  C17 UNL     1      20.761  -0.233  22.555  1.00  0.00     0.135 C 
HETATM   27  C18 UNL     1      20.617  -0.934  23.866  1.00  0.00     0.040 C 
BRANCH  26  28
HETATM   28  O6  UNL     1      19.506   0.086  22.054  1.00  0.00    -0.395 OA
ATOM     29  H6  UNL     1      19.422  -0.287  21.185  1.00  0.00     0.210 HD
ENDBRANCH  26  28
ENDBRANCH  14  26
TORSDOF 6
ENDMDL
MODEL 4
REMARK VINA RESULT: -9.644700258      4.927      6.972
REMARK  6 active torsions:
REMARK  status: ('A' for Active; 'I' for Inactive)
REMARK    1  A    between atoms: C4_4  and  C5_5 
REMARK    2  A    between atoms: C5_5  and  C6_6 
REMARK    3  A    between atoms: C8_9  and  O2_10 
REMARK    4  A    between atoms: C11_14  and  O3_15 
REMARK    5  A    between atoms: C16_23  and  C17_24 
REMARK    6  A    between atoms: C17_24  and  O6_26 
ROOT
HETATM    1  C6  UNL     1      23.163   6.581  19.450  1.00  0.00     0.064 A 
HETATM    2  O1  UNL     1      22.674   5.545  20.121  1.00  0.00    -0.310 OA
HETATM    3  C7  UNL     1      23.223   4.424  19.739  1.00  0.00     0.123 A 
HETATM    4  C8  UNL     1      23.023   3.118  20.158  1.00  0.00     0.117 A 
HETATM    5  C9  UNL     1      23.766   2.123  19.555  1.00  0.00     0.084 A 
HETATM    6  C10 UNL     1      24.690   2.422  18.555  1.00  0.00     0.130 A 
HETATM    7  C11 UNL     1      24.872   3.736  18.155  1.00  0.00     0.114 A 
HETATM    8  C12 UNL     1      24.133   4.733  18.753  1.00  0.00     0.045 A 
HETATM    9  C13 UNL     1      24.111   6.094  18.554  1.00  0.00    -0.016 A 
HETATM   10  C14 UNL     1      24.922   6.866  17.570  1.00  0.00     0.052 C 
HETATM   11  O4  UNL     1      25.442   1.421  17.945  1.00  0.00    -0.274 OA
HETATM   12  C15 UNL     1      25.300   0.076  18.310  1.00  0.00     0.278 C 
HETATM   13  O5  UNL     1      26.180  -0.743  17.940  1.00  0.00    -0.264 OA
HETATM   14  C16 UNL     1      24.148  -0.392  19.115  1.00  0.00     0.189 C 
HETATM   15  C19 UNL     1      23.622   0.730  19.930  1.00  0.00     0.181 C 
HETATM   16  O7  UNL     1      23.022   0.461  21.000  1.00  0.00    -0.291 OA
ENDROOT
BRANCH   1  17
HETATM   17  C5  UNL     1      22.797   7.984  19.596  1.00  0.00     0.093 C 
BRANCH  17  18
HETATM   18  C4  UNL     1      21.584   8.498  18.979  1.00  0.00    -0.018 C 
HETATM   19  C2  UNL     1      21.313   8.962  17.809  1.00  0.00    -0.091 C 
HETATM   20  C1  UNL     1      22.231   9.123  16.665  1.00  0.00     0.042 C 
HETATM   21  C3  UNL     1      19.874   9.416  17.526  1.00  0.00     0.042 C 
ENDBRANCH  17  18
ENDBRANCH   1  17
BRANCH   4  22
HETATM   22  O2  UNL     1      22.114   2.774  21.149  1.00  0.00    -0.357 OA
ATOM     23  H2  UNL     1      21.413   2.148  21.012  1.00  0.00     0.217 HD
ENDBRANCH   4  22
BRANCH   7  24
HETATM   24  O3  UNL     1      25.786   4.075  17.158  1.00  0.00    -0.357 OA
ATOM     25  H3  UNL     1      26.679   3.751  17.172  1.00  0.00     0.217 HD
ENDBRANCH   7  24
BRANCH  14  26
HETATM   26  C17 UNL     1      24.512  -1.550  20.024  1.00  0.00     0.135 C 
HETATM   27  C18 UNL     1      24.492  -2.865  19.315  1.00  0.00     0.040 C 
BRANCH  26  28
HETATM   28  O6  UNL     1      25.776  -1.321  20.551  1.00  0.00    -0.395 OA
ATOM     29  H6  UNL     1      25.915  -1.917  21.277  1.00  0.00     0.210 HD
ENDBRANCH  26  28
ENDBRANCH  14  26
TORSDOF 6
ENDMDL
MODEL 5
REMARK VINA RESULT: -9.630775738      1.906      3.766
REMARK  6 active torsions:
REMARK  status: ('A' for Active; 'I' for Inactive)
REMARK    1  A    between atoms: C4_4  and  C5_5 
REMARK    2  A    between atoms: C5_5  and  C6_6 
REMARK    3  A    between atoms: C8_9  and  O2_10 
REMARK    4  A    between atoms: C11_14  and  O3_15 
REMARK    5  A    between atoms: C16_23  and  C17_24 
REMARK    6  A    between atoms: C17_24  and  O6_26 
ROOT
HETATM    1  C6  UNL     1      24.183   5.286  18.919  1.00  0.00     0.064 A 
HETATM    2  O1  UNL     1      23.385   6.330  19.106  1.00  0.00    -0.310 OA
HETATM    3  C7  UNL     1      22.920   6.366  20.325  1.00  0.00     0.123 A 
HETATM    4  C8  UNL     1      22.068   7.261  20.953  1.00  0.00     0.117 A 
HETATM    5  C9  UNL     1      21.749   7.033  22.277  1.00  0.00     0.084 A 
HETATM    6  C10 UNL     1      22.268   5.936  22.962  1.00  0.00     0.130 A 
HETATM    7  C11 UNL     1      23.119   5.056  22.313  1.00  0.00     0.114 A 
HETATM    8  C12 UNL     1      23.440   5.279  20.991  1.00  0.00     0.045 A 
HETATM    9  C13 UNL     1      24.243   4.581  20.119  1.00  0.00    -0.016 A 
HETATM   10  C14 UNL     1      24.995   3.326  20.407  1.00  0.00     0.052 C 
HETATM   11  O4  UNL     1      21.950   5.703  24.298  1.00  0.00    -0.274 OA
HETATM   12  C15 UNL     1      21.096   6.559  25.005  1.00  0.00     0.278 C 
HETATM   13  O5  UNL     1      21.060   6.470  26.259  1.00  0.00    -0.264 OA
HETATM   14  C16 UNL     1      20.247   7.555  24.311  1.00  0.00     0.189 C 
HETATM   15  C19 UNL     1      20.866   7.917  23.012  1.00  0.00     0.181 C 
HETATM   16  O7  UNL     1      20.613   9.046  22.524  1.00  0.00    -0.291 OA
ENDROOT
BRANCH   1  17
HETATM   17  C5  UNL     1      24.884   4.913  17.697  1.00  0.00     0.093 C 
BRANCH  17  18
HETATM   18  C4  UNL     1      24.643   5.637  16.459  1.00  0.00    -0.018 C 
HETATM   19  C2  UNL     1      24.832   6.857  16.095  1.00  0.00    -0.091 C 
HETATM   20  C1  UNL     1      25.392   7.963  16.896  1.00  0.00     0.042 C 
HETATM   21  C3  UNL     1      24.444   7.254  14.663  1.00  0.00     0.042 C 
ENDBRANCH  17  18
ENDBRANCH   1  17
BRANCH   4  22
HETATM   22  O2  UNL     1      21.527   8.366  20.310  1.00  0.00    -0.357 OA
ATOM     23  H2  UNL     1      21.633   9.253  20.632  1.00  0.00     0.217 HD
ENDBRANCH   4  22
BRANCH   7  24
HETATM   24  O3  UNL     1      23.658   3.948  22.963  1.00  0.00    -0.357 OA
ATOM     25  H3  UNL     1      23.138   3.171  23.137  1.00  0.00     0.217 HD
ENDBRANCH   7  24
BRANCH  14  26
HETATM   26  C17 UNL     1      20.037   8.809  25.137  1.00  0.00     0.135 C 
HETATM   27  C18 UNL     1      18.966   8.647  26.166  1.00  0.00     0.040 C 
BRANCH  26  28
HETATM   28  O6  UNL     1      21.235   9.140  25.756  1.00  0.00    -0.395 OA
ATOM     29  H6  UNL     1      21.593   9.911  25.333  1.00  0.00     0.210 HD
ENDBRANCH  26  28
ENDBRANCH  14  26
TORSDOF 6
ENDMDL
