MODEL 1
REMARK VINA RESULT: -6.592556496      0.000      0.000
REMARK  8 active torsions:
REMARK  status: ('A' for Active; 'I' for Inactive)
REMARK    1  A    between atoms: C2_2  and  C3_3 
REMARK    2  A    between atoms: C5_5  and  N1_6 
REMARK    3  A    between atoms: N1_6  and  C6_8 
REMARK    4  A    between atoms: C6_8  and  C7_9 
REMARK    5  A    between atoms: C7_9  and  C8_10 
REMARK    6  A    between atoms: C8_10  and  C9_11 
REMARK    7  A    between atoms: C9_11  and  N2_12 
REMARK    8  A    between atoms: N5_20  and  N6_21 
ROOT
HETATM    1  C3  UNL     1       3.279  17.453  22.490  1.00  0.00     0.040 A 
HETATM    2  C4  UNL     1       3.397  16.823  21.248  1.00  0.00     0.075 A 
HETATM    3  C5  UNL     1       3.816  15.510  21.126  1.00  0.00     0.105 A 
HETATM    4  N3  UNL     1       4.121  14.814  22.232  1.00  0.00    -0.315 N 
ATOM      5  H3  UNL     1       4.431  13.845  22.165  1.00  0.00     0.170 HD
HETATM    6  C10 UNL     1       4.010  15.423  23.445  1.00  0.00     0.215 A 
HETATM    7  N4  UNL     1       4.335  14.673  24.600  1.00  0.00    -0.061 NA
HETATM    8  N5  UNL     1       3.597  16.712  23.551  1.00  0.00    -0.238 N 
ENDROOT
BRANCH   3   9
HETATM    9  N1  UNL     1       3.917  14.948  19.979  1.00  0.00    -0.376 N 
ATOM     10  H1  UNL     1       3.247  14.206  19.779  1.00  0.00     0.161 HD
BRANCH   9  11
HETATM   11  C6  UNL     1       4.854  15.240  18.955  1.00  0.00     0.121 C 
BRANCH  11  12
HETATM   12  C7  UNL     1       5.078  14.116  17.979  1.00  0.00     0.021 C 
BRANCH  12  13
HETATM   13  C8  UNL     1       4.298  12.887  18.367  1.00  0.00     0.029 C 
BRANCH  13  14
HETATM   14  C9  UNL     1       3.558  12.334  17.193  1.00  0.00     0.229 C 
BRANCH  14  15
HETATM   15  N2  UNL     1       3.330  13.344  16.168  1.00  0.00    -0.079 N 
ATOM     16  H23 UNL     1       2.479  13.876  16.354  1.00  0.00     0.274 HD
ATOM     17  H22 UNL     1       4.011  14.101  16.236  1.00  0.00     0.274 HD
ATOM     18  H21 UNL     1       3.317  12.941  15.231  1.00  0.00     0.274 HD
ENDBRANCH  14  15
ENDBRANCH  13  14
ENDBRANCH  12  13
ENDBRANCH  11  12
ENDBRANCH   9  11
ENDBRANCH   3   9
BRANCH   1  19
HETATM   19  C2  UNL     1       2.829  18.828  22.470  1.00  0.00     0.055 C 
HETATM   20  C1  UNL     1       1.584  19.163  21.752  1.00  0.00     0.011 C 
ENDBRANCH   1  19
BRANCH   8  21
HETATM   21  N6  UNL     1       3.515  17.237  24.809  1.00  0.00    -0.336 N 
ATOM     22  H62 UNL     1       4.392  17.384  25.309  1.00  0.00     0.177 HD
ATOM     23  H61 UNL     1       2.607  17.467  25.213  1.00  0.00     0.177 HD
ENDBRANCH   8  21
TORSDOF 8
ENDMDL
MODEL 2
REMARK VINA RESULT: -6.378110648      1.310      1.756
REMARK  8 active torsions:
REMARK  status: ('A' for Active; 'I' for Inactive)
REMARK    1  A    between atoms: C2_2  and  C3_3 
REMARK    2  A    between atoms: C5_5  and  N1_6 
REMARK    3  A    between atoms: N1_6  and  C6_8 
REMARK    4  A    between atoms: C6_8  and  C7_9 
REMARK    5  A    between atoms: C7_9  and  C8_10 
REMARK    6  A    between atoms: C8_10  and  C9_11 
REMARK    7  A    between atoms: C9_11  and  N2_12 
REMARK    8  A    between atoms: N5_20  and  N6_21 
ROOT
HETATM    1  C3  UNL     1       3.420  17.358  22.197  1.00  0.00     0.040 A 
HETATM    2  C4  UNL     1       3.415  16.483  21.108  1.00  0.00     0.075 A 
HETATM    3  C5  UNL     1       3.755  15.147  21.235  1.00  0.00     0.105 A 
HETATM    4  N3  UNL     1       4.102  14.672  22.441  1.00  0.00    -0.315 N 
ATOM      5  H3  UNL     1       4.356  13.691  22.558  1.00  0.00     0.170 HD
HETATM    6  C10 UNL     1       4.110  15.520  23.507  1.00  0.00     0.215 A 
HETATM    7  N4  UNL     1       4.479  15.001  24.771  1.00  0.00    -0.061 NA
HETATM    8  N5  UNL     1       3.774  16.828  23.368  1.00  0.00    -0.238 N 
ENDROOT
BRANCH   3   9
HETATM    9  N1  UNL     1       3.744  14.359  20.225  1.00  0.00    -0.376 N 
ATOM     10  H1  UNL     1       2.834  13.992  19.949  1.00  0.00     0.161 HD
BRANCH   9  11
HETATM   11  C6  UNL     1       4.852  13.940  19.447  1.00  0.00     0.121 C 
BRANCH  11  12
HETATM   12  C7  UNL     1       4.612  13.965  17.960  1.00  0.00     0.021 C 
BRANCH  12  13
HETATM   13  C8  UNL     1       5.145  15.229  17.339  1.00  0.00     0.029 C 
BRANCH  13  14
HETATM   14  C9  UNL     1       4.133  16.326  17.410  1.00  0.00     0.229 C 
BRANCH  14  15
HETATM   15  N2  UNL     1       4.747  17.642  17.300  1.00  0.00    -0.079 N 
ATOM     16  H23 UNL     1       4.907  18.055  18.220  1.00  0.00     0.274 HD
ATOM     17  H22 UNL     1       5.715  17.574  16.984  1.00  0.00     0.274 HD
ATOM     18  H21 UNL     1       4.206  18.267  16.703  1.00  0.00     0.274 HD
ENDBRANCH  14  15
ENDBRANCH  13  14
ENDBRANCH  12  13
ENDBRANCH  11  12
ENDBRANCH   9  11
ENDBRANCH   3   9
BRANCH   1  19
HETATM   19  C2  UNL     1       3.042  18.727  21.920  1.00  0.00     0.055 C 
HETATM   20  C1  UNL     1       1.610  19.063  21.793  1.00  0.00     0.011 C 
ENDBRANCH   1  19
BRANCH   8  21
HETATM   21  N6  UNL     1       3.810  17.603  24.493  1.00  0.00    -0.336 N 
ATOM     22  H62 UNL     1       3.359  17.229  25.328  1.00  0.00     0.177 HD
ATOM     23  H61 UNL     1       4.273  18.511  24.477  1.00  0.00     0.177 HD
ENDBRANCH   8  21
TORSDOF 8
ENDMDL
MODEL 3
REMARK VINA RESULT: -6.282711384      1.923      2.999
REMARK  8 active torsions:
REMARK  status: ('A' for Active; 'I' for Inactive)
REMARK    1  A    between atoms: C2_2  and  C3_3 
REMARK    2  A    between atoms: C5_5  and  N1_6 
REMARK    3  A    between atoms: N1_6  and  C6_8 
REMARK    4  A    between atoms: C6_8  and  C7_9 
REMARK    5  A    between atoms: C7_9  and  C8_10 
REMARK    6  A    between atoms: C8_10  and  C9_11 
REMARK    7  A    between atoms: C9_11  and  N2_12 
REMARK    8  A    between atoms: N5_20  and  N6_21 
ROOT
HETATM    1  C3  UNL     1       2.630  17.005  22.919  1.00  0.00     0.040 A 
HETATM    2  C4  UNL     1       3.307  16.475  21.817  1.00  0.00     0.075 A 
HETATM    3  C5  UNL     1       3.110  16.952  20.533  1.00  0.00     0.105 A 
HETATM    4  N3  UNL     1       2.241  17.955  20.333  1.00  0.00    -0.315 N 
ATOM      5  H3  UNL     1       2.081  18.322  19.395  1.00  0.00     0.170 HD
HETATM    6  C10 UNL     1       1.577  18.475  21.402  1.00  0.00     0.215 A 
HETATM    7  N4  UNL     1       0.666  19.533  21.172  1.00  0.00    -0.061 NA
HETATM    8  N5  UNL     1       1.780  17.998  22.657  1.00  0.00    -0.238 N 
ENDROOT
BRANCH   3   9
HETATM    9  N1  UNL     1       3.740  16.454  19.535  1.00  0.00    -0.376 N 
ATOM     10  H1  UNL     1       3.420  16.741  18.611  1.00  0.00     0.161 HD
BRANCH   9  11
HETATM   11  C6  UNL     1       4.831  15.549  19.568  1.00  0.00     0.121 C 
BRANCH  11  12
HETATM   12  C7  UNL     1       4.869  14.580  18.416  1.00  0.00     0.021 C 
BRANCH  12  13
HETATM   13  C8  UNL     1       4.345  13.226  18.818  1.00  0.00     0.029 C 
BRANCH  13  14
HETATM   14  C9  UNL     1       3.993  12.413  17.615  1.00  0.00     0.229 C 
BRANCH  14  15
HETATM   15  N2  UNL     1       3.408  13.229  16.559  1.00  0.00    -0.079 N 
ATOM     16  H23 UNL     1       3.128  12.658  15.761  1.00  0.00     0.274 HD
ATOM     17  H22 UNL     1       2.491  13.585  16.831  1.00  0.00     0.274 HD
ATOM     18  H21 UNL     1       4.029  13.986  16.274  1.00  0.00     0.274 HD
ENDBRANCH  14  15
ENDBRANCH  13  14
ENDBRANCH  12  13
ENDBRANCH  11  12
ENDBRANCH   9  11
ENDBRANCH   3   9
BRANCH   1  19
HETATM   19  C2  UNL     1       2.933  16.412  24.203  1.00  0.00     0.055 C 
HETATM   20  C1  UNL     1       3.976  15.370  24.282  1.00  0.00     0.011 C 
ENDBRANCH   1  19
BRANCH   8  21
HETATM   21  N6  UNL     1       1.070  18.583  23.667  1.00  0.00    -0.336 N 
ATOM     22  H62 UNL     1       1.110  18.134  24.582  1.00  0.00     0.177 HD
ATOM     23  H61 UNL     1       0.531  19.431  23.494  1.00  0.00     0.177 HD
ENDBRANCH   8  21
TORSDOF 8
ENDMDL
MODEL 4
REMARK VINA RESULT: -6.251520436      2.418      5.572
REMARK  8 active torsions:
REMARK  status: ('A' for Active; 'I' for Inactive)
REMARK    1  A    between atoms: C2_2  and  C3_3 
REMARK    2  A    between atoms: C5_5  and  N1_6 
REMARK    3  A    between atoms: N1_6  and  C6_8 
REMARK    4  A    between atoms: C6_8  and  C7_9 
REMARK    5  A    between atoms: C7_9  and  C8_10 
REMARK    6  A    between atoms: C8_10  and  C9_11 
REMARK    7  A    between atoms: C9_11  and  N2_12 
REMARK    8  A    between atoms: N5_20  and  N6_21 
ROOT
HETATM    1  C3  UNL     1       3.815  16.319  21.331  1.00  0.00     0.040 A 
HETATM    2  C4  UNL     1       3.488  17.582  21.830  1.00  0.00     0.075 A 
HETATM    3  C5  UNL     1       3.462  17.855  23.186  1.00  0.00     0.105 A 
HETATM    4  N3  UNL     1       3.760  16.877  24.056  1.00  0.00    -0.315 N 
ATOM      5  H3  UNL     1       3.748  17.056  25.060  1.00  0.00     0.170 HD
HETATM    6  C10 UNL     1       4.079  15.643  23.577  1.00  0.00     0.215 A 
HETATM    7  N4  UNL     1       4.391  14.625  24.509  1.00  0.00    -0.061 NA
HETATM    8  N5  UNL     1       4.101  15.390  22.244  1.00  0.00    -0.238 N 
ENDROOT
BRANCH   3   9
HETATM    9  N1  UNL     1       3.160  19.020  23.625  1.00  0.00    -0.376 N 
ATOM     10  H1  UNL     1       3.753  19.788  23.312  1.00  0.00     0.161 HD
BRANCH   9  11
HETATM   11  C6  UNL     1       2.095  19.364  24.495  1.00  0.00     0.121 C 
BRANCH  11  12
HETATM   12  C7  UNL     1       0.728  19.273  23.870  1.00  0.00     0.021 C 
BRANCH  12  13
HETATM   13  C8  UNL     1       0.397  20.517  23.087  1.00  0.00     0.029 C 
BRANCH  13  14
HETATM   14  C9  UNL     1       0.822  20.376  21.661  1.00  0.00     0.229 C 
BRANCH  14  15
HETATM   15  N2  UNL     1       0.323  19.144  21.063  1.00  0.00    -0.079 N 
ATOM     16  H23 UNL     1       0.760  18.324  21.485  1.00  0.00     0.274 HD
ATOM     17  H22 UNL     1      -0.645  18.967  21.333  1.00  0.00     0.274 HD
ATOM     18  H21 UNL     1       0.432  19.141  20.049  1.00  0.00     0.274 HD
ENDBRANCH  14  15
ENDBRANCH  13  14
ENDBRANCH  12  13
ENDBRANCH  11  12
ENDBRANCH   9  11
ENDBRANCH   3   9
BRANCH   1  19
HETATM   19  C2  UNL     1       3.804  16.175  19.892  1.00  0.00     0.055 C 
HETATM   20  C1  UNL     1       4.159  17.337  19.054  1.00  0.00     0.011 C 
ENDBRANCH   1  19
BRANCH   8  21
HETATM   21  N6  UNL     1       4.433  14.122  21.857  1.00  0.00    -0.336 N 
ATOM     22  H62 UNL     1       4.756  14.000  20.897  1.00  0.00     0.177 HD
ATOM     23  H61 UNL     1       4.354  13.346  22.513  1.00  0.00     0.177 HD
ENDBRANCH   8  21
TORSDOF 8
ENDMDL
MODEL 5
REMARK VINA RESULT: -6.186653970      2.692      3.795
REMARK  8 active torsions:
REMARK  status: ('A' for Active; 'I' for Inactive)
REMARK    1  A    between atoms: C2_2  and  C3_3 
REMARK    2  A    between atoms: C5_5  and  N1_6 
REMARK    3  A    between atoms: N1_6  and  C6_8 
REMARK    4  A    between atoms: C6_8  and  C7_9 
REMARK    5  A    between atoms: C7_9  and  C8_10 
REMARK    6  A    between atoms: C8_10  and  C9_11 
REMARK    7  A    between atoms: C9_11  and  N2_12 
REMARK    8  A    between atoms: N5_20  and  N6_21 
ROOT
HETATM    1  C3  UNL     1       3.915  15.694  20.600  1.00  0.00     0.040 A 
HETATM    2  C4  UNL     1       4.589  14.517  20.264  1.00  0.00     0.075 A 
HETATM    3  C5  UNL     1       5.140  14.317  19.011  1.00  0.00     0.105 A 
HETATM    4  N3  UNL     1       5.025  15.280  18.083  1.00  0.00    -0.315 N 
ATOM      5  H3  UNL     1       5.424  15.153  17.153  1.00  0.00     0.170 HD
HETATM    6  C10 UNL     1       4.369  16.429  18.404  1.00  0.00     0.215 A 
HETATM    7  N4  UNL     1       4.259  17.434  17.414  1.00  0.00    -0.061 NA
HETATM    8  N5  UNL     1       3.833  16.613  19.638  1.00  0.00    -0.238 N 
ENDROOT
BRANCH   3   9
HETATM    9  N1  UNL     1       5.755  13.231  18.721  1.00  0.00    -0.376 N 
ATOM     10  H1  UNL     1       6.680  13.113  19.132  1.00  0.00     0.161 HD
BRANCH   9  11
HETATM   11  C6  UNL     1       5.296  12.175  17.894  1.00  0.00     0.121 C 
BRANCH  11  12
HETATM   12  C7  UNL     1       5.945  12.122  16.536  1.00  0.00     0.021 C 
BRANCH  12  13
HETATM   13  C8  UNL     1       4.917  12.076  15.437  1.00  0.00     0.029 C 
BRANCH  13  14
HETATM   14  C9  UNL     1       3.552  12.364  15.973  1.00  0.00     0.229 C 
BRANCH  14  15
HETATM   15  N2  UNL     1       3.104  13.707  15.629  1.00  0.00    -0.079 N 
ATOM     16  H23 UNL     1       2.337  14.008  16.232  1.00  0.00     0.274 HD
ATOM     17  H22 UNL     1       3.798  14.407  15.891  1.00  0.00     0.274 HD
ATOM     18  H21 UNL     1       2.853  13.785  14.644  1.00  0.00     0.274 HD
ENDBRANCH  14  15
ENDBRANCH  13  14
ENDBRANCH  12  13
ENDBRANCH  11  12
ENDBRANCH   9  11
ENDBRANCH   3   9
BRANCH   1  19
HETATM   19  C2  UNL     1       3.390  15.770  21.946  1.00  0.00     0.055 C 
HETATM   20  C1  UNL     1       4.246  16.312  23.019  1.00  0.00     0.011 C 
ENDBRANCH   1  19
BRANCH   8  21
HETATM   21  N6  UNL     1       3.194  17.798  19.868  1.00  0.00    -0.336 N 
ATOM     22  H62 UNL     1       2.288  17.932  19.419  1.00  0.00     0.177 HD
ATOM     23  H61 UNL     1       3.620  18.506  20.466  1.00  0.00     0.177 HD
ENDBRANCH   8  21
TORSDOF 8
ENDMDL
