MODEL 1
REMARK VINA RESULT: -10.393398733      0.000      0.000
REMARK  9 active torsions:
REMARK  status: ('A' for Active; 'I' for Inactive)
REMARK    1  A    between atoms: C2_2  and  C3_3 
REMARK    2  A    between atoms: C3_3  and  S1_4 
REMARK    3  A    between atoms: S1_4  and  C4_5 
REMARK    4  A    between atoms: C5_8  and  N2_9 
REMARK    5  A    between atoms: N2_9  and  N3_11 
REMARK       I    between atoms: N3_11  and  C6_13 
REMARK    6  A    between atoms: C6_13  and  C7_15 
REMARK    7  A    between atoms: C8_18  and  N5_19 
REMARK    8  A    between atoms: C9_24  and  N7_25 
REMARK    9  A    between atoms: C10_32  and  N10_33 
ROOT
HETATM    1  N10 UNL     1       2.418  19.503  24.294  1.00  0.00    -0.071 N 
HETATM    2  N11 UNL     1       2.012  20.343  25.260  1.00  0.00     0.001 NA
HETATM    3  N12 UNL     1       1.050  21.122  24.776  1.00  0.00    -0.272 N 
ATOM      4  H12 UNL     1       0.554  21.855  25.283  1.00  0.00     0.185 HD
HETATM    5  C11 UNL     1       0.847  20.761  23.474  1.00  0.00     0.151 A 
HETATM    6  C12 UNL     1      -0.115  21.365  22.589  1.00  0.00     0.120 C 
HETATM    7  N13 UNL     1      -0.903  21.862  21.878  1.00  0.00    -0.190 NA
HETATM    8  C13 UNL     1       1.711  19.742  23.179  1.00  0.00     0.085 A 
HETATM    9  C14 UNL     1       1.846  19.040  21.891  1.00  0.00     0.074 C 
ENDROOT
BRANCH   1  10
HETATM   10  C10 UNL     1       3.430  18.511  24.412  1.00  0.00     0.719 A 
HETATM   11  N9  UNL     1       3.327  17.299  23.831  1.00  0.00    -0.019 N 
HETATM   12  C5  UNL     1       4.302  16.365  23.954  1.00  0.00     0.713 A 
ATOM     13  H9  UNL     1       2.494  17.079  23.284  1.00  0.00     0.203 HD
HETATM   14  N1  UNL     1       5.412  16.623  24.664  1.00  0.00    -0.168 N 
HETATM   15  C4  UNL     1       5.526  17.833  25.249  1.00  0.00     0.174 A 
ATOM     16  H1  UNL     1       6.149  15.924  24.758  1.00  0.00     0.186 HD
HETATM   17  N14 UNL     1       4.554  18.749  25.121  1.00  0.00    -0.168 N 
ATOM     18  H14 UNL     1       4.669  19.656  25.575  1.00  0.00     0.186 HD
BRANCH  12  19
HETATM   19  N2  UNL     1       4.113  15.237  23.364  1.00  0.00    -0.128 N 
ATOM     20  H2  UNL     1       3.985  14.378  23.899  1.00  0.00     0.205 HD
BRANCH  19  21
HETATM   21  N3  UNL     1       4.089  15.227  21.968  1.00  0.00    -0.249 N 
HETATM   22  C6  UNL     1       4.350  14.015  21.293  1.00  0.00     0.305 C 
HETATM   23  O1  UNL     1       4.600  12.961  21.912  1.00  0.00    -0.263 OA
ATOM     24  H3  UNL     1       3.885  16.078  21.445  1.00  0.00     0.191 HD
BRANCH  22  25
HETATM   25  C7  UNL     1       4.318  14.030  19.823  1.00  0.00     0.205 A 
HETATM   26  N4  UNL     1       3.833  12.998  19.122  1.00  0.00    -0.170 N 
HETATM   27  C8  UNL     1       3.821  13.049  17.763  1.00  0.00     0.692 A 
ATOM     28  H4  UNL     1       3.474  12.175  19.607  1.00  0.00     0.186 HD
HETATM   29  N6  UNL     1       4.286  14.118  17.100  1.00  0.00    -0.023 N 
HETATM   30  C9  UNL     1       4.774  15.157  17.795  1.00  0.00     0.692 A 
ATOM     31  H6  UNL     1       4.270  14.141  16.080  1.00  0.00     0.203 HD
HETATM   32  N8  UNL     1       4.784  15.100  19.134  1.00  0.00    -0.170 N 
ATOM     33  H8  UNL     1       5.156  15.894  19.655  1.00  0.00     0.186 HD
BRANCH  27  34
HETATM   34  N5  UNL     1       3.349  12.044  17.107  1.00  0.00    -0.234 N 
ATOM     35  H52 UNL     1       2.529  11.550  17.457  1.00  0.00     0.174 HD
ATOM     36  H51 UNL     1       3.811  11.760  16.242  1.00  0.00     0.174 HD
ENDBRANCH  27  34
BRANCH  30  37
HETATM   37  N7  UNL     1       5.228  16.197  17.152  1.00  0.00    -0.234 N 
ATOM     38  H72 UNL     1       5.072  16.317  16.150  1.00  0.00     0.174 HD
ATOM     39  H71 UNL     1       5.750  16.909  17.661  1.00  0.00     0.174 HD
ENDBRANCH  30  37
ENDBRANCH  22  25
ENDBRANCH  19  21
ENDBRANCH  12  19
BRANCH  15  40
HETATM   40  S1  UNL     1       6.985  18.179  26.186  1.00  0.00    -0.093 SA
BRANCH  40  41
HETATM   41  C3  UNL     1       8.461  17.532  25.383  1.00  0.00     0.082 C 
BRANCH  41  42
HETATM   42  C2  UNL     1       9.432  16.969  26.386  1.00  0.00     0.006 C 
HETATM   43  C1  UNL     1      10.074  15.746  25.746  1.00  0.00     0.006 C 
ENDBRANCH  41  42
ENDBRANCH  40  41
ENDBRANCH  15  40
ENDBRANCH   1  10
TORSDOF 9
ENDMDL
MODEL 2
REMARK VINA RESULT: -10.388455173      0.048      1.449
REMARK  9 active torsions:
REMARK  status: ('A' for Active; 'I' for Inactive)
REMARK    1  A    between atoms: C2_2  and  C3_3 
REMARK    2  A    between atoms: C3_3  and  S1_4 
REMARK    3  A    between atoms: S1_4  and  C4_5 
REMARK    4  A    between atoms: C5_8  and  N2_9 
REMARK    5  A    between atoms: N2_9  and  N3_11 
REMARK       I    between atoms: N3_11  and  C6_13 
REMARK    6  A    between atoms: C6_13  and  C7_15 
REMARK    7  A    between atoms: C8_18  and  N5_19 
REMARK    8  A    between atoms: C9_24  and  N7_25 
REMARK    9  A    between atoms: C10_32  and  N10_33 
ROOT
HETATM    1  N10 UNL     1       2.393  19.518  24.280  1.00  0.00    -0.071 N 
HETATM    2  N11 UNL     1       1.983  20.360  25.243  1.00  0.00     0.001 NA
HETATM    3  N12 UNL     1       1.023  21.139  24.754  1.00  0.00    -0.272 N 
ATOM      4  H12 UNL     1       0.525  21.873  25.258  1.00  0.00     0.185 HD
HETATM    5  C11 UNL     1       0.826  20.777  23.452  1.00  0.00     0.151 A 
HETATM    6  C12 UNL     1      -0.132  21.379  22.562  1.00  0.00     0.120 C 
HETATM    7  N13 UNL     1      -0.918  21.876  21.847  1.00  0.00    -0.190 NA
HETATM    8  C13 UNL     1       1.690  19.756  23.162  1.00  0.00     0.085 A 
HETATM    9  C14 UNL     1       1.830  19.053  21.875  1.00  0.00     0.074 C 
ENDROOT
BRANCH   1  10
HETATM   10  C10 UNL     1       3.404  18.526  24.404  1.00  0.00     0.719 A 
HETATM   11  N9  UNL     1       3.307  17.317  23.816  1.00  0.00    -0.019 N 
HETATM   12  C5  UNL     1       4.281  16.382  23.944  1.00  0.00     0.713 A 
ATOM     13  H9  UNL     1       2.479  17.099  23.260  1.00  0.00     0.203 HD
HETATM   14  N1  UNL     1       5.384  16.637  24.667  1.00  0.00    -0.168 N 
HETATM   15  C4  UNL     1       5.491  17.844  25.259  1.00  0.00     0.174 A 
ATOM     16  H1  UNL     1       6.120  15.938  24.765  1.00  0.00     0.186 HD
HETATM   17  N14 UNL     1       4.520  18.761  25.125  1.00  0.00    -0.168 N 
ATOM     18  H14 UNL     1       4.630  19.666  25.584  1.00  0.00     0.186 HD
BRANCH  12  19
HETATM   19  N2  UNL     1       4.098  15.258  23.347  1.00  0.00    -0.128 N 
ATOM     20  H2  UNL     1       3.966  14.396  23.876  1.00  0.00     0.205 HD
BRANCH  19  21
HETATM   21  N3  UNL     1       4.086  15.254  21.951  1.00  0.00    -0.249 N 
HETATM   22  C6  UNL     1       4.376  14.050  21.272  1.00  0.00     0.305 C 
HETATM   23  O1  UNL     1       4.640  12.999  21.887  1.00  0.00    -0.263 OA
ATOM     24  H3  UNL     1       3.871  16.104  21.431  1.00  0.00     0.191 HD
BRANCH  22  25
HETATM   25  C7  UNL     1       4.356  14.073  19.802  1.00  0.00     0.205 A 
HETATM   26  N4  UNL     1       4.823  15.121  19.112  1.00  0.00    -0.170 N 
HETATM   27  C8  UNL     1       4.788  15.105  17.752  1.00  0.00     0.692 A 
ATOM     28  H4  UNL     1       5.203  15.929  19.604  1.00  0.00     0.186 HD
HETATM   29  N6  UNL     1       4.294  14.056  17.078  1.00  0.00    -0.023 N 
HETATM   30  C9  UNL     1       3.825  13.001  17.762  1.00  0.00     0.692 A 
ATOM     31  H6  UNL     1       4.274  14.060  16.058  1.00  0.00     0.203 HD
HETATM   32  N8  UNL     1       3.862  13.023  19.102  1.00  0.00    -0.170 N 
ATOM     33  H8  UNL     1       3.503  12.218  19.615  1.00  0.00     0.186 HD
BRANCH  27  34
HETATM   34  N5  UNL     1       5.242  16.124  17.106  1.00  0.00    -0.234 N 
ATOM     35  H52 UNL     1       4.917  16.308  16.156  1.00  0.00     0.174 HD
ATOM     36  H51 UNL     1       5.923  16.733  17.560  1.00  0.00     0.174 HD
ENDBRANCH  27  34
BRANCH  30  37
HETATM   37  N7  UNL     1       3.343  11.980  17.109  1.00  0.00    -0.234 N 
ATOM     38  H72 UNL     1       3.890  11.131  16.964  1.00  0.00     0.174 HD
ATOM     39  H71 UNL     1       2.397  12.031  16.733  1.00  0.00     0.174 HD
ENDBRANCH  30  37
ENDBRANCH  22  25
ENDBRANCH  19  21
ENDBRANCH  12  19
BRANCH  15  40
HETATM   40  S1  UNL     1       6.940  18.186  26.211  1.00  0.00    -0.093 SA
BRANCH  40  41
HETATM   41  C3  UNL     1       8.426  17.551  25.416  1.00  0.00     0.082 C 
BRANCH  41  42
HETATM   42  C2  UNL     1       9.401  17.006  26.426  1.00  0.00     0.006 C 
HETATM   43  C1  UNL     1      10.072  15.797  25.788  1.00  0.00     0.006 C 
ENDBRANCH  41  42
ENDBRANCH  40  41
ENDBRANCH  15  40
ENDBRANCH   1  10
TORSDOF 9
ENDMDL
MODEL 3
REMARK VINA RESULT: -10.042753070      2.998      6.927
REMARK  9 active torsions:
REMARK  status: ('A' for Active; 'I' for Inactive)
REMARK    1  A    between atoms: C2_2  and  C3_3 
REMARK    2  A    between atoms: C3_3  and  S1_4 
REMARK    3  A    between atoms: S1_4  and  C4_5 
REMARK    4  A    between atoms: C5_8  and  N2_9 
REMARK    5  A    between atoms: N2_9  and  N3_11 
REMARK       I    between atoms: N3_11  and  C6_13 
REMARK    6  A    between atoms: C6_13  and  C7_15 
REMARK    7  A    between atoms: C8_18  and  N5_19 
REMARK    8  A    between atoms: C9_24  and  N7_25 
REMARK    9  A    between atoms: C10_32  and  N10_33 
ROOT
HETATM    1  N10 UNL     1       1.625  17.768  21.941  1.00  0.00    -0.071 N 
HETATM    2  N11 UNL     1       0.735  17.647  20.943  1.00  0.00     0.001 NA
HETATM    3  N12 UNL     1       0.103  18.806  20.786  1.00  0.00    -0.272 N 
ATOM      4  H12 UNL     1      -0.626  19.009  20.102  1.00  0.00     0.185 HD
HETATM    5  C11 UNL     1       0.610  19.676  21.709  1.00  0.00     0.151 A 
HETATM    6  C12 UNL     1       0.193  21.045  21.873  1.00  0.00     0.120 C 
HETATM    7  N13 UNL     1      -0.153  22.158  21.994  1.00  0.00    -0.190 NA
HETATM    8  C13 UNL     1       1.566  19.016  22.431  1.00  0.00     0.085 A 
HETATM    9  C14 UNL     1       2.377  19.560  23.534  1.00  0.00     0.074 C 
ENDROOT
BRANCH   1  10
HETATM   10  C10 UNL     1       2.498  16.752  22.418  1.00  0.00     0.719 A 
HETATM   11  N9  UNL     1       2.895  16.685  23.705  1.00  0.00    -0.019 N 
HETATM   12  C5  UNL     1       3.729  15.709  24.143  1.00  0.00     0.713 A 
ATOM     13  H9  UNL     1       2.559  17.385  24.366  1.00  0.00     0.203 HD
HETATM   14  N1  UNL     1       4.188  14.771  23.299  1.00  0.00    -0.168 N 
HETATM   15  C4  UNL     1       3.797  14.829  22.009  1.00  0.00     0.174 A 
ATOM     16  H1  UNL     1       4.815  14.034  23.624  1.00  0.00     0.186 HD
HETATM   17  N14 UNL     1       2.971  15.799  21.587  1.00  0.00    -0.168 N 
ATOM     18  H14 UNL     1       2.692  15.817  20.606  1.00  0.00     0.186 HD
BRANCH  12  19
HETATM   19  N2  UNL     1       4.052  15.728  25.388  1.00  0.00    -0.128 N 
ATOM     20  H2  UNL     1       3.348  15.608  26.116  1.00  0.00     0.205 HD
BRANCH  19  21
HETATM   21  N3  UNL     1       5.397  15.918  25.711  1.00  0.00    -0.249 N 
HETATM   22  C6  UNL     1       5.942  17.217  25.611  1.00  0.00     0.305 C 
HETATM   23  O1  UNL     1       5.255  18.190  25.245  1.00  0.00    -0.263 OA
ATOM     24  H3  UNL     1       5.975  15.134  26.012  1.00  0.00     0.191 HD
BRANCH  22  25
HETATM   25  C7  UNL     1       7.361  17.390  25.957  1.00  0.00     0.205 A 
HETATM   26  N4  UNL     1       7.780  18.422  26.700  1.00  0.00    -0.170 N 
HETATM   27  C8  UNL     1       9.100  18.549  26.999  1.00  0.00     0.692 A 
ATOM     28  H4  UNL     1       7.109  19.111  27.041  1.00  0.00     0.186 HD
HETATM   29  N6  UNL     1      10.004  17.657  26.565  1.00  0.00    -0.023 N 
HETATM   30  C9  UNL     1       9.593  16.619  25.820  1.00  0.00     0.692 A 
ATOM     31  H6  UNL     1      10.991  17.767  26.798  1.00  0.00     0.203 HD
HETATM   32  N8  UNL     1       8.290  16.501  25.529  1.00  0.00    -0.170 N 
ATOM     33  H8  UNL     1       7.985  15.709  24.962  1.00  0.00     0.186 HD
BRANCH  27  34
HETATM   34  N5  UNL     1       9.483  19.550  27.716  1.00  0.00    -0.234 N 
ATOM     35  H52 UNL     1       9.768  19.400  28.683  1.00  0.00     0.174 HD
ATOM     36  H51 UNL     1       9.493  20.481  27.297  1.00  0.00     0.174 HD
ENDBRANCH  27  34
BRANCH  30  37
HETATM   37  N7  UNL     1      10.470  15.752  25.396  1.00  0.00    -0.234 N 
ATOM     38  H72 UNL     1      11.146  15.987  24.669  1.00  0.00     0.174 HD
ATOM     39  H71 UNL     1      10.481  14.816  25.801  1.00  0.00     0.174 HD
ENDBRANCH  30  37
ENDBRANCH  22  25
ENDBRANCH  19  21
ENDBRANCH  12  19
BRANCH  15  40
HETATM   40  S1  UNL     1       4.397  13.597  20.893  1.00  0.00    -0.093 SA
BRANCH  40  41
HETATM   41  C3  UNL     1       4.595  14.248  19.226  1.00  0.00     0.082 C 
BRANCH  41  42
HETATM   42  C2  UNL     1       5.037  13.176  18.265  1.00  0.00     0.006 C 
HETATM   43  C1  UNL     1       3.796  12.378  17.888  1.00  0.00     0.006 C 
ENDBRANCH  41  42
ENDBRANCH  40  41
ENDBRANCH  15  40
ENDBRANCH   1  10
TORSDOF 9
ENDMDL
MODEL 4
REMARK VINA RESULT: -9.809258414      2.869      8.160
REMARK  9 active torsions:
REMARK  status: ('A' for Active; 'I' for Inactive)
REMARK    1  A    between atoms: C2_2  and  C3_3 
REMARK    2  A    between atoms: C3_3  and  S1_4 
REMARK    3  A    between atoms: S1_4  and  C4_5 
REMARK    4  A    between atoms: C5_8  and  N2_9 
REMARK    5  A    between atoms: N2_9  and  N3_11 
REMARK       I    between atoms: N3_11  and  C6_13 
REMARK    6  A    between atoms: C6_13  and  C7_15 
REMARK    7  A    between atoms: C8_18  and  N5_19 
REMARK    8  A    between atoms: C9_24  and  N7_25 
REMARK    9  A    between atoms: C10_32  and  N10_33 
ROOT
HETATM    1  N10 UNL     1       3.833  16.590  20.528  1.00  0.00    -0.071 N 
HETATM    2  N11 UNL     1       4.202  17.018  19.311  1.00  0.00     0.001 NA
HETATM    3  N12 UNL     1       4.684  15.989  18.620  1.00  0.00    -0.272 N 
ATOM      4  H12 UNL     1       5.040  16.017  17.664  1.00  0.00     0.185 HD
HETATM    5  C11 UNL     1       4.614  14.888  19.425  1.00  0.00     0.151 A 
HETATM    6  C12 UNL     1       5.038  13.563  19.053  1.00  0.00     0.120 C 
HETATM    7  N13 UNL     1       5.385  12.489  18.738  1.00  0.00    -0.190 NA
HETATM    8  C13 UNL     1       4.078  15.274  20.623  1.00  0.00     0.085 A 
HETATM    9  C14 UNL     1       3.818  14.419  21.794  1.00  0.00     0.074 C 
ENDROOT
BRANCH   1  10
HETATM   10  C10 UNL     1       3.270  17.384  21.565  1.00  0.00     0.719 A 
HETATM   11  N9  UNL     1       3.682  17.300  22.846  1.00  0.00    -0.019 N 
HETATM   12  C5  UNL     1       3.134  18.065  23.822  1.00  0.00     0.713 A 
ATOM     13  H9  UNL     1       4.426  16.644  23.087  1.00  0.00     0.203 HD
HETATM   14  N1  UNL     1       2.155  18.939  23.539  1.00  0.00    -0.168 N 
HETATM   15  C4  UNL     1       1.736  19.032  22.260  1.00  0.00     0.174 A 
ATOM     16  H1  UNL     1       1.741  19.518  24.270  1.00  0.00     0.186 HD
HETATM   17  N14 UNL     1       2.285  18.270  21.302  1.00  0.00    -0.168 N 
ATOM     18  H14 UNL     1       1.948  18.363  20.344  1.00  0.00     0.186 HD
BRANCH  12  19
HETATM   19  N2  UNL     1       3.593  17.913  25.014  1.00  0.00    -0.128 N 
ATOM     20  H2  UNL     1       2.976  17.670  25.789  1.00  0.00     0.205 HD
BRANCH  19  21
HETATM   21  N3  UNL     1       4.963  18.092  25.214  1.00  0.00    -0.249 N 
HETATM   22  C6  UNL     1       5.692  17.075  25.869  1.00  0.00     0.305 C 
HETATM   23  O1  UNL     1       5.144  16.030  26.270  1.00  0.00    -0.263 OA
ATOM     24  H3  UNL     1       5.429  18.940  24.894  1.00  0.00     0.191 HD
BRANCH  22  25
HETATM   25  C7  UNL     1       7.134  17.288  26.068  1.00  0.00     0.205 A 
HETATM   26  N4  UNL     1       8.043  16.457  25.544  1.00  0.00    -0.170 N 
HETATM   27  C8  UNL     1       9.368  16.686  25.749  1.00  0.00     0.692 A 
ATOM     28  H4  UNL     1       7.743  15.653  24.992  1.00  0.00     0.186 HD
HETATM   29  N6  UNL     1       9.791  17.736  26.470  1.00  0.00    -0.023 N 
HETATM   30  C9  UNL     1       8.887  18.574  26.998  1.00  0.00     0.692 A 
ATOM     31  H6  UNL     1      10.788  17.894  26.615  1.00  0.00     0.203 HD
HETATM   32  N8  UNL     1       7.583  18.342  26.792  1.00  0.00    -0.170 N 
ATOM     33  H8  UNL     1       6.901  18.983  27.198  1.00  0.00     0.186 HD
BRANCH  27  34
HETATM   34  N5  UNL     1      10.227  15.874  25.236  1.00  0.00    -0.234 N 
ATOM     35  H52 UNL     1      11.021  16.242  24.712  1.00  0.00     0.174 HD
ATOM     36  H51 UNL     1      10.095  14.871  25.365  1.00  0.00     0.174 HD
ENDBRANCH  27  34
BRANCH  30  37
HETATM   37  N7  UNL     1       9.296  19.594  27.700  1.00  0.00    -0.234 N 
ATOM     38  H72 UNL     1       9.524  19.504  28.691  1.00  0.00     0.174 HD
ATOM     39  H71 UNL     1       9.393  20.503  27.249  1.00  0.00     0.174 HD
ENDBRANCH  30  37
ENDBRANCH  22  25
ENDBRANCH  19  21
ENDBRANCH  12  19
BRANCH  15  40
HETATM   40  S1  UNL     1       0.448  20.181  21.880  1.00  0.00    -0.093 SA
BRANCH  40  41
HETATM   41  C3  UNL     1      -0.287  20.875  23.371  1.00  0.00     0.082 C 
BRANCH  41  42
HETATM   42  C2  UNL     1      -1.741  21.209  23.164  1.00  0.00     0.006 C 
HETATM   43  C1  UNL     1      -2.548  20.174  23.935  1.00  0.00     0.006 C 
ENDBRANCH  41  42
ENDBRANCH  40  41
ENDBRANCH  15  40
ENDBRANCH   1  10
TORSDOF 9
ENDMDL
MODEL 5
REMARK VINA RESULT: -9.767653363      2.872      8.244
REMARK  9 active torsions:
REMARK  status: ('A' for Active; 'I' for Inactive)
REMARK    1  A    between atoms: C2_2  and  C3_3 
REMARK    2  A    between atoms: C3_3  and  S1_4 
REMARK    3  A    between atoms: S1_4  and  C4_5 
REMARK    4  A    between atoms: C5_8  and  N2_9 
REMARK    5  A    between atoms: N2_9  and  N3_11 
REMARK       I    between atoms: N3_11  and  C6_13 
REMARK    6  A    between atoms: C6_13  and  C7_15 
REMARK    7  A    between atoms: C8_18  and  N5_19 
REMARK    8  A    between atoms: C9_24  and  N7_25 
REMARK    9  A    between atoms: C10_32  and  N10_33 
ROOT
HETATM    1  N10 UNL     1       3.828  16.552  20.498  1.00  0.00    -0.071 N 
HETATM    2  N11 UNL     1       4.213  16.988  19.288  1.00  0.00     0.001 NA
HETATM    3  N12 UNL     1       4.689  15.961  18.591  1.00  0.00    -0.272 N 
ATOM      4  H12 UNL     1       5.053  15.995  17.639  1.00  0.00     0.185 HD
HETATM    5  C11 UNL     1       4.601  14.853  19.384  1.00  0.00     0.151 A 
HETATM    6  C12 UNL     1       5.014  13.527  19.002  1.00  0.00     0.120 C 
HETATM    7  N13 UNL     1       5.351  12.452  18.679  1.00  0.00    -0.190 NA
HETATM    8  C13 UNL     1       4.058  15.232  20.582  1.00  0.00     0.085 A 
HETATM    9  C14 UNL     1       3.779  14.368  21.741  1.00  0.00     0.074 C 
ENDROOT
BRANCH   1  10
HETATM   10  C10 UNL     1       3.266  17.341  21.538  1.00  0.00     0.719 A 
HETATM   11  N9  UNL     1       3.682  17.256  22.818  1.00  0.00    -0.019 N 
HETATM   12  C5  UNL     1       3.134  18.016  23.797  1.00  0.00     0.713 A 
ATOM     13  H9  UNL     1       4.430  16.603  23.055  1.00  0.00     0.203 HD
HETATM   14  N1  UNL     1       2.151  18.887  23.519  1.00  0.00    -0.168 N 
HETATM   15  C4  UNL     1       1.727  18.981  22.242  1.00  0.00     0.174 A 
ATOM     16  H1  UNL     1       1.736  19.462  24.252  1.00  0.00     0.186 HD
HETATM   17  N14 UNL     1       2.276  18.223  21.281  1.00  0.00    -0.168 N 
ATOM     18  H14 UNL     1       1.935  18.316  20.324  1.00  0.00     0.186 HD
BRANCH  12  19
HETATM   19  N2  UNL     1       3.598  17.864  24.988  1.00  0.00    -0.128 N 
ATOM     20  H2  UNL     1       2.989  17.586  25.758  1.00  0.00     0.205 HD
BRANCH  19  21
HETATM   21  N3  UNL     1       4.960  18.092  25.193  1.00  0.00    -0.249 N 
HETATM   22  C6  UNL     1       5.722  17.105  25.853  1.00  0.00     0.305 C 
HETATM   23  O1  UNL     1       5.210  16.041  26.255  1.00  0.00    -0.263 OA
ATOM     24  H3  UNL     1       5.396  18.956  24.871  1.00  0.00     0.191 HD
BRANCH  22  25
HETATM   25  C7  UNL     1       7.154  17.369  26.056  1.00  0.00     0.205 A 
HETATM   26  N4  UNL     1       7.578  18.412  26.781  1.00  0.00    -0.170 N 
HETATM   27  C8  UNL     1       8.911  18.625  26.946  1.00  0.00     0.692 A 
ATOM     28  H4  UNL     1       6.902  19.046  27.208  1.00  0.00     0.186 HD
HETATM   29  N6  UNL     1       9.822  17.807  26.397  1.00  0.00    -0.023 N 
HETATM   30  C9  UNL     1       9.406  16.759  25.670  1.00  0.00     0.692 A 
ATOM     31  H6  UNL     1      10.818  17.980  26.530  1.00  0.00     0.203 HD
HETATM   32  N8  UNL     1       8.091  16.556  25.510  1.00  0.00    -0.170 N 
ATOM     33  H8  UNL     1       7.782  15.757  24.956  1.00  0.00     0.186 HD
BRANCH  27  34
HETATM   34  N5  UNL     1       9.298  19.635  27.647  1.00  0.00    -0.234 N 
ATOM     35  H52 UNL     1       9.366  19.551  28.661  1.00  0.00     0.174 HD
ATOM     36  H51 UNL     1       9.531  20.506  27.170  1.00  0.00     0.174 HD
ENDBRANCH  27  34
BRANCH  30  37
HETATM   37  N7  UNL     1      10.290  15.963  25.134  1.00  0.00    -0.234 N 
ATOM     38  H72 UNL     1      10.682  16.145  24.210  1.00  0.00     0.174 HD
ATOM     39  H71 UNL     1      10.599  15.141  25.652  1.00  0.00     0.174 HD
ENDBRANCH  30  37
ENDBRANCH  22  25
ENDBRANCH  19  21
ENDBRANCH  12  19
BRANCH  15  40
HETATM   40  S1  UNL     1       0.432  20.125  21.869  1.00  0.00    -0.093 SA
BRANCH  40  41
HETATM   41  C3  UNL     1      -0.245  20.875  23.359  1.00  0.00     0.082 C 
BRANCH  41  42
HETATM   42  C2  UNL     1      -1.704  21.208  23.195  1.00  0.00     0.006 C 
HETATM   43  C1  UNL     1      -2.490  20.159  23.969  1.00  0.00     0.006 C 
ENDBRANCH  41  42
ENDBRANCH  40  41
ENDBRANCH  15  40
ENDBRANCH   1  10
TORSDOF 9
ENDMDL
