MODEL 1
REMARK VINA RESULT: -9.795752598      0.000      0.000
REMARK  8 active torsions:
REMARK  status: ('A' for Active; 'I' for Inactive)
REMARK       I    between atoms: C2_2  and  N1_4 
REMARK    1  A    between atoms: N1_4  and  N2_6 
REMARK    2  A    between atoms: C3_7  and  O2_8 
REMARK    3  A    between atoms: C4_10  and  C5_11 
REMARK       I    between atoms: C5_11  and  N3_13 
REMARK    4  A    between atoms: N3_13  and  N4_15 
REMARK    5  A    between atoms: N4_15  and  S1_17 
REMARK    6  A    between atoms: S1_17  and  C6_20 
REMARK    7  A    between atoms: C9_23  and  O6_24 
REMARK    8  A    between atoms: N5_30  and  N6_31 
ROOT
HETATM    1  N2  UNL     1       2.350  18.458  22.998  1.00  0.00    -0.202 N 
HETATM    2  C3  UNL     1       3.281  18.315  23.989  1.00  0.00     0.186 A 
HETATM    3  C4  UNL     1       4.012  17.137  24.218  1.00  0.00     0.155 A 
HETATM    4  C12 UNL     1       3.743  16.108  23.379  1.00  0.00     0.288 A 
HETATM    5  O7  UNL     1       4.335  15.004  23.486  1.00  0.00    -0.265 OA
HETATM    6  N5  UNL     1       2.839  16.210  22.397  1.00  0.00    -0.197 N 
HETATM    7  C13 UNL     1       2.153  17.392  22.223  1.00  0.00     0.224 A 
HETATM    8  S2  UNL     1       1.088  17.382  20.995  1.00  0.00    -0.037 SA
ENDROOT
BRANCH   3   9
HETATM    9  C5  UNL     1       4.990  17.129  25.297  1.00  0.00     0.280 C 
HETATM   10  O3  UNL     1       4.556  17.465  26.457  1.00  0.00    -0.266 OA
HETATM   11  N3  UNL     1       6.321  16.798  25.200  1.00  0.00    -0.256 N 
ATOM     12  H3  UNL     1       6.680  16.528  24.285  1.00  0.00     0.191 HD
BRANCH  11  13
HETATM   13  N4  UNL     1       7.196  16.809  26.253  1.00  0.00    -0.220 N 
ATOM     14  H4  UNL     1       6.853  16.924  27.206  1.00  0.00     0.200 HD
BRANCH  13  15
HETATM   15  S1  UNL     1       8.837  16.631  25.963  1.00  0.00     0.276 S 
HETATM   16  O4  UNL     1       9.276  17.417  24.767  1.00  0.00    -0.199 OA
HETATM   17  O5  UNL     1       9.173  15.175  25.608  1.00  0.00    -0.199 OA
BRANCH  15  18
HETATM   18  C6  UNL     1       9.877  17.114  27.302  1.00  0.00     0.081 A 
HETATM   19  C7  UNL     1      10.319  16.246  28.262  1.00  0.00     0.028 A 
HETATM   20  C8  UNL     1      11.184  16.667  29.275  1.00  0.00     0.038 A 
HETATM   21  C9  UNL     1      11.629  17.974  29.351  1.00  0.00     0.065 A 
HETATM   22  C10 UNL     1      11.189  18.860  28.390  1.00  0.00     0.038 A 
HETATM   23  C11 UNL     1      10.321  18.433  27.376  1.00  0.00     0.028 A 
BRANCH  21  24
HETATM   24  O6  UNL     1      12.497  18.385  30.367  1.00  0.00    -0.361 OA
ATOM     25  H6  UNL     1      13.301  17.913  30.549  1.00  0.00     0.217 HD
ENDBRANCH  21  24
ENDBRANCH  15  18
ENDBRANCH  13  15
ENDBRANCH  11  13
ENDBRANCH   3   9
BRANCH   2  26
HETATM   26  O2  UNL     1       3.523  19.391  24.822  1.00  0.00    -0.344 OA
ATOM     27  H2  UNL     1       3.211  19.347  25.719  1.00  0.00     0.219 HD
ENDBRANCH   2  26
BRANCH   1  28
HETATM   28  N1  UNL     1       1.691  19.645  22.909  1.00  0.00    -0.259 N 
HETATM   29  C2  UNL     1       0.598  20.289  23.442  1.00  0.00     0.232 C 
HETATM   30  C1  UNL     1       0.308  21.712  22.963  1.00  0.00     0.119 C 
HETATM   31  O1  UNL     1      -0.214  19.886  24.280  1.00  0.00    -0.272 OA
ATOM     32  H1  UNL     1       2.155  20.250  22.230  1.00  0.00     0.190 HD
ENDBRANCH   1  28
BRANCH   6  33
HETATM   33  N6  UNL     1       2.599  15.111  21.556  1.00  0.00    -0.333 N 
ATOM     34  H62 UNL     1       2.625  14.160  21.922  1.00  0.00     0.177 HD
ATOM     35  H61 UNL     1       2.399  15.266  20.568  1.00  0.00     0.177 HD
ENDBRANCH   6  33
TORSDOF 8
ENDMDL
MODEL 2
REMARK VINA RESULT: -9.769805350      5.584      8.134
REMARK  8 active torsions:
REMARK  status: ('A' for Active; 'I' for Inactive)
REMARK       I    between atoms: C2_2  and  N1_4 
REMARK    1  A    between atoms: N1_4  and  N2_6 
REMARK    2  A    between atoms: C3_7  and  O2_8 
REMARK    3  A    between atoms: C4_10  and  C5_11 
REMARK       I    between atoms: C5_11  and  N3_13 
REMARK    4  A    between atoms: N3_13  and  N4_15 
REMARK    5  A    between atoms: N4_15  and  S1_17 
REMARK    6  A    between atoms: S1_17  and  C6_20 
REMARK    7  A    between atoms: C9_23  and  O6_24 
REMARK    8  A    between atoms: N5_30  and  N6_31 
ROOT
HETATM    1  N2  UNL     1       4.397  14.063  19.377  1.00  0.00    -0.202 N 
HETATM    2  C3  UNL     1       4.066  14.185  20.698  1.00  0.00     0.186 A 
HETATM    3  C4  UNL     1       3.871  15.413  21.351  1.00  0.00     0.155 A 
HETATM    4  C12 UNL     1       4.031  16.517  20.583  1.00  0.00     0.288 A 
HETATM    5  O7  UNL     1       3.882  17.672  21.057  1.00  0.00    -0.265 OA
HETATM    6  N5  UNL     1       4.354  16.439  19.286  1.00  0.00    -0.197 N 
HETATM    7  C13 UNL     1       4.533  15.204  18.702  1.00  0.00     0.224 A 
HETATM    8  S2  UNL     1       4.921  15.251  17.124  1.00  0.00    -0.037 SA
ENDROOT
BRANCH   3   9
HETATM    9  C5  UNL     1       3.500  15.397  22.759  1.00  0.00     0.280 C 
HETATM   10  O3  UNL     1       4.224  14.668  23.527  1.00  0.00    -0.266 OA
HETATM   11  N3  UNL     1       2.460  16.080  23.345  1.00  0.00    -0.256 N 
ATOM     12  H3  UNL     1       1.876  16.664  22.747  1.00  0.00     0.191 HD
BRANCH  11  13
HETATM   13  N4  UNL     1       2.157  16.026  24.679  1.00  0.00    -0.220 N 
ATOM     14  H4  UNL     1       1.831  15.155  25.098  1.00  0.00     0.200 HD
BRANCH  13  15
HETATM   15  S1  UNL     1       2.327  17.402  25.620  1.00  0.00     0.276 S 
HETATM   16  O4  UNL     1       3.759  17.654  25.976  1.00  0.00    -0.199 OA
HETATM   17  O5  UNL     1       1.622  17.227  26.972  1.00  0.00    -0.199 OA
BRANCH  15  18
HETATM   18  C6  UNL     1       1.716  18.880  24.879  1.00  0.00     0.081 A 
HETATM   19  C7  UNL     1       1.228  18.935  23.602  1.00  0.00     0.028 A 
HETATM   20  C8  UNL     1       0.707  20.120  23.078  1.00  0.00     0.038 A 
HETATM   21  C9  UNL     1       0.663  21.284  23.822  1.00  0.00     0.065 A 
HETATM   22  C10 UNL     1       1.154  21.243  25.110  1.00  0.00     0.038 A 
HETATM   23  C11 UNL     1       1.676  20.052  25.632  1.00  0.00     0.028 A 
BRANCH  21  24
HETATM   24  O6  UNL     1       0.137  22.465  23.289  1.00  0.00    -0.361 OA
ATOM     25  H6  UNL     1       0.006  23.235  23.831  1.00  0.00     0.217 HD
ENDBRANCH  21  24
ENDBRANCH  15  18
ENDBRANCH  13  15
ENDBRANCH  11  13
ENDBRANCH   3   9
BRANCH   2  26
HETATM   26  O2  UNL     1       3.913  13.031  21.444  1.00  0.00    -0.344 OA
ATOM     27  H2  UNL     1       3.067  12.858  21.841  1.00  0.00     0.219 HD
ENDBRANCH   2  26
BRANCH   1  28
HETATM   28  N1  UNL     1       4.588  12.811  18.880  1.00  0.00    -0.259 N 
HETATM   29  C2  UNL     1       4.067  11.962  17.931  1.00  0.00     0.232 C 
HETATM   30  C1  UNL     1       4.717  10.587  17.774  1.00  0.00     0.119 C 
HETATM   31  O1  UNL     1       3.124  12.141  17.155  1.00  0.00    -0.272 OA
ATOM     32  H1  UNL     1       5.363  12.359  19.364  1.00  0.00     0.190 HD
ENDBRANCH   1  28
BRANCH   6  33
HETATM   33  N6  UNL     1       4.508  17.616  18.536  1.00  0.00    -0.333 N 
ATOM     34  H62 UNL     1       3.980  17.758  17.675  1.00  0.00     0.177 HD
ATOM     35  H61 UNL     1       5.157  18.337  18.854  1.00  0.00     0.177 HD
ENDBRANCH   6  33
TORSDOF 8
ENDMDL
MODEL 3
REMARK VINA RESULT: -9.535783230      1.368      1.565
REMARK  8 active torsions:
REMARK  status: ('A' for Active; 'I' for Inactive)
REMARK       I    between atoms: C2_2  and  N1_4 
REMARK    1  A    between atoms: N1_4  and  N2_6 
REMARK    2  A    between atoms: C3_7  and  O2_8 
REMARK    3  A    between atoms: C4_10  and  C5_11 
REMARK       I    between atoms: C5_11  and  N3_13 
REMARK    4  A    between atoms: N3_13  and  N4_15 
REMARK    5  A    between atoms: N4_15  and  S1_17 
REMARK    6  A    between atoms: S1_17  and  C6_20 
REMARK    7  A    between atoms: C9_23  and  O6_24 
REMARK    8  A    between atoms: N5_30  and  N6_31 
ROOT
HETATM    1  N2  UNL     1       1.783  17.724  23.075  1.00  0.00    -0.202 N 
HETATM    2  C3  UNL     1       2.733  17.400  24.003  1.00  0.00     0.186 A 
HETATM    3  C4  UNL     1       3.756  16.463  23.787  1.00  0.00     0.155 A 
HETATM    4  C12 UNL     1       3.761  15.870  22.570  1.00  0.00     0.288 A 
HETATM    5  O7  UNL     1       4.630  15.014  22.261  1.00  0.00    -0.265 OA
HETATM    6  N5  UNL     1       2.849  16.161  21.635  1.00  0.00    -0.197 N 
HETATM    7  C13 UNL     1       1.868  17.089  21.906  1.00  0.00     0.224 A 
HETATM    8  S2  UNL     1       0.826  17.350  20.686  1.00  0.00    -0.037 SA
ENDROOT
BRANCH   3   9
HETATM    9  C5  UNL     1       4.717  16.229  24.857  1.00  0.00     0.280 C 
HETATM   10  O3  UNL     1       4.571  15.140  25.521  1.00  0.00    -0.266 OA
HETATM   11  N3  UNL     1       5.758  17.049  25.224  1.00  0.00    -0.256 N 
ATOM     12  H3  UNL     1       5.887  17.917  24.704  1.00  0.00     0.191 HD
BRANCH  11  13
HETATM   13  N4  UNL     1       6.632  16.777  26.242  1.00  0.00    -0.220 N 
ATOM     14  H4  UNL     1       6.437  16.021  26.899  1.00  0.00     0.200 HD
BRANCH  13  15
HETATM   15  S1  UNL     1       8.026  17.694  26.400  1.00  0.00     0.276 S 
HETATM   16  O4  UNL     1       7.720  19.094  26.830  1.00  0.00    -0.199 OA
HETATM   17  O5  UNL     1       8.728  17.855  25.044  1.00  0.00    -0.199 OA
BRANCH  15  18
HETATM   18  C6  UNL     1       9.202  17.052  27.545  1.00  0.00     0.081 A 
HETATM   19  C7  UNL     1       9.671  15.768  27.502  1.00  0.00     0.028 A 
HETATM   20  C8  UNL     1      10.642  15.323  28.402  1.00  0.00     0.038 A 
HETATM   21  C9  UNL     1      11.169  16.156  29.371  1.00  0.00     0.065 A 
HETATM   22  C10 UNL     1      10.703  17.452  29.427  1.00  0.00     0.038 A 
HETATM   23  C11 UNL     1       9.729  17.895  28.522  1.00  0.00     0.028 A 
BRANCH  21  24
HETATM   24  O6  UNL     1      12.143  15.701  30.266  1.00  0.00    -0.361 OA
ATOM     25  H6  UNL     1      11.912  15.416  31.142  1.00  0.00     0.217 HD
ENDBRANCH  21  24
ENDBRANCH  15  18
ENDBRANCH  13  15
ENDBRANCH  11  13
ENDBRANCH   3   9
BRANCH   2  26
HETATM   26  O2  UNL     1       2.689  18.030  25.233  1.00  0.00    -0.344 OA
ATOM     27  H2  UNL     1       1.984  17.806  25.830  1.00  0.00     0.219 HD
ENDBRANCH   2  26
BRANCH   1  28
HETATM   28  N1  UNL     1       0.828  18.627  23.427  1.00  0.00    -0.259 N 
HETATM   29  C2  UNL     1       0.712  19.940  23.824  1.00  0.00     0.232 C 
HETATM   30  C1  UNL     1      -0.694  20.479  24.093  1.00  0.00     0.119 C 
HETATM   31  O1  UNL     1       1.595  20.783  24.001  1.00  0.00    -0.272 OA
ATOM     32  H1  UNL     1      -0.094  18.193  23.384  1.00  0.00     0.190 HD
ENDBRANCH   1  28
BRANCH   6  33
HETATM   33  N6  UNL     1       2.900  15.515  20.388  1.00  0.00    -0.333 N 
ATOM     34  H62 UNL     1       3.290  15.988  19.573  1.00  0.00     0.177 HD
ATOM     35  H61 UNL     1       2.542  14.565  20.297  1.00  0.00     0.177 HD
ENDBRANCH   6  33
TORSDOF 8
ENDMDL
MODEL 4
REMARK VINA RESULT: -9.405422488      1.891      2.309
REMARK  8 active torsions:
REMARK  status: ('A' for Active; 'I' for Inactive)
REMARK       I    between atoms: C2_2  and  N1_4 
REMARK    1  A    between atoms: N1_4  and  N2_6 
REMARK    2  A    between atoms: C3_7  and  O2_8 
REMARK    3  A    between atoms: C4_10  and  C5_11 
REMARK       I    between atoms: C5_11  and  N3_13 
REMARK    4  A    between atoms: N3_13  and  N4_15 
REMARK    5  A    between atoms: N4_15  and  S1_17 
REMARK    6  A    between atoms: S1_17  and  C6_20 
REMARK    7  A    between atoms: C9_23  and  O6_24 
REMARK    8  A    between atoms: N5_30  and  N6_31 
ROOT
HETATM    1  N2  UNL     1       1.812  17.854  23.100  1.00  0.00    -0.202 N 
HETATM    2  C3  UNL     1       2.755  17.564  24.046  1.00  0.00     0.186 A 
HETATM    3  C4  UNL     1       3.800  16.644  23.858  1.00  0.00     0.155 A 
HETATM    4  C12 UNL     1       3.835  16.034  22.649  1.00  0.00     0.288 A 
HETATM    5  O7  UNL     1       4.725  15.192  22.365  1.00  0.00    -0.265 OA
HETATM    6  N5  UNL     1       2.930  16.293  21.697  1.00  0.00    -0.197 N 
HETATM    7  C13 UNL     1       1.926  17.205  21.942  1.00  0.00     0.224 A 
HETATM    8  S2  UNL     1       0.897  17.427  20.703  1.00  0.00    -0.037 SA
ENDROOT
BRANCH   3   9
HETATM    9  C5  UNL     1       4.750  16.445  24.944  1.00  0.00     0.280 C 
HETATM   10  O3  UNL     1       4.705  15.306  25.534  1.00  0.00    -0.266 OA
HETATM   11  N3  UNL     1       5.685  17.346  25.397  1.00  0.00    -0.256 N 
ATOM     12  H3  UNL     1       5.734  18.255  24.937  1.00  0.00     0.191 HD
BRANCH  11  13
HETATM   13  N4  UNL     1       6.554  17.103  26.426  1.00  0.00    -0.220 N 
ATOM     14  H4  UNL     1       6.222  16.674  27.290  1.00  0.00     0.200 HD
BRANCH  13  15
HETATM   15  S1  UNL     1       8.170  17.515  26.256  1.00  0.00     0.276 S 
HETATM   16  O4  UNL     1       8.538  18.678  27.123  1.00  0.00    -0.199 OA
HETATM   17  O5  UNL     1       8.461  17.996  24.828  1.00  0.00    -0.199 OA
BRANCH  15  18
HETATM   18  C6  UNL     1       9.303  16.218  26.631  1.00  0.00     0.081 A 
HETATM   19  C7  UNL     1       9.603  15.826  27.906  1.00  0.00     0.028 A 
HETATM   20  C8  UNL     1      10.469  14.758  28.150  1.00  0.00     0.038 A 
HETATM   21  C9  UNL     1      11.059  14.053  27.117  1.00  0.00     0.065 A 
HETATM   22  C10 UNL     1      10.767  14.439  25.826  1.00  0.00     0.038 A 
HETATM   23  C11 UNL     1       9.897  15.511  25.586  1.00  0.00     0.028 A 
BRANCH  21  24
HETATM   24  O6  UNL     1      11.923  12.983  27.371  1.00  0.00    -0.361 OA
ATOM     25  H6  UNL     1      12.716  12.858  26.862  1.00  0.00     0.217 HD
ENDBRANCH  21  24
ENDBRANCH  15  18
ENDBRANCH  13  15
ENDBRANCH  11  13
ENDBRANCH   3   9
BRANCH   2  26
HETATM   26  O2  UNL     1       2.681  18.209  25.266  1.00  0.00    -0.344 OA
ATOM     27  H2  UNL     1       2.521  17.687  26.044  1.00  0.00     0.219 HD
ENDBRANCH   2  26
BRANCH   1  28
HETATM   28  N1  UNL     1       0.834  18.743  23.426  1.00  0.00    -0.259 N 
HETATM   29  C2  UNL     1       0.689  20.042  23.854  1.00  0.00     0.232 C 
HETATM   30  C1  UNL     1      -0.733  20.567  24.062  1.00  0.00     0.119 C 
HETATM   31  O1  UNL     1       1.556  20.884  24.105  1.00  0.00    -0.272 OA
ATOM     32  H1  UNL     1      -0.082  18.307  23.319  1.00  0.00     0.190 HD
ENDBRANCH   1  28
BRANCH   6  33
HETATM   33  N6  UNL     1       3.012  15.632  20.461  1.00  0.00    -0.333 N 
ATOM     34  H62 UNL     1       2.174  15.457  19.907  1.00  0.00     0.177 HD
ATOM     35  H61 UNL     1       3.919  15.320  20.114  1.00  0.00     0.177 HD
ENDBRANCH   6  33
TORSDOF 8
ENDMDL
MODEL 5
REMARK VINA RESULT: -9.373589336      2.805      9.265
REMARK  8 active torsions:
REMARK  status: ('A' for Active; 'I' for Inactive)
REMARK       I    between atoms: C2_2  and  N1_4 
REMARK    1  A    between atoms: N1_4  and  N2_6 
REMARK    2  A    between atoms: C3_7  and  O2_8 
REMARK    3  A    between atoms: C4_10  and  C5_11 
REMARK       I    between atoms: C5_11  and  N3_13 
REMARK    4  A    between atoms: N3_13  and  N4_15 
REMARK    5  A    between atoms: N4_15  and  S1_17 
REMARK    6  A    between atoms: S1_17  and  C6_20 
REMARK    7  A    between atoms: C9_23  and  O6_24 
REMARK    8  A    between atoms: N5_30  and  N6_31 
ROOT
HETATM    1  N2  UNL     1       9.023  18.910  27.925  1.00  0.00    -0.202 N 
HETATM    2  C3  UNL     1       7.960  19.229  27.126  1.00  0.00     0.186 A 
HETATM    3  C4  UNL     1       7.414  18.367  26.161  1.00  0.00     0.155 A 
HETATM    4  C12 UNL     1       8.011  17.156  26.053  1.00  0.00     0.288 A 
HETATM    5  O7  UNL     1       7.609  16.300  25.224  1.00  0.00    -0.265 OA
HETATM    6  N5  UNL     1       9.053  16.807  26.817  1.00  0.00    -0.197 N 
HETATM    7  C13 UNL     1       9.545  17.697  27.747  1.00  0.00     0.224 A 
HETATM    8  S2  UNL     1      10.808  17.147  28.608  1.00  0.00    -0.037 SA
ENDROOT
BRANCH   3   9
HETATM    9  C5  UNL     1       6.266  18.828  25.392  1.00  0.00     0.280 C 
HETATM   10  O3  UNL     1       6.387  19.972  24.825  1.00  0.00    -0.266 OA
HETATM   11  N3  UNL     1       5.075  18.164  25.213  1.00  0.00    -0.256 N 
ATOM     12  H3  UNL     1       4.965  17.253  25.657  1.00  0.00     0.191 HD
BRANCH  11  13
HETATM   13  N4  UNL     1       4.027  18.648  24.477  1.00  0.00    -0.220 N 
ATOM     14  H4  UNL     1       4.042  18.588  23.459  1.00  0.00     0.200 HD
BRANCH  13  15
HETATM   15  S1  UNL     1       2.717  19.339  25.262  1.00  0.00     0.276 S 
HETATM   16  O4  UNL     1       3.152  20.341  26.285  1.00  0.00    -0.199 OA
HETATM   17  O5  UNL     1       1.945  18.282  26.065  1.00  0.00    -0.199 OA
BRANCH  15  18
HETATM   18  C6  UNL     1       1.571  20.155  24.200  1.00  0.00     0.081 A 
HETATM   19  C7  UNL     1       0.881  21.279  24.561  1.00  0.00     0.028 A 
HETATM   20  C8  UNL     1       0.021  21.919  23.665  1.00  0.00     0.038 A 
HETATM   21  C9  UNL     1      -0.170  21.445  22.380  1.00  0.00     0.065 A 
HETATM   22  C10 UNL     1       0.518  20.310  22.004  1.00  0.00     0.038 A 
HETATM   23  C11 UNL     1       1.379  19.672  22.907  1.00  0.00     0.028 A 
BRANCH  21  24
HETATM   24  O6  UNL     1      -1.031  22.094  21.489  1.00  0.00    -0.361 OA
ATOM     25  H6  UNL     1      -1.464  21.619  20.789  1.00  0.00     0.217 HD
ENDBRANCH  21  24
ENDBRANCH  15  18
ENDBRANCH  13  15
ENDBRANCH  11  13
ENDBRANCH   3   9
BRANCH   2  26
HETATM   26  O2  UNL     1       7.383  20.477  27.271  1.00  0.00    -0.344 OA
ATOM     27  H2  UNL     1       6.489  20.527  27.589  1.00  0.00     0.219 HD
ENDBRANCH   2  26
BRANCH   1  28
HETATM   28  N1  UNL     1       9.471  19.854  28.797  1.00  0.00    -0.259 N 
HETATM   29  C2  UNL     1      10.405  20.862  28.874  1.00  0.00     0.232 C 
HETATM   30  C1  UNL     1      10.473  21.670  30.170  1.00  0.00     0.119 C 
HETATM   31  O1  UNL     1      11.225  21.234  28.030  1.00  0.00    -0.272 OA
ATOM     32  H1  UNL     1       8.950  19.794  29.672  1.00  0.00     0.190 HD
ENDBRANCH   1  28
BRANCH   6  33
HETATM   33  N6  UNL     1       9.634  15.537  26.662  1.00  0.00    -0.333 N 
ATOM     34  H62 UNL     1       9.540  15.025  25.786  1.00  0.00     0.177 HD
ATOM     35  H61 UNL     1      10.154  15.123  27.436  1.00  0.00     0.177 HD
ENDBRANCH   6  33
TORSDOF 8
ENDMDL
