MODEL 1
REMARK VINA RESULT: -5.774394815      0.000      0.000
REMARK  6 active torsions:
REMARK  status: ('A' for Active; 'I' for Inactive)
REMARK    1  A    between atoms: S1_2  and  N1_3 
REMARK    2  A    between atoms: S1_2  and  C2_6 
REMARK    3  A    between atoms: C2_6  and  C3_7 
REMARK    4  A    between atoms: N2_9  and  N3_10 
REMARK    5  A    between atoms: C5_13  and  C6_14 
REMARK    6  A    between atoms: C6_14  and  O1_15 
ROOT
HETATM    1  C3  UNL     1     -12.058  25.494  41.289  1.00  0.00     0.148 C 
HETATM    2  C4  UNL     1     -11.566  26.898  40.912  1.00  0.00     0.148 C 
HETATM    3  N2  UNL     1     -10.944  27.341  42.125  1.00  0.00    -0.204 NA
HETATM    4  C5  UNL     1     -11.199  26.308  43.092  1.00  0.00     0.238 C 
HETATM    5  O2  UNL     1     -11.165  25.143  42.315  1.00  0.00    -0.360 OA
ENDROOT
BRANCH   1   6
HETATM    6  C2  UNL     1     -11.884  24.637  40.077  1.00  0.00     0.117 C 
BRANCH   6   7
HETATM    7  S1  UNL     1     -11.859  25.543  38.573  1.00  0.00    -0.136 SA
HETATM    8  C1  UNL     1     -13.517  25.673  37.900  1.00  0.00     0.101 C 
BRANCH   7   9
HETATM    9  N1  UNL     1     -10.944  24.628  37.417  1.00  0.00    -0.383 NA
ATOM     10  H12 UNL     1     -11.507  24.543  36.571  1.00  0.00     0.163 HD
ATOM     11  H11 UNL     1     -10.104  25.174  37.228  1.00  0.00     0.163 HD
ENDBRANCH   7   9
ENDBRANCH   6   7
ENDBRANCH   1   6
BRANCH   3  12
HETATM   12  N3  UNL     1     -11.333  28.590  42.553  1.00  0.00    -0.361 NA
ATOM     13  H32 UNL     1     -10.590  29.101  43.030  1.00  0.00     0.171 HD
ATOM     14  H31 UNL     1     -12.126  28.597  43.195  1.00  0.00     0.171 HD
ENDBRANCH   3  12
BRANCH   4  15
HETATM   15  C6  UNL     1     -10.099  26.318  44.126  1.00  0.00     0.213 C 
BRANCH  15  16
HETATM   16  O1  UNL     1     -10.449  27.267  45.085  1.00  0.00    -0.397 OA
ATOM     17  H1  UNL     1     -10.218  26.905  45.933  1.00  0.00     0.209 HD
ENDBRANCH  15  16
ENDBRANCH   4  15
TORSDOF 6
ENDMDL
MODEL 2
REMARK VINA RESULT: -5.584418266      1.855      2.077
REMARK  6 active torsions:
REMARK  status: ('A' for Active; 'I' for Inactive)
REMARK    1  A    between atoms: S1_2  and  N1_3 
REMARK    2  A    between atoms: S1_2  and  C2_6 
REMARK    3  A    between atoms: C2_6  and  C3_7 
REMARK    4  A    between atoms: N2_9  and  N3_10 
REMARK    5  A    between atoms: C5_13  and  C6_14 
REMARK    6  A    between atoms: C6_14  and  O1_15 
ROOT
HETATM    1  C3  UNL     1     -11.594  26.099  41.178  1.00  0.00     0.148 C 
HETATM    2  C4  UNL     1     -10.865  24.892  41.786  1.00  0.00     0.148 C 
HETATM    3  N2  UNL     1     -10.554  25.353  43.106  1.00  0.00    -0.204 NA
HETATM    4  C5  UNL     1     -10.973  26.729  43.145  1.00  0.00     0.238 C 
HETATM    5  O2  UNL     1     -12.107  26.730  42.323  1.00  0.00    -0.360 OA
ENDROOT
BRANCH   1   6
HETATM    6  C2  UNL     1     -12.677  25.553  40.305  1.00  0.00     0.117 C 
BRANCH   6   7
HETATM    7  S1  UNL     1     -12.648  26.188  38.668  1.00  0.00    -0.136 SA
HETATM    8  C1  UNL     1     -13.082  27.929  38.671  1.00  0.00     0.101 C 
BRANCH   7   9
HETATM    9  N1  UNL     1     -13.895  25.387  37.766  1.00  0.00    -0.383 NA
ATOM     10  H12 UNL     1     -13.560  24.452  37.535  1.00  0.00     0.163 HD
ATOM     11  H11 UNL     1     -14.699  25.328  38.389  1.00  0.00     0.163 HD
ENDBRANCH   7   9
ENDBRANCH   6   7
ENDBRANCH   1   6
BRANCH   3  12
HETATM   12  N3  UNL     1      -9.244  25.176  43.488  1.00  0.00    -0.361 NA
ATOM     13  H32 UNL     1      -8.894  24.237  43.299  1.00  0.00     0.171 HD
ATOM     14  H31 UNL     1      -9.058  25.343  44.478  1.00  0.00     0.171 HD
ENDBRANCH   3  12
BRANCH   4  15
HETATM   15  C6  UNL     1     -11.317  27.100  44.568  1.00  0.00     0.213 C 
BRANCH  15  16
HETATM   16  O1  UNL     1     -10.115  27.360  45.224  1.00  0.00    -0.397 OA
ATOM     17  H1  UNL     1     -10.203  27.028  46.109  1.00  0.00     0.209 HD
ENDBRANCH  15  16
ENDBRANCH   4  15
TORSDOF 6
ENDMDL
MODEL 3
REMARK VINA RESULT: -5.512933712      1.954      2.351
REMARK  6 active torsions:
REMARK  status: ('A' for Active; 'I' for Inactive)
REMARK    1  A    between atoms: S1_2  and  N1_3 
REMARK    2  A    between atoms: S1_2  and  C2_6 
REMARK    3  A    between atoms: C2_6  and  C3_7 
REMARK    4  A    between atoms: N2_9  and  N3_10 
REMARK    5  A    between atoms: C5_13  and  C6_14 
REMARK    6  A    between atoms: C6_14  and  O1_15 
ROOT
HETATM    1  C3  UNL     1     -11.542  27.345  41.516  1.00  0.00     0.148 C 
HETATM    2  C4  UNL     1     -11.597  25.811  41.569  1.00  0.00     0.148 C 
HETATM    3  N2  UNL     1     -10.981  25.525  42.831  1.00  0.00    -0.204 NA
HETATM    4  C5  UNL     1     -10.530  26.793  43.339  1.00  0.00     0.238 C 
HETATM    5  O2  UNL     1     -11.514  27.677  42.880  1.00  0.00    -0.360 OA
ENDROOT
BRANCH   1   6
HETATM    6  C2  UNL     1     -12.803  27.798  40.854  1.00  0.00     0.117 C 
BRANCH   6   7
HETATM    7  S1  UNL     1     -12.767  27.662  39.104  1.00  0.00    -0.136 SA
HETATM    8  C1  UNL     1     -13.520  26.117  38.587  1.00  0.00     0.101 C 
BRANCH   7   9
HETATM    9  N1  UNL     1     -11.106  27.571  38.612  1.00  0.00    -0.383 NA
ATOM     10  H12 UNL     1     -10.561  27.246  39.411  1.00  0.00     0.163 HD
ATOM     11  H11 UNL     1     -11.072  26.882  37.861  1.00  0.00     0.163 HD
ENDBRANCH   7   9
ENDBRANCH   6   7
ENDBRANCH   1   6
BRANCH   3  12
HETATM   12  N3  UNL     1      -9.986  24.575  42.788  1.00  0.00    -0.361 NA
ATOM     13  H32 UNL     1     -10.009  23.934  43.582  1.00  0.00     0.171 HD
ATOM     14  H31 UNL     1      -9.037  24.947  42.763  1.00  0.00     0.171 HD
ENDBRANCH   3  12
BRANCH   4  15
HETATM   15  C6  UNL     1     -10.493  26.736  44.847  1.00  0.00     0.213 C 
BRANCH  15  16
HETATM   16  O1  UNL     1      -9.441  25.890  45.197  1.00  0.00    -0.397 OA
ATOM     17  H1  UNL     1      -9.590  25.617  46.095  1.00  0.00     0.209 HD
ENDBRANCH  15  16
ENDBRANCH   4  15
TORSDOF 6
ENDMDL
MODEL 4
REMARK VINA RESULT: -5.340502740      1.705      1.823
REMARK  6 active torsions:
REMARK  status: ('A' for Active; 'I' for Inactive)
REMARK    1  A    between atoms: S1_2  and  N1_3 
REMARK    2  A    between atoms: S1_2  and  C2_6 
REMARK    3  A    between atoms: C2_6  and  C3_7 
REMARK    4  A    between atoms: N2_9  and  N3_10 
REMARK    5  A    between atoms: C5_13  and  C6_14 
REMARK    6  A    between atoms: C6_14  and  O1_15 
ROOT
HETATM    1  C3  UNL     1     -12.103  26.335  41.672  1.00  0.00     0.148 C 
HETATM    2  C4  UNL     1     -11.814  27.636  42.433  1.00  0.00     0.148 C 
HETATM    3  N2  UNL     1     -10.891  27.205  43.441  1.00  0.00    -0.204 NA
HETATM    4  C5  UNL     1     -10.801  25.776  43.298  1.00  0.00     0.238 C 
HETATM    5  O2  UNL     1     -10.934  25.595  41.916  1.00  0.00    -0.360 OA
ENDROOT
BRANCH   1   6
HETATM    6  C2  UNL     1     -12.245  26.701  40.230  1.00  0.00     0.117 C 
BRANCH   6   7
HETATM    7  S1  UNL     1     -12.656  25.343  39.196  1.00  0.00    -0.136 SA
HETATM    8  C1  UNL     1     -11.267  24.926  38.139  1.00  0.00     0.101 C 
BRANCH   7   9
HETATM    9  N1  UNL     1     -13.929  25.851  38.133  1.00  0.00    -0.383 NA
ATOM     10  H12 UNL     1     -14.577  26.423  38.674  1.00  0.00     0.163 HD
ATOM     11  H11 UNL     1     -13.483  26.415  37.410  1.00  0.00     0.163 HD
ENDBRANCH   7   9
ENDBRANCH   6   7
ENDBRANCH   1   6
BRANCH   3  12
HETATM   12  N3  UNL     1     -11.203  27.602  44.721  1.00  0.00    -0.361 NA
ATOM     13  H32 UNL     1     -10.406  27.988  45.227  1.00  0.00     0.171 HD
ATOM     14  H31 UNL     1     -11.577  26.865  45.320  1.00  0.00     0.171 HD
ENDBRANCH   3  12
BRANCH   4  15
HETATM   15  C6  UNL     1      -9.450  25.316  43.791  1.00  0.00     0.213 C 
BRANCH  15  16
HETATM   16  O1  UNL     1      -9.435  25.502  45.173  1.00  0.00    -0.397 OA
ATOM     17  H1  UNL     1     -10.313  25.323  45.488  1.00  0.00     0.209 HD
ENDBRANCH  15  16
ENDBRANCH   4  15
TORSDOF 6
ENDMDL
MODEL 5
REMARK VINA RESULT: -5.241920781      2.922      5.072
REMARK  6 active torsions:
REMARK  status: ('A' for Active; 'I' for Inactive)
REMARK    1  A    between atoms: S1_2  and  N1_3 
REMARK    2  A    between atoms: S1_2  and  C2_6 
REMARK    3  A    between atoms: C2_6  and  C3_7 
REMARK    4  A    between atoms: N2_9  and  N3_10 
REMARK    5  A    between atoms: C5_13  and  C6_14 
REMARK    6  A    between atoms: C6_14  and  O1_15 
ROOT
HETATM    1  C3  UNL     1     -12.415  25.844  40.821  1.00  0.00     0.148 C 
HETATM    2  C4  UNL     1     -12.281  24.976  39.562  1.00  0.00     0.148 C 
HETATM    3  N2  UNL     1     -12.710  25.868  38.526  1.00  0.00    -0.204 NA
HETATM    4  C5  UNL     1     -13.150  27.061  39.199  1.00  0.00     0.238 C 
HETATM    5  O2  UNL     1     -12.278  27.138  40.292  1.00  0.00    -0.360 OA
ENDROOT
BRANCH   1   6
HETATM    6  C2  UNL     1     -11.276  25.481  41.718  1.00  0.00     0.117 C 
BRANCH   6   7
HETATM    7  S1  UNL     1     -10.926  26.697  42.936  1.00  0.00    -0.136 SA
HETATM    8  C1  UNL     1     -12.412  27.095  43.859  1.00  0.00     0.101 C 
BRANCH   7   9
HETATM    9  N1  UNL     1     -10.468  28.155  42.115  1.00  0.00    -0.383 NA
ATOM     10  H12 UNL     1     -11.169  28.343  41.399  1.00  0.00     0.163 HD
ATOM     11  H11 UNL     1     -10.481  28.890  42.821  1.00  0.00     0.163 HD
ENDBRANCH   7   9
ENDBRANCH   6   7
ENDBRANCH   1   6
BRANCH   3  12
HETATM   12  N3  UNL     1     -13.655  25.350  37.669  1.00  0.00    -0.361 NA
ATOM     13  H32 UNL     1     -14.493  25.022  38.148  1.00  0.00     0.171 HD
ATOM     14  H31 UNL     1     -13.336  24.563  37.103  1.00  0.00     0.171 HD
ENDBRANCH   3  12
BRANCH   4  15
HETATM   15  C6  UNL     1     -12.984  28.240  38.271  1.00  0.00     0.213 C 
BRANCH  15  16
HETATM   16  O1  UNL     1     -14.227  28.475  37.683  1.00  0.00    -0.397 OA
ATOM     17  H1  UNL     1     -14.081  28.555  36.748  1.00  0.00     0.209 HD
ENDBRANCH  15  16
ENDBRANCH   4  15
TORSDOF 6
ENDMDL
