MODEL 1
REMARK VINA RESULT: -5.137911239      0.000      0.000
REMARK  5 active torsions:
REMARK  status: ('A' for Active; 'I' for Inactive)
REMARK    1  A    between atoms: C2_2  and  N1_3 
REMARK    2  A    between atoms: N2_6  and  C5_7 
REMARK    3  A    between atoms: C5_7  and  C6_8 
REMARK    4  A    between atoms: C6_8  and  N4_12 
REMARK    5  A    between atoms: N4_12  and  N5_14 
ROOT
HETATM    1  C5  UNL     1     -11.082  27.501  42.025  1.00  0.00     0.349 C 
ENDROOT
BRANCH   1   2
HETATM    2  N2  UNL     1     -12.203  26.911  41.348  1.00  0.00     0.098 N 
HETATM    3  C4  UNL     1     -12.160  25.493  41.254  1.00  0.00     0.292 C 
HETATM    4  C3  UNL     1     -11.367  24.934  40.139  1.00  0.00     0.147 C 
HETATM    5  N1  UNL     1     -11.500  25.597  38.894  1.00  0.00    -0.409 N 
HETATM    6  C8  UNL     1     -11.632  27.019  38.977  1.00  0.00     0.147 C 
HETATM    7  C7  UNL     1     -12.518  27.519  40.068  1.00  0.00     0.292 C 
BRANCH   5   8
HETATM    8  C2  UNL     1     -12.335  24.966  37.935  1.00  0.00     0.112 C 
HETATM    9  C1  UNL     1     -13.729  25.462  37.797  1.00  0.00     0.026 C 
ENDBRANCH   5   8
ENDBRANCH   1   2
BRANCH   1  10
HETATM   10  C6  UNL     1     -10.839  26.949  43.376  1.00  0.00     0.117 C 
HETATM   11  N3  UNL     1     -11.871  27.040  44.200  1.00  0.00    -0.386 N 
ATOM     12  H32 UNL     1     -12.723  27.471  43.840  1.00  0.00     0.157 HD
ATOM     13  H31 UNL     1     -11.704  26.660  45.132  1.00  0.00     0.157 HD
BRANCH  10  14
HETATM   14  N4  UNL     1      -9.669  26.358  43.870  1.00  0.00    -0.294 N 
ATOM     15  H4  UNL     1      -9.088  26.824  44.567  1.00  0.00     0.187 HD
BRANCH  14  16
HETATM   16  N5  UNL     1      -9.335  25.090  43.361  1.00  0.00    -0.344 N 
ATOM     17  H52 UNL     1      -8.373  24.872  43.100  1.00  0.00     0.176 HD
ATOM     18  H51 UNL     1     -10.095  24.416  43.269  1.00  0.00     0.176 HD
ENDBRANCH  14  16
ENDBRANCH  10  14
ENDBRANCH   1  10
TORSDOF 5
ENDMDL
MODEL 2
REMARK VINA RESULT: -5.126410874      1.897      4.979
REMARK  5 active torsions:
REMARK  status: ('A' for Active; 'I' for Inactive)
REMARK    1  A    between atoms: C2_2  and  N1_3 
REMARK    2  A    between atoms: N2_6  and  C5_7 
REMARK    3  A    between atoms: C5_7  and  C6_8 
REMARK    4  A    between atoms: C6_8  and  N4_12 
REMARK    5  A    between atoms: N4_12  and  N5_14 
ROOT
HETATM    1  C5  UNL     1     -13.085  27.687  40.146  1.00  0.00     0.349 C 
ENDROOT
BRANCH   1   2
HETATM    2  N2  UNL     1     -11.713  27.452  40.499  1.00  0.00     0.098 N 
HETATM    3  C4  UNL     1     -11.306  26.091  40.425  1.00  0.00     0.292 C 
HETATM    4  C3  UNL     1     -11.611  25.251  41.602  1.00  0.00     0.147 C 
HETATM    5  N1  UNL     1     -11.395  25.856  42.864  1.00  0.00    -0.409 N 
HETATM    6  C8  UNL     1     -11.718  27.248  42.931  1.00  0.00     0.147 C 
HETATM    7  C7  UNL     1     -11.304  28.061  41.751  1.00  0.00     0.292 C 
BRANCH   5   8
HETATM    8  C2  UNL     1     -10.209  25.475  43.545  1.00  0.00     0.112 C 
HETATM    9  C1  UNL     1      -9.932  26.107  44.861  1.00  0.00     0.026 C 
ENDBRANCH   5   8
ENDBRANCH   1   2
BRANCH   1  10
HETATM   10  C6  UNL     1     -13.332  27.714  38.687  1.00  0.00     0.117 C 
HETATM   11  N3  UNL     1     -13.259  28.917  38.140  1.00  0.00    -0.386 N 
ATOM     12  H32 UNL     1     -13.043  29.701  38.755  1.00  0.00     0.157 HD
ATOM     13  H31 UNL     1     -13.429  28.936  37.134  1.00  0.00     0.157 HD
BRANCH  10  14
HETATM   14  N4  UNL     1     -13.630  26.638  37.841  1.00  0.00    -0.294 N 
ATOM     15  H4  UNL     1     -13.381  26.651  36.852  1.00  0.00     0.187 HD
BRANCH  14  16
HETATM   16  N5  UNL     1     -14.287  25.538  38.421  1.00  0.00    -0.344 N 
ATOM     17  H52 UNL     1     -14.441  24.683  37.886  1.00  0.00     0.176 HD
ATOM     18  H51 UNL     1     -14.594  25.642  39.388  1.00  0.00     0.176 HD
ENDBRANCH  14  16
ENDBRANCH  10  14
ENDBRANCH   1  10
TORSDOF 5
ENDMDL
MODEL 3
REMARK VINA RESULT: -5.104356975      0.956      1.755
REMARK  5 active torsions:
REMARK  status: ('A' for Active; 'I' for Inactive)
REMARK    1  A    between atoms: C2_2  and  N1_3 
REMARK    2  A    between atoms: N2_6  and  C5_7 
REMARK    3  A    between atoms: C5_7  and  C6_8 
REMARK    4  A    between atoms: C6_8  and  N4_12 
REMARK    5  A    between atoms: N4_12  and  N5_14 
ROOT
HETATM    1  C5  UNL     1     -11.828  27.485  41.888  1.00  0.00     0.349 C 
ENDROOT
BRANCH   1   2
HETATM    2  N2  UNL     1     -11.308  26.826  40.723  1.00  0.00     0.098 N 
HETATM    3  C4  UNL     1     -11.567  27.497  39.497  1.00  0.00     0.292 C 
HETATM    4  C3  UNL     1     -12.886  27.250  38.880  1.00  0.00     0.147 C 
HETATM    5  N1  UNL     1     -13.345  25.910  38.919  1.00  0.00    -0.409 N 
HETATM    6  C8  UNL     1     -13.017  25.193  40.112  1.00  0.00     0.147 C 
HETATM    7  C7  UNL     1     -11.638  25.415  40.636  1.00  0.00     0.292 C 
BRANCH   5   8
HETATM    8  C2  UNL     1     -13.219  25.171  37.713  1.00  0.00     0.112 C 
HETATM    9  C1  UNL     1     -11.966  24.400  37.501  1.00  0.00     0.026 C 
ENDBRANCH   5   8
ENDBRANCH   1   2
BRANCH   1  10
HETATM   10  C6  UNL     1     -11.172  27.078  43.151  1.00  0.00     0.117 C 
HETATM   11  N3  UNL     1     -11.987  26.995  44.191  1.00  0.00    -0.386 N 
ATOM     12  H32 UNL     1     -12.971  27.212  44.035  1.00  0.00     0.157 HD
ATOM     13  H31 UNL     1     -11.535  26.714  45.061  1.00  0.00     0.157 HD
BRANCH  10  14
HETATM   14  N4  UNL     1      -9.820  26.780  43.365  1.00  0.00    -0.294 N 
ATOM     15  H4  UNL     1      -9.113  27.513  43.414  1.00  0.00     0.187 HD
BRANCH  14  16
HETATM   16  N5  UNL     1      -9.484  25.422  43.507  1.00  0.00    -0.344 N 
ATOM     17  H52 UNL     1      -9.460  24.804  42.696  1.00  0.00     0.176 HD
ATOM     18  H51 UNL     1      -9.271  25.097  44.451  1.00  0.00     0.176 HD
ENDBRANCH  14  16
ENDBRANCH  10  14
ENDBRANCH   1  10
TORSDOF 5
ENDMDL
MODEL 4
REMARK VINA RESULT: -5.061899418      1.910      5.290
REMARK  5 active torsions:
REMARK  status: ('A' for Active; 'I' for Inactive)
REMARK    1  A    between atoms: C2_2  and  N1_3 
REMARK    2  A    between atoms: N2_6  and  C5_7 
REMARK    3  A    between atoms: C5_7  and  C6_8 
REMARK    4  A    between atoms: C6_8  and  N4_12 
REMARK    5  A    between atoms: N4_12  and  N5_14 
ROOT
HETATM    1  C5  UNL     1     -12.154  26.585  39.459  1.00  0.00     0.349 C 
ENDROOT
BRANCH   1   2
HETATM    2  N2  UNL     1     -12.678  26.600  40.796  1.00  0.00     0.098 N 
HETATM    3  C4  UNL     1     -12.428  27.799  41.518  1.00  0.00     0.292 C 
HETATM    4  C3  UNL     1     -11.110  27.902  42.179  1.00  0.00     0.147 C 
HETATM    5  N1  UNL     1     -10.649  26.728  42.822  1.00  0.00    -0.409 N 
HETATM    6  C8  UNL     1     -10.969  25.506  42.152  1.00  0.00     0.147 C 
HETATM    7  C7  UNL     1     -12.346  25.427  41.584  1.00  0.00     0.292 C 
BRANCH   5   8
HETATM    8  C2  UNL     1     -10.779  26.697  44.236  1.00  0.00     0.112 C 
HETATM    9  C1  UNL     1      -9.861  25.811  44.997  1.00  0.00     0.026 C 
ENDBRANCH   5   8
ENDBRANCH   1   2
BRANCH   1  10
HETATM   10  C6  UNL     1     -13.194  26.626  38.407  1.00  0.00     0.117 C 
HETATM   11  N3  UNL     1     -13.666  25.439  38.055  1.00  0.00    -0.386 N 
ATOM     12  H32 UNL     1     -13.282  24.621  38.528  1.00  0.00     0.157 HD
ATOM     13  H31 UNL     1     -14.383  25.467  37.330  1.00  0.00     0.157 HD
BRANCH  10  14
HETATM   14  N4  UNL     1     -13.721  27.748  37.757  1.00  0.00    -0.294 N 
ATOM     15  H4  UNL     1     -14.339  27.657  36.950  1.00  0.00     0.187 HD
BRANCH  14  16
HETATM   16  N5  UNL     1     -13.359  29.007  38.268  1.00  0.00    -0.344 N 
ATOM     17  H52 UNL     1     -14.070  29.660  38.596  1.00  0.00     0.176 HD
ATOM     18  H51 UNL     1     -12.362  29.224  38.293  1.00  0.00     0.176 HD
ENDBRANCH  14  16
ENDBRANCH  10  14
ENDBRANCH   1  10
TORSDOF 5
ENDMDL
MODEL 5
REMARK VINA RESULT: -5.052489978      1.644      5.139
REMARK  5 active torsions:
REMARK  status: ('A' for Active; 'I' for Inactive)
REMARK    1  A    between atoms: C2_2  and  N1_3 
REMARK    2  A    between atoms: N2_6  and  C5_7 
REMARK    3  A    between atoms: C5_7  and  C6_8 
REMARK    4  A    between atoms: C6_8  and  N4_12 
REMARK    5  A    between atoms: N4_12  and  N5_14 
ROOT
HETATM    1  C5  UNL     1     -12.103  26.904  39.496  1.00  0.00     0.349 C 
ENDROOT
BRANCH   1   2
HETATM    2  N2  UNL     1     -12.650  26.858  40.823  1.00  0.00     0.098 N 
HETATM    3  C4  UNL     1     -12.359  27.995  41.625  1.00  0.00     0.292 C 
HETATM    4  C3  UNL     1     -11.051  27.996  42.311  1.00  0.00     0.147 C 
HETATM    5  N1  UNL     1     -10.653  26.763  42.884  1.00  0.00    -0.409 N 
HETATM    6  C8  UNL     1     -11.016  25.602  42.131  1.00  0.00     0.147 C 
HETATM    7  C7  UNL     1     -12.384  25.623  41.538  1.00  0.00     0.292 C 
BRANCH   5   8
HETATM    8  C2  UNL     1     -10.810  26.647  44.290  1.00  0.00     0.112 C 
HETATM    9  C1  UNL     1      -9.860  25.772  45.024  1.00  0.00     0.026 C 
ENDBRANCH   5   8
ENDBRANCH   1   2
BRANCH   1  10
HETATM   10  C6  UNL     1     -13.105  26.690  38.427  1.00  0.00     0.117 C 
HETATM   11  N3  UNL     1     -13.668  27.800  37.974  1.00  0.00    -0.386 N 
ATOM     12  H32 UNL     1     -13.370  28.682  38.389  1.00  0.00     0.157 HD
ATOM     13  H31 UNL     1     -14.358  27.653  37.237  1.00  0.00     0.157 HD
BRANCH  10  14
HETATM   14  N4  UNL     1     -13.515  25.479  37.857  1.00  0.00    -0.294 N 
ATOM     15  H4  UNL     1     -14.457  25.355  37.486  1.00  0.00     0.187 HD
BRANCH  14  16
HETATM   16  N5  UNL     1     -12.566  24.442  37.821  1.00  0.00    -0.344 N 
ATOM     17  H52 UNL     1     -12.830  23.486  38.062  1.00  0.00     0.176 HD
ATOM     18  H51 UNL     1     -11.617  24.695  37.544  1.00  0.00     0.176 HD
ENDBRANCH  14  16
ENDBRANCH  10  14
ENDBRANCH   1  10
TORSDOF 5
ENDMDL
