MODEL 1
REMARK VINA RESULT: -5.393449655      0.000      0.000
REMARK  7 active torsions:
REMARK  status: ('A' for Active; 'I' for Inactive)
REMARK    1  A    between atoms: N1_1  and  O1_4 
REMARK    2  A    between atoms: O1_4  and  C1_5 
REMARK    3  A    between atoms: C1_5  and  C2_6 
REMARK    4  A    between atoms: S1_8  and  C4_9 
REMARK    5  A    between atoms: C4_9  and  C5_10 
REMARK    6  A    between atoms: C5_10  and  O2_11 
REMARK    7  A    between atoms: C7_14  and  O3_15 
ROOT
HETATM    1  C2  UNL     1     -11.191  26.200  41.551  1.00  0.00     0.050 C 
HETATM    2  C3  UNL     1     -11.995  25.147  40.839  1.00  0.00     0.072 C 
HETATM    3  S1  UNL     1     -13.130  26.075  39.826  1.00  0.00    -0.215 SA
HETATM    4  C6  UNL     1     -12.458  27.709  40.182  1.00  0.00     0.095 C 
HETATM    5  C7  UNL     1     -12.050  27.437  41.627  1.00  0.00     0.133 C 
ENDROOT
BRANCH   1   6
HETATM    6  C1  UNL     1     -10.887  25.726  42.953  1.00  0.00     0.208 C 
BRANCH   6   7
HETATM    7  O1  UNL     1      -9.826  26.433  43.486  1.00  0.00    -0.287 OA
BRANCH   7   8
HETATM    8  N1  UNL     1     -10.119  26.931  44.687  1.00  0.00    -0.311 N 
ATOM      9  H12 UNL     1      -9.727  26.567  45.555  1.00  0.00     0.184 HD
ATOM     10  H11 UNL     1     -10.775  27.710  44.623  1.00  0.00     0.184 HD
ENDBRANCH   7   8
ENDBRANCH   6   7
ENDBRANCH   1   6
BRANCH   5  11
HETATM   11  O3  UNL     1     -11.365  28.467  42.191  1.00  0.00    -0.394 OA
ATOM     12  H3  UNL     1     -11.962  29.101  42.572  1.00  0.00     0.210 HD
ENDBRANCH   5  11
BRANCH   3  13
HETATM   13  C4  UNL     1     -12.941  25.685  38.110  1.00  0.00     0.089 C 
BRANCH  13  14
HETATM   14  C5  UNL     1     -12.027  24.456  38.039  1.00  0.00     0.173 C 
BRANCH  14  15
HETATM   15  O2  UNL     1     -10.740  24.806  37.650  1.00  0.00    -0.400 OA
ATOM     16  H2  UNL     1     -10.672  24.874  36.705  1.00  0.00     0.209 HD
ENDBRANCH  14  15
ENDBRANCH  13  14
ENDBRANCH   3  13
TORSDOF 7
ENDMDL
MODEL 2
REMARK VINA RESULT: -5.352981710      1.309      1.349
REMARK  7 active torsions:
REMARK  status: ('A' for Active; 'I' for Inactive)
REMARK    1  A    between atoms: N1_1  and  O1_4 
REMARK    2  A    between atoms: O1_4  and  C1_5 
REMARK    3  A    between atoms: C1_5  and  C2_6 
REMARK    4  A    between atoms: S1_8  and  C4_9 
REMARK    5  A    between atoms: C4_9  and  C5_10 
REMARK    6  A    between atoms: C5_10  and  O2_11 
REMARK    7  A    between atoms: C7_14  and  O3_15 
ROOT
HETATM    1  C2  UNL     1     -11.045  26.504  42.136  1.00  0.00     0.050 C 
HETATM    2  C3  UNL     1     -11.426  25.208  41.475  1.00  0.00     0.072 C 
HETATM    3  S1  UNL     1     -12.301  25.709  40.005  1.00  0.00    -0.215 SA
HETATM    4  C6  UNL     1     -12.012  27.480  40.169  1.00  0.00     0.095 C 
HETATM    5  C7  UNL     1     -12.048  27.540  41.693  1.00  0.00     0.133 C 
ENDROOT
BRANCH   1   6
HETATM    6  C1  UNL     1     -11.136  26.341  43.635  1.00  0.00     0.208 C 
BRANCH   6   7
HETATM    7  O1  UNL     1      -9.874  26.264  44.193  1.00  0.00    -0.287 OA
BRANCH   7   8
HETATM    8  N1  UNL     1      -9.166  25.260  43.675  1.00  0.00    -0.311 N 
ATOM      9  H12 UNL     1      -9.268  24.290  43.974  1.00  0.00     0.184 HD
ATOM     10  H11 UNL     1      -8.523  25.584  42.954  1.00  0.00     0.184 HD
ENDBRANCH   7   8
ENDBRANCH   6   7
ENDBRANCH   1   6
BRANCH   5  11
HETATM   11  O3  UNL     1     -11.727  28.765  42.187  1.00  0.00    -0.394 OA
ATOM     12  H3  UNL     1     -11.393  28.695  43.074  1.00  0.00     0.210 HD
ENDBRANCH   5  11
BRANCH   3  13
HETATM   13  C4  UNL     1     -11.527  25.084  38.541  1.00  0.00     0.089 C 
BRANCH  13  14
HETATM   14  C5  UNL     1     -12.656  24.726  37.568  1.00  0.00     0.173 C 
BRANCH  14  15
HETATM   15  O2  UNL     1     -13.816  25.434  37.858  1.00  0.00    -0.400 OA
ATOM     16  H2  UNL     1     -14.026  26.050  37.166  1.00  0.00     0.209 HD
ENDBRANCH  14  15
ENDBRANCH  13  14
ENDBRANCH   3  13
TORSDOF 7
ENDMDL
MODEL 3
REMARK VINA RESULT: -5.298138223      2.966      5.056
REMARK  7 active torsions:
REMARK  status: ('A' for Active; 'I' for Inactive)
REMARK    1  A    between atoms: N1_1  and  O1_4 
REMARK    2  A    between atoms: O1_4  and  C1_5 
REMARK    3  A    between atoms: C1_5  and  C2_6 
REMARK    4  A    between atoms: S1_8  and  C4_9 
REMARK    5  A    between atoms: C4_9  and  C5_10 
REMARK    6  A    between atoms: C5_10  and  O2_11 
REMARK    7  A    between atoms: C7_14  and  O3_15 
ROOT
HETATM    1  C2  UNL     1     -12.503  25.975  39.759  1.00  0.00     0.050 C 
HETATM    2  C3  UNL     1     -11.587  25.550  40.874  1.00  0.00     0.072 C 
HETATM    3  S1  UNL     1     -11.332  27.037  41.821  1.00  0.00    -0.215 SA
HETATM    4  C6  UNL     1     -12.495  28.076  40.918  1.00  0.00     0.095 C 
HETATM    5  C7  UNL     1     -12.282  27.451  39.543  1.00  0.00     0.133 C 
ENDROOT
BRANCH   1   6
HETATM    6  C1  UNL     1     -12.128  25.231  38.499  1.00  0.00     0.208 C 
BRANCH   6   7
HETATM    7  O1  UNL     1     -13.227  25.087  37.674  1.00  0.00    -0.287 OA
BRANCH   7   8
HETATM    8  N1  UNL     1     -14.357  25.428  38.294  1.00  0.00    -0.311 N 
ATOM      9  H12 UNL     1     -14.442  26.251  38.891  1.00  0.00     0.184 HD
ATOM     10  H11 UNL     1     -15.110  24.770  38.096  1.00  0.00     0.184 HD
ENDBRANCH   7   8
ENDBRANCH   6   7
ENDBRANCH   1   6
BRANCH   5  11
HETATM   11  O3  UNL     1     -13.133  27.934  38.599  1.00  0.00    -0.394 OA
ATOM     12  H3  UNL     1     -13.983  27.514  38.665  1.00  0.00     0.210 HD
ENDBRANCH   5  11
BRANCH   3  13
HETATM   13  C4  UNL     1     -11.852  26.837  43.501  1.00  0.00     0.089 C 
BRANCH  13  14
HETATM   14  C5  UNL     1     -10.598  26.476  44.306  1.00  0.00     0.173 C 
BRANCH  14  15
HETATM   15  O2  UNL     1     -10.314  27.446  45.260  1.00  0.00    -0.400 OA
ATOM     16  H2  UNL     1     -10.723  28.275  45.041  1.00  0.00     0.209 HD
ENDBRANCH  14  15
ENDBRANCH  13  14
ENDBRANCH   3  13
TORSDOF 7
ENDMDL
MODEL 4
REMARK VINA RESULT: -5.135904495      2.976      5.288
REMARK  7 active torsions:
REMARK  status: ('A' for Active; 'I' for Inactive)
REMARK    1  A    between atoms: N1_1  and  O1_4 
REMARK    2  A    between atoms: O1_4  and  C1_5 
REMARK    3  A    between atoms: C1_5  and  C2_6 
REMARK    4  A    between atoms: S1_8  and  C4_9 
REMARK    5  A    between atoms: C4_9  and  C5_10 
REMARK    6  A    between atoms: C5_10  and  O2_11 
REMARK    7  A    between atoms: C7_14  and  O3_15 
ROOT
HETATM    1  C2  UNL     1     -11.554  26.612  39.526  1.00  0.00     0.050 C 
HETATM    2  C3  UNL     1     -11.499  27.288  40.868  1.00  0.00     0.072 C 
HETATM    3  S1  UNL     1     -11.836  25.980  42.030  1.00  0.00    -0.215 SA
HETATM    4  C6  UNL     1     -11.858  24.627  40.839  1.00  0.00     0.095 C 
HETATM    5  C7  UNL     1     -12.452  25.409  39.673  1.00  0.00     0.133 C 
ENDROOT
BRANCH   1   6
HETATM    6  C1  UNL     1     -12.163  27.560  38.519  1.00  0.00     0.208 C 
BRANCH   6   7
HETATM    7  O1  UNL     1     -13.518  27.326  38.388  1.00  0.00    -0.287 OA
BRANCH   7   8
HETATM    8  N1  UNL     1     -14.123  28.300  37.708  1.00  0.00    -0.311 N 
ATOM      9  H12 UNL     1     -15.116  28.514  37.801  1.00  0.00     0.184 HD
ATOM     10  H11 UNL     1     -13.474  28.792  37.096  1.00  0.00     0.184 HD
ENDBRANCH   7   8
ENDBRANCH   6   7
ENDBRANCH   1   6
BRANCH   5  11
HETATM   11  O3  UNL     1     -12.494  24.694  38.517  1.00  0.00    -0.394 OA
ATOM     12  H3  UNL     1     -11.720  24.151  38.428  1.00  0.00     0.210 HD
ENDBRANCH   5  11
BRANCH   3  13
HETATM   13  C4  UNL     1     -10.508  25.773  43.183  1.00  0.00     0.089 C 
BRANCH  13  14
HETATM   14  C5  UNL     1     -10.802  26.711  44.360  1.00  0.00     0.173 C 
BRANCH  14  15
HETATM   15  O2  UNL     1      -9.729  26.766  45.241  1.00  0.00    -0.400 OA
ATOM     16  H2  UNL     1      -9.944  27.275  46.014  1.00  0.00     0.209 HD
ENDBRANCH  14  15
ENDBRANCH  13  14
ENDBRANCH   3  13
TORSDOF 7
ENDMDL
MODEL 5
REMARK VINA RESULT: -4.983362530      3.055      5.204
REMARK  7 active torsions:
REMARK  status: ('A' for Active; 'I' for Inactive)
REMARK    1  A    between atoms: N1_1  and  O1_4 
REMARK    2  A    between atoms: O1_4  and  C1_5 
REMARK    3  A    between atoms: C1_5  and  C2_6 
REMARK    4  A    between atoms: S1_8  and  C4_9 
REMARK    5  A    between atoms: C4_9  and  C5_10 
REMARK    6  A    between atoms: C5_10  and  O2_11 
REMARK    7  A    between atoms: C7_14  and  O3_15 
ROOT
HETATM    1  C2  UNL     1     -11.833  26.831  39.919  1.00  0.00     0.050 C 
HETATM    2  C3  UNL     1     -12.280  27.601  41.131  1.00  0.00     0.072 C 
HETATM    3  S1  UNL     1     -12.111  26.439  42.472  1.00  0.00    -0.215 SA
HETATM    4  C6  UNL     1     -11.336  25.118  41.523  1.00  0.00     0.095 C 
HETATM    5  C7  UNL     1     -12.069  25.371  40.210  1.00  0.00     0.133 C 
ENDROOT
BRANCH   1   6
HETATM    6  C1  UNL     1     -12.678  27.240  38.735  1.00  0.00     0.208 C 
BRANCH   6   7
HETATM    7  O1  UNL     1     -13.845  26.501  38.692  1.00  0.00    -0.287 OA
BRANCH   7   8
HETATM    8  N1  UNL     1     -13.832  25.617  37.694  1.00  0.00    -0.311 N 
ATOM      9  H12 UNL     1     -14.154  25.832  36.751  1.00  0.00     0.184 HD
ATOM     10  H11 UNL     1     -13.465  24.714  37.995  1.00  0.00     0.184 HD
ENDBRANCH   7   8
ENDBRANCH   6   7
ENDBRANCH   1   6
BRANCH   5  11
HETATM   11  O3  UNL     1     -11.617  24.596  39.188  1.00  0.00    -0.394 OA
ATOM     12  H3  UNL     1     -10.743  24.271  39.372  1.00  0.00     0.210 HD
ENDBRANCH   5  11
BRANCH   3  13
HETATM   13  C4  UNL     1     -11.008  27.040  43.720  1.00  0.00     0.089 C 
BRANCH  13  14
HETATM   14  C5  UNL     1     -10.007  25.913  43.998  1.00  0.00     0.173 C 
BRANCH  14  15
HETATM   15  O2  UNL     1      -9.559  25.948  45.312  1.00  0.00    -0.400 OA
ATOM     16  H2  UNL     1      -9.676  25.108  45.739  1.00  0.00     0.209 HD
ENDBRANCH  14  15
ENDBRANCH  13  14
ENDBRANCH   3  13
TORSDOF 7
ENDMDL
