MODEL 1
REMARK VINA RESULT: -3.539357967      0.000      0.000
REMARK  4 active torsions:
REMARK  status: ('A' for Active; 'I' for Inactive)
REMARK    1  A    between atoms: C5_6  and  C6_7 
REMARK    2  A    between atoms: N2_8  and  N3_10 
REMARK    3  A    between atoms: C7_12  and  N4_13 
REMARK    4  A    between atoms: N4_13  and  N5_15 
ROOT
HETATM    1  C1  UNL     1      -2.735  33.226  42.930  1.00  0.00     0.180 C 
HETATM    2  N1  UNL     1      -3.899  33.702  43.614  1.00  0.00    -0.272 N 
HETATM    3  C2  UNL     1      -4.663  34.723  43.002  1.00  0.00     0.113 C 
HETATM    4  C3  UNL     1      -5.918  35.095  43.237  1.00  0.00     0.021 C 
HETATM    5  C4  UNL     1      -6.815  34.502  44.222  1.00  0.00     0.034 C 
HETATM    6  C5  UNL     1      -6.614  33.638  45.205  1.00  0.00     0.068 C 
HETATM    7  N6  UNL     1      -5.357  33.040  45.551  1.00  0.00    -0.264 N 
ATOM      8  H6  UNL     1      -5.337  32.516  46.426  1.00  0.00     0.190 HD
HETATM    9  N7  UNL     1      -4.152  33.087  44.836  1.00  0.00    -0.136 N 
HETATM   10  N8  UNL     1      -3.200  32.475  45.415  1.00  0.00    -0.309 N 
ATOM     11  H81 UNL     1      -3.385  32.024  46.311  1.00  0.00     0.180 HD
ATOM     12  H82 UNL     1      -2.323  32.509  44.895  1.00  0.00     0.180 HD
ENDROOT
BRANCH   6  13
HETATM   13  C6  UNL     1      -7.761  33.257  46.008  1.00  0.00     0.138 C 
HETATM   14  N2  UNL     1      -8.029  33.931  47.056  1.00  0.00    -0.309 N 
ATOM     15  H2  UNL     1      -7.447  34.725  47.326  1.00  0.00     0.186 HD
BRANCH  14  16
HETATM   16  N3  UNL     1      -9.132  33.565  47.828  1.00  0.00    -0.295 N 
HETATM   17  C7  UNL     1      -9.780  32.479  47.611  1.00  0.00     0.213 C 
ATOM     18  H3  UNL     1      -9.432  34.179  48.585  1.00  0.00     0.187 HD
BRANCH  17  19
HETATM   19  N4  UNL     1     -10.895  32.112  48.392  1.00  0.00    -0.301 N 
ATOM     20  H4  UNL     1     -10.781  31.615  49.275  1.00  0.00     0.187 HD
BRANCH  19  21
HETATM   21  N5  UNL     1     -12.171  32.456  47.909  1.00  0.00    -0.344 N 
ATOM     22  H52 UNL     1     -12.282  33.237  47.263  1.00  0.00     0.176 HD
ATOM     23  H51 UNL     1     -12.963  31.897  48.228  1.00  0.00     0.176 HD
ENDBRANCH  19  21
ENDBRANCH  17  19
ENDBRANCH  14  16
ENDBRANCH   6  13
TORSDOF 4
ENDMDL
MODEL 2
REMARK VINA RESULT: -3.024841679      2.230      7.772
REMARK  4 active torsions:
REMARK  status: ('A' for Active; 'I' for Inactive)
REMARK    1  A    between atoms: C5_6  and  C6_7 
REMARK    2  A    between atoms: N2_8  and  N3_10 
REMARK    3  A    between atoms: C7_12  and  N4_13 
REMARK    4  A    between atoms: N4_13  and  N5_15 
ROOT
HETATM    1  C1  UNL     1     -14.351  33.695  49.372  1.00  0.00     0.180 C 
HETATM    2  N1  UNL     1     -13.023  33.219  49.124  1.00  0.00    -0.272 N 
HETATM    3  C2  UNL     1     -12.867  31.908  48.616  1.00  0.00     0.113 C 
HETATM    4  C3  UNL     1     -11.824  31.360  48.001  1.00  0.00     0.021 C 
HETATM    5  C4  UNL     1     -10.559  32.023  47.706  1.00  0.00     0.034 C 
HETATM    6  C5  UNL     1     -10.051  33.184  48.089  1.00  0.00     0.068 C 
HETATM    7  N6  UNL     1     -10.688  34.132  48.958  1.00  0.00    -0.264 N 
ATOM      8  H6  UNL     1     -10.105  34.904  49.280  1.00  0.00     0.190 HD
HETATM    9  N7  UNL     1     -12.012  34.127  49.419  1.00  0.00    -0.136 N 
HETATM   10  N8  UNL     1     -12.275  35.095  50.201  1.00  0.00    -0.309 N 
ATOM     11  H81 UNL     1     -11.534  35.761  50.417  1.00  0.00     0.180 HD
ATOM     12  H82 UNL     1     -13.238  35.092  50.536  1.00  0.00     0.180 HD
ENDROOT
BRANCH   6  13
HETATM   13  C6  UNL     1      -8.735  33.537  47.592  1.00  0.00     0.138 C 
HETATM   14  N2  UNL     1      -8.549  33.598  46.332  1.00  0.00    -0.309 N 
ATOM     15  H2  UNL     1      -9.313  33.403  45.685  1.00  0.00     0.186 HD
BRANCH  14  16
HETATM   16  N3  UNL     1      -7.283  33.937  45.854  1.00  0.00    -0.295 N 
HETATM   17  C7  UNL     1      -6.694  33.247  44.946  1.00  0.00     0.213 C 
ATOM     18  H3  UNL     1      -6.812  34.757  46.236  1.00  0.00     0.187 HD
BRANCH  17  19
HETATM   19  N4  UNL     1      -5.415  33.592  44.465  1.00  0.00    -0.301 N 
ATOM     20  H4  UNL     1      -5.288  34.355  43.801  1.00  0.00     0.187 HD
BRANCH  19  21
HETATM   21  N5  UNL     1      -4.319  32.845  44.935  1.00  0.00    -0.344 N 
ATOM     22  H52 UNL     1      -4.467  32.056  45.563  1.00  0.00     0.176 HD
ATOM     23  H51 UNL     1      -3.388  33.124  44.623  1.00  0.00     0.176 HD
ENDBRANCH  19  21
ENDBRANCH  17  19
ENDBRANCH  14  16
ENDBRANCH   6  13
TORSDOF 4
ENDMDL
MODEL 3
REMARK VINA RESULT: -2.839778114      3.279      8.577
REMARK  4 active torsions:
REMARK  status: ('A' for Active; 'I' for Inactive)
REMARK    1  A    between atoms: C5_6  and  C6_7 
REMARK    2  A    between atoms: N2_8  and  N3_10 
REMARK    3  A    between atoms: C7_12  and  N4_13 
REMARK    4  A    between atoms: N4_13  and  N5_15 
ROOT
HETATM    1  C1  UNL     1     -15.239  35.095  50.569  1.00  0.00     0.180 C 
HETATM    2  N1  UNL     1     -14.448  34.181  49.801  1.00  0.00    -0.272 N 
HETATM    3  C2  UNL     1     -14.970  33.716  48.571  1.00  0.00     0.113 C 
HETATM    4  C3  UNL     1     -14.338  33.159  47.542  1.00  0.00     0.021 C 
HETATM    5  C4  UNL     1     -12.906  32.897  47.458  1.00  0.00     0.034 C 
HETATM    6  C5  UNL     1     -11.936  32.951  48.358  1.00  0.00     0.068 C 
HETATM    7  N6  UNL     1     -12.092  33.310  49.738  1.00  0.00    -0.264 N 
ATOM      8  H6  UNL     1     -11.279  33.155  50.335  1.00  0.00     0.190 HD
HETATM    9  N7  UNL     1     -13.223  33.848  50.369  1.00  0.00    -0.136 N 
HETATM   10  N8  UNL     1     -13.060  34.039  51.615  1.00  0.00    -0.309 N 
ATOM     11  H81 UNL     1     -12.161  33.795  52.031  1.00  0.00     0.180 HD
ATOM     12  H82 UNL     1     -13.882  34.430  52.074  1.00  0.00     0.180 HD
ENDROOT
BRANCH   6  13
HETATM   13  C6  UNL     1     -10.594  32.618  47.918  1.00  0.00     0.138 C 
HETATM   14  N2  UNL     1      -9.883  33.526  47.374  1.00  0.00    -0.309 N 
ATOM     15  H2  UNL     1     -10.250  34.470  47.250  1.00  0.00     0.186 HD
BRANCH  14  16
HETATM   16  N3  UNL     1      -8.592  33.206  46.950  1.00  0.00    -0.295 N 
HETATM   17  C7  UNL     1      -7.940  33.955  46.138  1.00  0.00     0.213 C 
ATOM     18  H3  UNL     1      -8.155  32.352  47.296  1.00  0.00     0.187 HD
BRANCH  17  19
HETATM   19  N4  UNL     1      -6.637  33.629  45.711  1.00  0.00    -0.301 N 
ATOM     20  H4  UNL     1      -5.928  33.312  46.373  1.00  0.00     0.187 HD
BRANCH  19  21
HETATM   21  N5  UNL     1      -6.349  33.755  44.340  1.00  0.00    -0.344 N 
ATOM     22  H52 UNL     1      -5.483  34.198  44.036  1.00  0.00     0.176 HD
ATOM     23  H51 UNL     1      -7.033  33.389  43.677  1.00  0.00     0.176 HD
ENDBRANCH  19  21
ENDBRANCH  17  19
ENDBRANCH  14  16
ENDBRANCH   6  13
TORSDOF 4
ENDMDL
MODEL 4
REMARK VINA RESULT: -2.748892484      3.542      8.996
REMARK  4 active torsions:
REMARK  status: ('A' for Active; 'I' for Inactive)
REMARK    1  A    between atoms: C5_6  and  C6_7 
REMARK    2  A    between atoms: N2_8  and  N3_10 
REMARK    3  A    between atoms: C7_12  and  N4_13 
REMARK    4  A    between atoms: N4_13  and  N5_15 
ROOT
HETATM    1  C1  UNL     1     -16.329  34.463  50.062  1.00  0.00     0.180 C 
HETATM    2  N1  UNL     1     -14.903  34.380  49.950  1.00  0.00    -0.272 N 
HETATM    3  C2  UNL     1     -14.144  34.299  51.141  1.00  0.00     0.113 C 
HETATM    4  C3  UNL     1     -12.892  33.887  51.317  1.00  0.00     0.021 C 
HETATM    5  C4  UNL     1     -11.994  33.410  50.272  1.00  0.00     0.034 C 
HETATM    6  C5  UNL     1     -12.078  33.422  48.950  1.00  0.00     0.068 C 
HETATM    7  N6  UNL     1     -13.167  33.955  48.185  1.00  0.00    -0.264 N 
ATOM      8  H6  UNL     1     -13.012  34.028  47.179  1.00  0.00     0.190 HD
HETATM    9  N7  UNL     1     -14.418  34.388  48.647  1.00  0.00    -0.136 N 
HETATM   10  N8  UNL     1     -15.168  34.834  47.723  1.00  0.00    -0.309 N 
ATOM     11  H81 UNL     1     -14.812  34.840  46.767  1.00  0.00     0.180 HD
ATOM     12  H82 UNL     1     -16.078  35.150  48.059  1.00  0.00     0.180 HD
ENDROOT
BRANCH   6  13
HETATM   13  C6  UNL     1     -10.974  32.847  48.204  1.00  0.00     0.138 C 
HETATM   14  N2  UNL     1      -9.983  33.590  47.901  1.00  0.00    -0.309 N 
ATOM     15  H2  UNL     1      -9.966  34.572  48.179  1.00  0.00     0.186 HD
BRANCH  14  16
HETATM   16  N3  UNL     1      -8.922  33.037  47.184  1.00  0.00    -0.295 N 
HETATM   17  C7  UNL     1      -8.235  33.729  46.350  1.00  0.00     0.213 C 
ATOM     18  H3  UNL     1      -8.686  32.056  47.326  1.00  0.00     0.187 HD
BRANCH  17  19
HETATM   19  N4  UNL     1      -7.164  33.168  45.625  1.00  0.00    -0.301 N 
ATOM     20  H4  UNL     1      -6.545  32.475  46.048  1.00  0.00     0.187 HD
BRANCH  19  21
HETATM   21  N5  UNL     1      -6.977  33.597  44.299  1.00  0.00    -0.344 N 
ATOM     22  H52 UNL     1      -6.722  34.564  44.103  1.00  0.00     0.176 HD
ATOM     23  H51 UNL     1      -7.107  32.909  43.557  1.00  0.00     0.176 HD
ENDBRANCH  19  21
ENDBRANCH  17  19
ENDBRANCH  14  16
ENDBRANCH   6  13
TORSDOF 4
ENDMDL
MODEL 5
REMARK VINA RESULT: -2.742909896      4.447      9.680
REMARK  4 active torsions:
REMARK  status: ('A' for Active; 'I' for Inactive)
REMARK    1  A    between atoms: C5_6  and  C6_7 
REMARK    2  A    between atoms: N2_8  and  N3_10 
REMARK    3  A    between atoms: C7_12  and  N4_13 
REMARK    4  A    between atoms: N4_13  and  N5_15 
ROOT
HETATM    1  C1  UNL     1     -18.110  33.365  47.950  1.00  0.00     0.180 C 
HETATM    2  N1  UNL     1     -16.816  33.902  48.248  1.00  0.00    -0.272 N 
HETATM    3  C2  UNL     1     -16.668  34.672  49.426  1.00  0.00     0.113 C 
HETATM    4  C3  UNL     1     -15.562  34.989  50.094  1.00  0.00     0.021 C 
HETATM    5  C4  UNL     1     -14.205  34.593  49.737  1.00  0.00     0.034 C 
HETATM    6  C5  UNL     1     -13.698  34.022  48.655  1.00  0.00     0.068 C 
HETATM    7  N6  UNL     1     -14.437  33.634  47.488  1.00  0.00    -0.264 N 
ATOM      8  H6  UNL     1     -13.881  33.350  46.682  1.00  0.00     0.190 HD
HETATM    9  N7  UNL     1     -15.828  33.596  47.319  1.00  0.00    -0.136 N 
HETATM   10  N8  UNL     1     -16.183  33.229  46.155  1.00  0.00    -0.309 N 
ATOM     11  H81 UNL     1     -15.458  33.003  45.474  1.00  0.00     0.180 HD
ATOM     12  H82 UNL     1     -17.195  33.201  46.032  1.00  0.00     0.180 HD
ENDROOT
BRANCH   6  13
HETATM   13  C6  UNL     1     -12.271  33.765  48.640  1.00  0.00     0.138 C 
HETATM   14  N2  UNL     1     -11.818  32.856  47.869  1.00  0.00    -0.309 N 
ATOM     15  H2  UNL     1     -12.448  32.319  47.273  1.00  0.00     0.186 HD
BRANCH  14  16
HETATM   16  N3  UNL     1     -10.444  32.609  47.854  1.00  0.00    -0.295 N 
HETATM   17  C7  UNL     1      -9.600  33.497  47.473  1.00  0.00     0.213 C 
ATOM     18  H3  UNL     1     -10.102  31.696  48.155  1.00  0.00     0.187 HD
BRANCH  17  19
HETATM   19  N4  UNL     1      -8.214  33.244  47.459  1.00  0.00    -0.301 N 
ATOM     20  H4  UNL     1      -7.833  32.362  47.803  1.00  0.00     0.187 HD
BRANCH  19  21
HETATM   21  N5  UNL     1      -7.372  34.252  46.953  1.00  0.00    -0.344 N 
ATOM     22  H52 UNL     1      -7.759  35.010  46.391  1.00  0.00     0.176 HD
ATOM     23  H51 UNL     1      -6.377  34.190  47.170  1.00  0.00     0.176 HD
ENDBRANCH  19  21
ENDBRANCH  17  19
ENDBRANCH  14  16
ENDBRANCH   6  13
TORSDOF 4
ENDMDL
