MODEL 1
REMARK VINA RESULT: -5.690042673      0.000      0.000
REMARK  5 active torsions:
REMARK  status: ('A' for Active; 'I' for Inactive)
REMARK    1  A    between atoms: C2_2  and  S1_3 
REMARK    2  A    between atoms: S1_3  and  C3_5 
REMARK    3  A    between atoms: C3_5  and  C4_6 
REMARK    4  A    between atoms: C6_9  and  O3_10 
REMARK    5  A    between atoms: C7_12  and  O4_13 
ROOT
HETATM    1  C4  UNL     1     -12.040  26.173  41.463  1.00  0.00     0.164 C 
HETATM    2  O2  UNL     1     -11.420  27.404  41.264  1.00  0.00    -0.380 OA
HETATM    3  C5  UNL     1     -11.644  28.086  42.445  1.00  0.00     0.202 C 
HETATM    4  C6  UNL     1     -11.592  27.097  43.569  1.00  0.00     0.173 C 
HETATM    5  C7  UNL     1     -11.434  25.778  42.817  1.00  0.00     0.178 C 
ENDROOT
BRANCH   1   6
HETATM    6  C3  UNL     1     -11.595  25.145  40.448  1.00  0.00     0.143 C 
BRANCH   6   7
HETATM    7  S1  UNL     1     -11.608  25.784  38.804  1.00  0.00     0.017 S 
HETATM    8  O1  UNL     1     -11.102  24.673  37.674  1.00  0.00    -0.258 OA
BRANCH   7   9
HETATM    9  C2  UNL     1     -13.300  26.276  38.447  1.00  0.00     0.104 C 
HETATM   10  C1  UNL     1     -13.376  27.785  38.349  1.00  0.00     0.018 C 
ENDBRANCH   7   9
ENDBRANCH   6   7
ENDBRANCH   1   6
BRANCH   5  11
HETATM   11  O4  UNL     1     -10.095  25.553  42.597  1.00  0.00    -0.390 OA
ATOM     12  H4  UNL     1      -9.771  26.301  42.110  1.00  0.00     0.210 HD
ENDBRANCH   5  11
BRANCH   4  13
HETATM   13  O3  UNL     1     -10.564  27.309  44.460  1.00  0.00    -0.391 OA
ATOM     14  H3  UNL     1     -10.472  26.628  45.116  1.00  0.00     0.210 HD
ENDBRANCH   4  13
TORSDOF 5
ENDMDL
MODEL 2
REMARK VINA RESULT: -5.447934425      2.193      5.005
REMARK  5 active torsions:
REMARK  status: ('A' for Active; 'I' for Inactive)
REMARK    1  A    between atoms: C2_2  and  S1_3 
REMARK    2  A    between atoms: S1_3  and  C3_5 
REMARK    3  A    between atoms: C3_5  and  C4_6 
REMARK    4  A    between atoms: C6_9  and  O3_10 
REMARK    5  A    between atoms: C7_12  and  O4_13 
ROOT
HETATM    1  C4  UNL     1     -11.735  26.379  40.128  1.00  0.00     0.164 C 
HETATM    2  O2  UNL     1     -12.850  27.202  39.999  1.00  0.00    -0.380 OA
HETATM    3  C5  UNL     1     -13.095  27.223  38.639  1.00  0.00     0.202 C 
HETATM    4  C6  UNL     1     -12.767  25.869  38.088  1.00  0.00     0.173 C 
HETATM    5  C7  UNL     1     -12.197  25.161  39.315  1.00  0.00     0.178 C 
ENDROOT
BRANCH   1   6
HETATM    6  C3  UNL     1     -11.530  25.922  41.554  1.00  0.00     0.143 C 
BRANCH   6   7
HETATM    7  S1  UNL     1     -10.875  27.204  42.576  1.00  0.00     0.017 S 
HETATM    8  O1  UNL     1     -11.518  28.699  42.230  1.00  0.00    -0.258 OA
BRANCH   7   9
HETATM    9  C2  UNL     1     -11.255  26.764  44.276  1.00  0.00     0.104 C 
HETATM   10  C1  UNL     1     -10.029  26.161  44.927  1.00  0.00     0.018 C 
ENDBRANCH   7   9
ENDBRANCH   6   7
ENDBRANCH   1   6
BRANCH   5  11
HETATM   11  O4  UNL     1     -13.234  24.592  40.018  1.00  0.00    -0.390 OA
ATOM     12  H4  UNL     1     -12.843  23.975  40.625  1.00  0.00     0.210 HD
ENDBRANCH   5  11
BRANCH   4  13
HETATM   13  O3  UNL     1     -13.847  25.197  37.561  1.00  0.00    -0.391 OA
ATOM     14  H3  UNL     1     -13.618  24.416  37.071  1.00  0.00     0.210 HD
ENDBRANCH   4  13
TORSDOF 5
ENDMDL
MODEL 3
REMARK VINA RESULT: -5.217193569      1.473      1.482
REMARK  5 active torsions:
REMARK  status: ('A' for Active; 'I' for Inactive)
REMARK    1  A    between atoms: C2_2  and  S1_3 
REMARK    2  A    between atoms: S1_3  and  C3_5 
REMARK    3  A    between atoms: C3_5  and  C4_6 
REMARK    4  A    between atoms: C6_9  and  O3_10 
REMARK    5  A    between atoms: C7_12  and  O4_13 
ROOT
HETATM    1  C4  UNL     1     -11.941  26.373  41.929  1.00  0.00     0.164 C 
HETATM    2  O2  UNL     1     -12.673  27.435  42.454  1.00  0.00    -0.380 OA
HETATM    3  C5  UNL     1     -12.631  27.226  43.820  1.00  0.00     0.202 C 
HETATM    4  C6  UNL     1     -11.289  26.654  44.161  1.00  0.00     0.173 C 
HETATM    5  C7  UNL     1     -10.667  26.471  42.779  1.00  0.00     0.178 C 
ENDROOT
BRANCH   1   6
HETATM    6  C3  UNL     1     -11.547  26.615  40.489  1.00  0.00     0.143 C 
BRANCH   6   7
HETATM    7  S1  UNL     1     -12.217  25.396  39.403  1.00  0.00     0.017 S 
HETATM    8  O1  UNL     1     -12.898  24.112  40.213  1.00  0.00    -0.258 OA
BRANCH   7   9
HETATM    9  C2  UNL     1     -13.471  26.214  38.409  1.00  0.00     0.104 C 
HETATM   10  C1  UNL     1     -13.247  27.711  38.447  1.00  0.00     0.018 C 
ENDBRANCH   7   9
ENDBRANCH   6   7
ENDBRANCH   1   6
BRANCH   5  11
HETATM   11  O4  UNL     1     -10.043  27.643  42.417  1.00  0.00    -0.390 OA
ATOM     12  H4  UNL     1     -10.599  28.350  42.720  1.00  0.00     0.210 HD
ENDBRANCH   5  11
BRANCH   4  13
HETATM   13  O3  UNL     1     -10.521  27.462  44.969  1.00  0.00    -0.391 OA
ATOM     14  H3  UNL     1      -9.596  27.464  44.750  1.00  0.00     0.210 HD
ENDBRANCH   4  13
TORSDOF 5
ENDMDL
MODEL 4
REMARK VINA RESULT: -5.209543371      1.138      1.711
REMARK  5 active torsions:
REMARK  status: ('A' for Active; 'I' for Inactive)
REMARK    1  A    between atoms: C2_2  and  S1_3 
REMARK    2  A    between atoms: S1_3  and  C3_5 
REMARK    3  A    between atoms: C3_5  and  C4_6 
REMARK    4  A    between atoms: C6_9  and  O3_10 
REMARK    5  A    between atoms: C7_12  and  O4_13 
ROOT
HETATM    1  C4  UNL     1     -11.040  26.177  41.811  1.00  0.00     0.164 C 
HETATM    2  O2  UNL     1     -10.852  25.118  42.696  1.00  0.00    -0.380 OA
HETATM    3  C5  UNL     1     -10.048  25.650  43.687  1.00  0.00     0.202 C 
HETATM    4  C6  UNL     1     -10.445  27.081  43.889  1.00  0.00     0.173 C 
HETATM    5  C7  UNL     1     -11.484  27.275  42.786  1.00  0.00     0.178 C 
ENDROOT
BRANCH   1   6
HETATM    6  C3  UNL     1     -12.187  25.922  40.859  1.00  0.00     0.143 C 
BRANCH   6   7
HETATM    7  S1  UNL     1     -11.783  26.360  39.198  1.00  0.00     0.017 S 
HETATM    8  O1  UNL     1     -11.102  25.103  38.346  1.00  0.00    -0.258 OA
BRANCH   7   9
HETATM    9  C2  UNL     1     -13.313  26.866  38.404  1.00  0.00     0.104 C 
HETATM   10  C1  UNL     1     -13.401  28.377  38.398  1.00  0.00     0.018 C 
ENDBRANCH   7   9
ENDBRANCH   6   7
ENDBRANCH   1   6
BRANCH   5  11
HETATM   11  O4  UNL     1     -12.716  26.896  43.269  1.00  0.00    -0.390 OA
ATOM     12  H4  UNL     1     -13.232  27.689  43.347  1.00  0.00     0.210 HD
ENDBRANCH   5  11
BRANCH   4  13
HETATM   13  O3  UNL     1     -10.961  27.353  45.136  1.00  0.00    -0.391 OA
ATOM     14  H3  UNL     1     -11.889  27.171  45.221  1.00  0.00     0.210 HD
ENDBRANCH   4  13
TORSDOF 5
ENDMDL
MODEL 5
REMARK VINA RESULT: -5.124328685      1.548      1.727
REMARK  5 active torsions:
REMARK  status: ('A' for Active; 'I' for Inactive)
REMARK    1  A    between atoms: C2_2  and  S1_3 
REMARK    2  A    between atoms: S1_3  and  C3_5 
REMARK    3  A    between atoms: C3_5  and  C4_6 
REMARK    4  A    between atoms: C6_9  and  O3_10 
REMARK    5  A    between atoms: C7_12  and  O4_13 
ROOT
HETATM    1  C4  UNL     1     -11.909  26.007  42.119  1.00  0.00     0.164 C 
HETATM    2  O2  UNL     1     -12.462  27.267  42.331  1.00  0.00    -0.380 OA
HETATM    3  C5  UNL     1     -12.572  27.357  43.706  1.00  0.00     0.202 C 
HETATM    4  C6  UNL     1     -11.398  26.651  44.313  1.00  0.00     0.173 C 
HETATM    5  C7  UNL     1     -10.713  26.066  43.079  1.00  0.00     0.178 C 
ENDROOT
BRANCH   1   6
HETATM    6  C3  UNL     1     -11.360  25.858  40.718  1.00  0.00     0.143 C 
BRANCH   6   7
HETATM    7  S1  UNL     1     -12.310  26.755  39.532  1.00  0.00     0.017 S 
HETATM    8  O1  UNL     1     -11.389  27.797  38.620  1.00  0.00    -0.258 OA
BRANCH   7   9
HETATM    9  C2  UNL     1     -13.087  25.542  38.458  1.00  0.00     0.104 C 
HETATM   10  C1  UNL     1     -12.036  24.589  37.931  1.00  0.00     0.018 C 
ENDBRANCH   7   9
ENDBRANCH   6   7
ENDBRANCH   1   6
BRANCH   5  11
HETATM   11  O4  UNL     1      -9.847  27.006  42.569  1.00  0.00    -0.390 OA
ATOM     12  H4  UNL     1     -10.106  27.842  42.939  1.00  0.00     0.210 HD
ENDBRANCH   5  11
BRANCH   4  13
HETATM   13  O3  UNL     1     -10.556  27.470  45.030  1.00  0.00    -0.391 OA
ATOM     14  H3  UNL     1      -9.672  27.516  44.686  1.00  0.00     0.210 HD
ENDBRANCH   4  13
TORSDOF 5
ENDMDL
