MODEL 1
REMARK VINA RESULT: -5.340733574      0.000      0.000
REMARK  6 active torsions:
REMARK  status: ('A' for Active; 'I' for Inactive)
REMARK    1  A    between atoms: N1_2  and  C3_4 
REMARK    2  A    between atoms: N2_6  and  C5_7 
REMARK    3  A    between atoms: C5_7  and  C6_8 
REMARK    4  A    between atoms: C6_8  and  N3_9 
REMARK    5  A    between atoms: C8_14  and  O1_15 
REMARK    6  A    between atoms: C9_17  and  O2_18 
ROOT
HETATM    1  C3  UNL     1     -11.057  26.410  42.214  1.00  0.00     0.281 C 
HETATM    2  C4  UNL     1     -11.705  25.429  41.273  1.00  0.00     0.311 C 
HETATM    3  N2  UNL     1     -12.103  25.972  40.014  1.00  0.00     0.094 N 
HETATM    4  C7  UNL     1     -12.173  27.386  39.942  1.00  0.00     0.306 C 
HETATM    5  C8  UNL     1     -12.805  27.881  41.243  1.00  0.00     0.177 C 
HETATM    6  C9  UNL     1     -11.738  27.734  42.302  1.00  0.00     0.183 C 
ENDROOT
BRANCH   3   7
HETATM    7  C5  UNL     1     -11.458  25.348  38.887  1.00  0.00     0.299 C 
BRANCH   7   8
HETATM    8  C6  UNL     1     -12.442  24.532  38.079  1.00  0.00     0.259 C 
BRANCH   8   9
HETATM    9  N3  UNL     1     -13.640  25.359  37.869  1.00  0.00    -0.078 N 
ATOM     10  H33 UNL     1     -14.047  25.696  38.742  1.00  0.00     0.274 HD
ATOM     11  H32 UNL     1     -13.427  26.269  37.461  1.00  0.00     0.274 HD
ATOM     12  H31 UNL     1     -14.296  24.816  37.308  1.00  0.00     0.274 HD
ENDBRANCH   8   9
ENDBRANCH   7   8
ENDBRANCH   3   7
BRANCH   1  13
HETATM   13  N1  UNL     1     -10.816  25.793  43.479  1.00  0.00     0.088 N 
HETATM   14  C1  UNL     1      -9.539  25.116  43.529  1.00  0.00     0.310 C 
HETATM   15  C2  UNL     1     -10.892  26.710  44.583  1.00  0.00     0.310 C 
ENDBRANCH   1  13
BRANCH   5  16
HETATM   16  O1  UNL     1     -13.113  29.256  41.123  1.00  0.00    -0.391 OA
ATOM     17  H1  UNL     1     -14.043  29.386  41.268  1.00  0.00     0.210 HD
ENDBRANCH   5  16
BRANCH   6  18
HETATM   18  O2  UNL     1     -10.842  28.804  42.098  1.00  0.00    -0.391 OA
ATOM     19  H2  UNL     1     -11.008  29.527  42.692  1.00  0.00     0.210 HD
ENDBRANCH   6  18
TORSDOF 6
ENDMDL
MODEL 2
REMARK VINA RESULT: -4.568188905      2.613      5.001
REMARK  6 active torsions:
REMARK  status: ('A' for Active; 'I' for Inactive)
REMARK    1  A    between atoms: N1_2  and  C3_4 
REMARK    2  A    between atoms: N2_6  and  C5_7 
REMARK    3  A    between atoms: C5_7  and  C6_8 
REMARK    4  A    between atoms: C6_8  and  N3_9 
REMARK    5  A    between atoms: C8_14  and  O1_15 
REMARK    6  A    between atoms: C9_17  and  O2_18 
ROOT
HETATM    1  C3  UNL     1     -12.155  26.942  39.530  1.00  0.00     0.281 C 
HETATM    2  C4  UNL     1     -12.270  27.324  40.982  1.00  0.00     0.311 C 
HETATM    3  N2  UNL     1     -11.763  26.358  41.903  1.00  0.00     0.094 N 
HETATM    4  C7  UNL     1     -11.558  25.054  41.385  1.00  0.00     0.306 C 
HETATM    5  C8  UNL     1     -12.747  24.728  40.481  1.00  0.00     0.177 C 
HETATM    6  C9  UNL     1     -12.543  25.536  39.221  1.00  0.00     0.183 C 
ENDROOT
BRANCH   3   7
HETATM    7  C5  UNL     1     -10.686  26.851  42.723  1.00  0.00     0.299 C 
BRANCH   7   8
HETATM    8  C6  UNL     1     -10.415  25.921  43.884  1.00  0.00     0.259 C 
BRANCH   8   9
HETATM    9  N3  UNL     1      -9.132  25.248  43.624  1.00  0.00    -0.078 N 
ATOM     10  H33 UNL     1      -8.541  25.186  44.454  1.00  0.00     0.274 HD
ATOM     11  H32 UNL     1      -9.236  24.247  43.459  1.00  0.00     0.274 HD
ATOM     12  H31 UNL     1      -8.680  25.734  42.850  1.00  0.00     0.274 HD
ENDBRANCH   8   9
ENDBRANCH   7   8
ENDBRANCH   3   7
BRANCH   1  13
HETATM   13  N1  UNL     1     -12.801  27.918  38.712  1.00  0.00     0.088 N 
HETATM   14  C1  UNL     1     -13.749  27.329  37.794  1.00  0.00     0.310 C 
HETATM   15  C2  UNL     1     -13.470  28.942  39.468  1.00  0.00     0.310 C 
ENDBRANCH   1  13
BRANCH   5  16
HETATM   16  O1  UNL     1     -12.709  23.358  40.130  1.00  0.00    -0.391 OA
ATOM     17  H1  UNL     1     -13.544  23.103  39.757  1.00  0.00     0.210 HD
ENDBRANCH   5  16
BRANCH   6  18
HETATM   18  O2  UNL     1     -11.545  24.861  38.487  1.00  0.00    -0.391 OA
ATOM     19  H2  UNL     1     -11.870  24.055  38.103  1.00  0.00     0.210 HD
ENDBRANCH   6  18
TORSDOF 6
ENDMDL
MODEL 3
REMARK VINA RESULT: -4.203053712      2.547      4.919
REMARK  6 active torsions:
REMARK  status: ('A' for Active; 'I' for Inactive)
REMARK    1  A    between atoms: N1_2  and  C3_4 
REMARK    2  A    between atoms: N2_6  and  C5_7 
REMARK    3  A    between atoms: C5_7  and  C6_8 
REMARK    4  A    between atoms: C6_8  and  N3_9 
REMARK    5  A    between atoms: C8_14  and  O1_15 
REMARK    6  A    between atoms: C9_17  and  O2_18 
ROOT
HETATM    1  C3  UNL     1     -11.982  27.040  39.946  1.00  0.00     0.281 C 
HETATM    2  C4  UNL     1     -12.198  26.824  41.421  1.00  0.00     0.311 C 
HETATM    3  N2  UNL     1     -11.714  25.579  41.926  1.00  0.00     0.094 N 
HETATM    4  C7  UNL     1     -11.432  24.583  40.958  1.00  0.00     0.306 C 
HETATM    5  C8  UNL     1     -12.552  24.625  39.918  1.00  0.00     0.177 C 
HETATM    6  C9  UNL     1     -12.301  25.862  39.089  1.00  0.00     0.183 C 
ENDROOT
BRANCH   3   7
HETATM    7  C5  UNL     1     -10.707  25.723  42.946  1.00  0.00     0.299 C 
BRANCH   7   8
HETATM    8  C6  UNL     1     -11.093  26.787  43.949  1.00  0.00     0.259 C 
BRANCH   8   9
HETATM    9  N3  UNL     1      -9.990  26.910  44.914  1.00  0.00    -0.078 N 
ATOM     10  H33 UNL     1      -9.503  27.804  44.848  1.00  0.00     0.274 HD
ATOM     11  H32 UNL     1     -10.313  27.004  45.876  1.00  0.00     0.274 HD
ATOM     12  H31 UNL     1      -9.371  26.110  44.779  1.00  0.00     0.274 HD
ENDBRANCH   8   9
ENDBRANCH   7   8
ENDBRANCH   3   7
BRANCH   1  13
HETATM   13  N1  UNL     1     -12.611  28.252  39.529  1.00  0.00     0.088 N 
HETATM   14  C1  UNL     1     -13.450  28.067  38.366  1.00  0.00     0.310 C 
HETATM   15  C2  UNL     1     -13.393  28.873  40.564  1.00  0.00     0.310 C 
ENDBRANCH   1  13
BRANCH   5  16
HETATM   16  O1  UNL     1     -12.444  23.500  39.066  1.00  0.00    -0.391 OA
ATOM     17  H1  UNL     1     -13.291  23.077  38.993  1.00  0.00     0.210 HD
ENDBRANCH   5  16
BRANCH   6  18
HETATM   18  O2  UNL     1     -11.237  25.536  38.221  1.00  0.00    -0.391 OA
ATOM     19  H2  UNL     1     -11.466  25.674  37.310  1.00  0.00     0.210 HD
ENDBRANCH   6  18
TORSDOF 6
ENDMDL
MODEL 4
REMARK VINA RESULT: -4.167794187      2.719      3.682
REMARK  6 active torsions:
REMARK  status: ('A' for Active; 'I' for Inactive)
REMARK    1  A    between atoms: N1_2  and  C3_4 
REMARK    2  A    between atoms: N2_6  and  C5_7 
REMARK    3  A    between atoms: C5_7  and  C6_8 
REMARK    4  A    between atoms: C6_8  and  N3_9 
REMARK    5  A    between atoms: C8_14  and  O1_15 
REMARK    6  A    between atoms: C9_17  and  O2_18 
ROOT
HETATM    1  C3  UNL     1     -11.949  25.749  41.587  1.00  0.00     0.281 C 
HETATM    2  C4  UNL     1     -11.722  27.175  41.158  1.00  0.00     0.311 C 
HETATM    3  N2  UNL     1     -12.393  27.558  39.957  1.00  0.00     0.094 N 
HETATM    4  C7  UNL     1     -12.873  26.498  39.148  1.00  0.00     0.306 C 
HETATM    5  C8  UNL     1     -11.799  25.410  39.132  1.00  0.00     0.177 C 
HETATM    6  C9  UNL     1     -11.864  24.745  40.487  1.00  0.00     0.183 C 
ENDROOT
BRANCH   3   7
HETATM    7  C5  UNL     1     -13.326  28.641  40.138  1.00  0.00     0.299 C 
BRANCH   7   8
HETATM    8  C6  UNL     1     -13.382  29.078  41.585  1.00  0.00     0.259 C 
BRANCH   8   9
HETATM    9  N3  UNL     1     -14.361  30.171  41.681  1.00  0.00    -0.078 N 
ATOM     10  H33 UNL     1     -14.063  31.015  41.191  1.00  0.00     0.274 HD
ATOM     11  H32 UNL     1     -15.208  29.995  41.141  1.00  0.00     0.274 HD
ATOM     12  H31 UNL     1     -14.548  30.332  42.671  1.00  0.00     0.274 HD
ENDBRANCH   8   9
ENDBRANCH   7   8
ENDBRANCH   3   7
BRANCH   1  13
HETATM   13  N1  UNL     1     -11.137  25.442  42.720  1.00  0.00     0.088 N 
HETATM   14  C1  UNL     1     -10.097  24.486  42.412  1.00  0.00     0.310 C 
HETATM   15  C2  UNL     1     -10.531  26.601  43.318  1.00  0.00     0.310 C 
ENDBRANCH   1  13
BRANCH   5  16
HETATM   16  O1  UNL     1     -12.126  24.441  38.155  1.00  0.00    -0.391 OA
ATOM     17  H1  UNL     1     -11.345  23.956  37.917  1.00  0.00     0.210 HD
ENDBRANCH   5  16
BRANCH   6  18
HETATM   18  O2  UNL     1     -12.997  23.905  40.450  1.00  0.00    -0.391 OA
ATOM     19  H2  UNL     1     -13.733  24.319  40.015  1.00  0.00     0.210 HD
ENDBRANCH   6  18
TORSDOF 6
ENDMDL
MODEL 5
REMARK VINA RESULT: -4.162012779      2.232      4.509
REMARK  6 active torsions:
REMARK  status: ('A' for Active; 'I' for Inactive)
REMARK    1  A    between atoms: N1_2  and  C3_4 
REMARK    2  A    between atoms: N2_6  and  C5_7 
REMARK    3  A    between atoms: C5_7  and  C6_8 
REMARK    4  A    between atoms: C6_8  and  N3_9 
REMARK    5  A    between atoms: C8_14  and  O1_15 
REMARK    6  A    between atoms: C9_17  and  O2_18 
ROOT
HETATM    1  C3  UNL     1     -12.459  25.762  39.612  1.00  0.00     0.281 C 
HETATM    2  C4  UNL     1     -11.561  26.591  40.492  1.00  0.00     0.311 C 
HETATM    3  N2  UNL     1     -12.106  27.847  40.898  1.00  0.00     0.094 N 
HETATM    4  C7  UNL     1     -13.225  28.306  40.160  1.00  0.00     0.306 C 
HETATM    5  C8  UNL     1     -12.954  28.010  38.685  1.00  0.00     0.177 C 
HETATM    6  C9  UNL     1     -13.138  26.520  38.522  1.00  0.00     0.183 C 
ENDROOT
BRANCH   3   7
HETATM    7  C5  UNL     1     -12.234  27.985  42.326  1.00  0.00     0.299 C 
BRANCH   7   8
HETATM    8  C6  UNL     1     -11.823  26.715  43.037  1.00  0.00     0.259 C 
BRANCH   8   9
HETATM    9  N3  UNL     1     -11.012  27.101  44.202  1.00  0.00    -0.078 N 
ATOM     10  H33 UNL     1     -11.557  27.162  45.063  1.00  0.00     0.274 HD
ATOM     11  H32 UNL     1     -10.372  26.366  44.501  1.00  0.00     0.274 HD
ATOM     12  H31 UNL     1     -10.535  27.973  43.972  1.00  0.00     0.274 HD
ENDBRANCH   8   9
ENDBRANCH   7   8
ENDBRANCH   3   7
BRANCH   1  13
HETATM   13  N1  UNL     1     -11.770  24.593  39.168  1.00  0.00     0.088 N 
HETATM   14  C1  UNL     1     -12.400  23.374  39.623  1.00  0.00     0.310 C 
HETATM   15  C2  UNL     1     -11.623  24.527  37.739  1.00  0.00     0.310 C 
ENDBRANCH   1  13
BRANCH   5  16
HETATM   16  O1  UNL     1     -13.928  28.658  37.889  1.00  0.00    -0.391 OA
ATOM     17  H1  UNL     1     -14.217  28.070  37.201  1.00  0.00     0.210 HD
ENDBRANCH   5  16
BRANCH   6  18
HETATM   18  O2  UNL     1     -14.533  26.301  38.515  1.00  0.00    -0.391 OA
ATOM     19  H2  UNL     1     -14.836  25.962  37.681  1.00  0.00     0.210 HD
ENDBRANCH   6  18
TORSDOF 6
ENDMDL
