MODEL 1
REMARK VINA RESULT: -5.950705739      0.000      0.000
REMARK  5 active torsions:
REMARK  status: ('A' for Active; 'I' for Inactive)
REMARK    1  A    between atoms: S1_2  and  C3_4 
REMARK    2  A    between atoms: C3_4  and  C4_5 
REMARK    3  A    between atoms: C5_7  and  O2_8 
REMARK    4  A    between atoms: C6_10  and  O3_11 
REMARK    5  A    between atoms: C7_13  and  O4_14 
ROOT
HETATM    1  C4  UNL     1     -31.171  -5.614  42.585  1.00  0.00     0.164 C 
HETATM    2  O1  UNL     1     -31.891  -4.656  43.295  1.00  0.00    -0.350 OA
HETATM    3  C5  UNL     1     -30.833  -3.854  43.784  1.00  0.00     0.288 C 
HETATM    4  C6  UNL     1     -30.024  -3.558  42.557  1.00  0.00     0.204 C 
HETATM    5  C7  UNL     1     -30.332  -4.775  41.673  1.00  0.00     0.181 C 
ENDROOT
BRANCH   1   6
HETATM    6  C3  UNL     1     -32.106  -6.546  41.843  1.00  0.00     0.097 C 
BRANCH   6   7
HETATM    7  S1  UNL     1     -31.544  -8.225  41.928  1.00  0.00    -0.225 SA
HETATM    8  C1  UNL     1     -31.328  -8.808  40.247  1.00  0.00     0.078 C 
HETATM    9  C2  UNL     1     -32.766  -9.267  42.677  1.00  0.00     0.078 C 
ENDBRANCH   6   7
ENDBRANCH   1   6
BRANCH   5  10
HETATM   10  O4  UNL     1     -29.131  -5.341  41.320  1.00  0.00    -0.390 OA
ATOM     11  H4  UNL     1     -28.399  -4.735  41.303  1.00  0.00     0.210 HD
ENDBRANCH   5  10
BRANCH   3  12
HETATM   12  O2  UNL     1     -31.286  -2.739  44.447  1.00  0.00    -0.369 OA
ATOM     13  H2  UNL     1     -30.772  -1.966  44.246  1.00  0.00     0.212 HD
ENDBRANCH   3  12
BRANCH   4  14
HETATM   14  O3  UNL     1     -30.431  -2.384  41.937  1.00  0.00    -0.388 OA
ATOM     15  H3  UNL     1     -30.496  -2.485  40.995  1.00  0.00     0.210 HD
ENDBRANCH   4  14
TORSDOF 5
ENDMDL
MODEL 2
REMARK VINA RESULT: -5.866628582      1.104      2.434
REMARK  5 active torsions:
REMARK  status: ('A' for Active; 'I' for Inactive)
REMARK    1  A    between atoms: S1_2  and  C3_4 
REMARK    2  A    between atoms: C3_4  and  C4_5 
REMARK    3  A    between atoms: C5_7  and  O2_8 
REMARK    4  A    between atoms: C6_10  and  O3_11 
REMARK    5  A    between atoms: C7_13  and  O4_14 
ROOT
HETATM    1  C4  UNL     1     -30.817  -5.514  41.781  1.00  0.00     0.164 C 
HETATM    2  O1  UNL     1     -29.835  -4.531  41.877  1.00  0.00    -0.350 OA
HETATM    3  C5  UNL     1     -30.620  -3.423  42.271  1.00  0.00     0.288 C 
HETATM    4  C6  UNL     1     -31.401  -3.947  43.439  1.00  0.00     0.204 C 
HETATM    5  C7  UNL     1     -31.469  -5.449  43.126  1.00  0.00     0.181 C 
ENDROOT
BRANCH   1   6
HETATM    6  C3  UNL     1     -30.198  -6.863  41.484  1.00  0.00     0.097 C 
BRANCH   6   7
HETATM    7  S1  UNL     1     -31.385  -7.976  40.781  1.00  0.00    -0.225 SA
HETATM    8  C1  UNL     1     -32.131  -8.893  42.128  1.00  0.00     0.078 C 
HETATM    9  C2  UNL     1     -30.596  -9.165  39.730  1.00  0.00     0.078 C 
ENDBRANCH   6   7
ENDBRANCH   1   6
BRANCH   5  10
HETATM   10  O4  UNL     1     -32.793  -5.812  43.138  1.00  0.00    -0.390 OA
ATOM     11  H4  UNL     1     -33.103  -6.146  43.971  1.00  0.00     0.210 HD
ENDBRANCH   5  10
BRANCH   3  12
HETATM   12  O2  UNL     1     -29.858  -2.315  42.550  1.00  0.00    -0.369 OA
ATOM     13  H2  UNL     1     -29.872  -2.090  43.473  1.00  0.00     0.212 HD
ENDBRANCH   3  12
BRANCH   4  14
HETATM   14  O3  UNL     1     -30.746  -3.725  44.643  1.00  0.00    -0.388 OA
ATOM     15  H3  UNL     1     -31.230  -4.076  45.380  1.00  0.00     0.210 HD
ENDBRANCH   4  14
TORSDOF 5
ENDMDL
MODEL 3
REMARK VINA RESULT: -5.423496626      0.558      1.286
REMARK  5 active torsions:
REMARK  status: ('A' for Active; 'I' for Inactive)
REMARK    1  A    between atoms: S1_2  and  C3_4 
REMARK    2  A    between atoms: C3_4  and  C4_5 
REMARK    3  A    between atoms: C5_7  and  O2_8 
REMARK    4  A    between atoms: C6_10  and  O3_11 
REMARK    5  A    between atoms: C7_13  and  O4_14 
ROOT
HETATM    1  C4  UNL     1     -31.317  -5.645  42.208  1.00  0.00     0.164 C 
HETATM    2  O1  UNL     1     -31.992  -4.747  43.033  1.00  0.00    -0.350 OA
HETATM    3  C5  UNL     1     -30.901  -4.163  43.719  1.00  0.00     0.288 C 
HETATM    4  C6  UNL     1     -29.973  -3.755  42.614  1.00  0.00     0.204 C 
HETATM    5  C7  UNL     1     -30.331  -4.762  41.511  1.00  0.00     0.181 C 
ENDROOT
BRANCH   1   6
HETATM    6  C3  UNL     1     -32.280  -6.326  41.259  1.00  0.00     0.097 C 
BRANCH   6   7
HETATM    7  S1  UNL     1     -32.100  -8.089  41.314  1.00  0.00    -0.225 SA
HETATM    8  C1  UNL     1     -32.174  -8.586  43.034  1.00  0.00     0.078 C 
HETATM    9  C2  UNL     1     -30.511  -8.585  40.706  1.00  0.00     0.078 C 
ENDBRANCH   6   7
ENDBRANCH   1   6
BRANCH   5  10
HETATM   10  O4  UNL     1     -29.168  -5.389  41.135  1.00  0.00    -0.390 OA
ATOM     11  H4  UNL     1     -28.545  -4.830  40.687  1.00  0.00     0.210 HD
ENDBRANCH   5  10
BRANCH   3  12
HETATM   12  O2  UNL     1     -31.291  -3.134  44.540  1.00  0.00    -0.369 OA
ATOM     13  H2  UNL     1     -30.878  -2.310  44.310  1.00  0.00     0.212 HD
ENDBRANCH   3  12
BRANCH   4  14
HETATM   14  O3  UNL     1     -30.212  -2.455  42.189  1.00  0.00    -0.388 OA
ATOM     15  H3  UNL     1     -29.609  -2.188  41.506  1.00  0.00     0.210 HD
ENDBRANCH   4  14
TORSDOF 5
ENDMDL
MODEL 4
REMARK VINA RESULT: -5.265486262      2.875      5.392
REMARK  5 active torsions:
REMARK  status: ('A' for Active; 'I' for Inactive)
REMARK    1  A    between atoms: S1_2  and  C3_4 
REMARK    2  A    between atoms: C3_4  and  C4_5 
REMARK    3  A    between atoms: C5_7  and  O2_8 
REMARK    4  A    between atoms: C6_10  and  O3_11 
REMARK    5  A    between atoms: C7_13  and  O4_14 
ROOT
HETATM    1  C4  UNL     1     -31.633  -7.438  42.166  1.00  0.00     0.164 C 
HETATM    2  O1  UNL     1     -30.874  -7.337  41.002  1.00  0.00    -0.350 OA
HETATM    3  C5  UNL     1     -30.729  -8.705  40.672  1.00  0.00     0.288 C 
HETATM    4  C6  UNL     1     -32.135  -9.224  40.716  1.00  0.00     0.204 C 
HETATM    5  C7  UNL     1     -32.795  -8.268  41.719  1.00  0.00     0.181 C 
ENDROOT
BRANCH   1   6
HETATM    6  C3  UNL     1     -32.037  -6.066  42.662  1.00  0.00     0.097 C 
BRANCH   6   7
HETATM    7  S1  UNL     1     -30.704  -4.908  42.509  1.00  0.00    -0.225 SA
HETATM    8  C1  UNL     1     -31.001  -3.583  43.679  1.00  0.00     0.078 C 
HETATM    9  C2  UNL     1     -30.686  -4.170  40.897  1.00  0.00     0.078 C 
ENDBRANCH   6   7
ENDBRANCH   1   6
BRANCH   5  10
HETATM   10  O4  UNL     1     -33.362  -9.036  42.707  1.00  0.00    -0.390 OA
ATOM     11  H4  UNL     1     -34.145  -9.504  42.443  1.00  0.00     0.210 HD
ENDBRANCH   5  10
BRANCH   3  12
HETATM   12  O2  UNL     1     -30.095  -8.888  39.468  1.00  0.00    -0.369 OA
ATOM     13  H2  UNL     1     -29.336  -9.455  39.541  1.00  0.00     0.212 HD
ENDBRANCH   3  12
BRANCH   4  14
HETATM   14  O3  UNL     1     -32.758  -9.142  39.477  1.00  0.00    -0.388 OA
ATOM     15  H3  UNL     1     -33.476  -9.758  39.400  1.00  0.00     0.210 HD
ENDBRANCH   4  14
TORSDOF 5
ENDMDL
MODEL 5
REMARK VINA RESULT: -5.120199458      2.947      5.425
REMARK  5 active torsions:
REMARK  status: ('A' for Active; 'I' for Inactive)
REMARK    1  A    between atoms: S1_2  and  C3_4 
REMARK    2  A    between atoms: C3_4  and  C4_5 
REMARK    3  A    between atoms: C5_7  and  O2_8 
REMARK    4  A    between atoms: C6_10  and  O3_11 
REMARK    5  A    between atoms: C7_13  and  O4_14 
ROOT
HETATM    1  C4  UNL     1     -31.036  -6.855  41.253  1.00  0.00     0.164 C 
HETATM    2  O1  UNL     1     -30.502  -7.374  40.075  1.00  0.00    -0.350 OA
HETATM    3  C5  UNL     1     -30.641  -8.760  40.322  1.00  0.00     0.288 C 
HETATM    4  C6  UNL     1     -32.078  -8.900  40.726  1.00  0.00     0.204 C 
HETATM    5  C7  UNL     1     -32.378  -7.514  41.315  1.00  0.00     0.181 C 
ENDROOT
BRANCH   1   6
HETATM    6  C3  UNL     1     -31.117  -5.345  41.185  1.00  0.00     0.097 C 
BRANCH   6   7
HETATM    7  S1  UNL     1     -30.648  -4.604  42.725  1.00  0.00    -0.225 SA
HETATM    8  C1  UNL     1     -32.011  -4.822  43.868  1.00  0.00     0.078 C 
HETATM    9  C2  UNL     1     -30.409  -2.857  42.543  1.00  0.00     0.078 C 
ENDBRANCH   6   7
ENDBRANCH   1   6
BRANCH   5  10
HETATM   10  O4  UNL     1     -32.863  -7.704  42.586  1.00  0.00    -0.390 OA
ATOM     11  H4  UNL     1     -33.142  -8.592  42.773  1.00  0.00     0.210 HD
ENDBRANCH   5  10
BRANCH   3  12
HETATM   12  O2  UNL     1     -30.280  -9.522  39.237  1.00  0.00    -0.369 OA
ATOM     13  H2  UNL     1     -30.614  -9.170  38.421  1.00  0.00     0.212 HD
ENDBRANCH   3  12
BRANCH   4  14
HETATM   14  O3  UNL     1     -32.900  -9.161  39.638  1.00  0.00    -0.388 OA
ATOM     15  H3  UNL     1     -33.728  -8.699  39.701  1.00  0.00     0.210 HD
ENDBRANCH   4  14
TORSDOF 5
ENDMDL
