MODEL 1
REMARK VINA RESULT: -6.166496359      0.000      0.000
REMARK  6 active torsions:
REMARK  status: ('A' for Active; 'I' for Inactive)
REMARK    1  A    between atoms: C2_2  and  C3_3 
REMARK    2  A    between atoms: C3_3  and  N1_4 
REMARK    3  A    between atoms: C5_6  and  O1_7 
REMARK    4  A    between atoms: C6_9  and  O2_10 
REMARK    5  A    between atoms: C7_12  and  C8_13 
REMARK    6  A    between atoms: C8_13  and  O3_14 
ROOT
HETATM    1  N1  UNL     1     -31.050  -6.156  42.072  1.00  0.00    -0.367 N 
HETATM    2  C4  UNL     1     -32.439  -6.360  42.119  1.00  0.00     0.161 C 
HETATM    3  C5  UNL     1     -32.629  -7.885  42.119  1.00  0.00     0.165 C 
HETATM    4  C6  UNL     1     -32.374  -8.247  40.649  1.00  0.00     0.159 C 
HETATM    5  C7  UNL     1     -30.962  -7.901  40.325  1.00  0.00     0.079 C 
HETATM    6  C9  UNL     1     -30.269  -7.063  41.351  1.00  0.00     0.073 C 
ENDROOT
BRANCH   1   7
HETATM    7  C3  UNL     1     -30.563  -4.849  42.277  1.00  0.00     0.089 C 
BRANCH   7   8
HETATM    8  C2  UNL     1     -31.279  -4.198  43.428  1.00  0.00     0.007 C 
HETATM    9  C1  UNL     1     -30.949  -2.978  43.803  1.00  0.00     0.012 C 
ENDBRANCH   7   8
ENDBRANCH   1   7
BRANCH   3  10
HETATM   10  O1  UNL     1     -33.883  -8.250  42.534  1.00  0.00    -0.391 OA
ATOM     11  H1  UNL     1     -34.182  -9.048  42.115  1.00  0.00     0.210 HD
ENDBRANCH   3  10
BRANCH   5  12
HETATM   12  C8  UNL     1     -30.187  -9.184  40.095  1.00  0.00     0.176 C 
BRANCH  12  13
HETATM   13  O3  UNL     1     -30.338  -9.664  38.808  1.00  0.00    -0.400 OA
ATOM     14  H3  UNL     1     -30.055 -10.568  38.725  1.00  0.00     0.209 HD
ENDBRANCH  12  13
ENDBRANCH   5  12
BRANCH   4  15
HETATM   15  O2  UNL     1     -32.716  -9.555  40.416  1.00  0.00    -0.392 OA
ATOM     16  H2  UNL     1     -32.485  -9.802  39.529  1.00  0.00     0.210 HD
ENDBRANCH   4  15
TORSDOF 6
ENDMDL
MODEL 2
REMARK VINA RESULT: -5.761671118      1.394      2.690
REMARK  6 active torsions:
REMARK  status: ('A' for Active; 'I' for Inactive)
REMARK    1  A    between atoms: C2_2  and  C3_3 
REMARK    2  A    between atoms: C3_3  and  N1_4 
REMARK    3  A    between atoms: C5_6  and  O1_7 
REMARK    4  A    between atoms: C6_9  and  O2_10 
REMARK    5  A    between atoms: C7_12  and  C8_13 
REMARK    6  A    between atoms: C8_13  and  O3_14 
ROOT
HETATM    1  N1  UNL     1     -31.318  -5.423  42.379  1.00  0.00    -0.367 N 
HETATM    2  C4  UNL     1     -30.066  -5.456  41.742  1.00  0.00     0.161 C 
HETATM    3  C5  UNL     1     -30.246  -6.390  40.534  1.00  0.00     0.165 C 
HETATM    4  C6  UNL     1     -30.229  -7.779  41.188  1.00  0.00     0.159 C 
HETATM    5  C7  UNL     1     -31.404  -7.876  42.097  1.00  0.00     0.079 C 
HETATM    6  C9  UNL     1     -32.100  -6.581  42.368  1.00  0.00     0.073 C 
ENDROOT
BRANCH   1   7
HETATM    7  C3  UNL     1     -31.516  -4.476  43.403  1.00  0.00     0.089 C 
BRANCH   7   8
HETATM    8  C2  UNL     1     -30.745  -3.218  43.110  1.00  0.00     0.007 C 
HETATM    9  C1  UNL     1     -30.842  -2.183  43.921  1.00  0.00     0.012 C 
ENDBRANCH   7   8
ENDBRANCH   1   7
BRANCH   3  10
HETATM   10  O1  UNL     1     -29.245  -6.238  39.610  1.00  0.00    -0.391 OA
ATOM     11  H1  UNL     1     -29.309  -6.872  38.905  1.00  0.00     0.210 HD
ENDBRANCH   3  10
BRANCH   5  12
HETATM   12  C8  UNL     1     -32.384  -8.880  41.521  1.00  0.00     0.176 C 
BRANCH  12  13
HETATM   13  O3  UNL     1     -32.952  -8.440  40.341  1.00  0.00    -0.400 OA
ATOM     14  H3  UNL     1     -33.163  -7.514  40.366  1.00  0.00     0.209 HD
ENDBRANCH  12  13
ENDBRANCH   5  12
BRANCH   4  15
HETATM   15  O2  UNL     1     -30.160  -8.755  40.226  1.00  0.00    -0.392 OA
ATOM     16  H2  UNL     1     -29.708  -9.518  40.565  1.00  0.00     0.210 HD
ENDBRANCH   4  15
TORSDOF 6
ENDMDL
MODEL 3
REMARK VINA RESULT: -5.473127999      2.937      5.021
REMARK  6 active torsions:
REMARK  status: ('A' for Active; 'I' for Inactive)
REMARK    1  A    between atoms: C2_2  and  C3_3 
REMARK    2  A    between atoms: C3_3  and  N1_4 
REMARK    3  A    between atoms: C5_6  and  O1_7 
REMARK    4  A    between atoms: C6_9  and  O2_10 
REMARK    5  A    between atoms: C7_12  and  C8_13 
REMARK    6  A    between atoms: C8_13  and  O3_14 
ROOT
HETATM    1  N1  UNL     1     -30.862  -7.416  41.601  1.00  0.00    -0.367 N 
HETATM    2  C4  UNL     1     -30.429  -6.865  40.383  1.00  0.00     0.161 C 
HETATM    3  C5  UNL     1     -29.711  -5.559  40.756  1.00  0.00     0.165 C 
HETATM    4  C6  UNL     1     -30.883  -4.613  41.054  1.00  0.00     0.159 C 
HETATM    5  C7  UNL     1     -31.624  -5.151  42.229  1.00  0.00     0.079 C 
HETATM    6  C9  UNL     1     -31.255  -6.546  42.621  1.00  0.00     0.073 C 
ENDROOT
BRANCH   1   7
HETATM    7  C3  UNL     1     -31.370  -8.730  41.593  1.00  0.00     0.089 C 
BRANCH   7   8
HETATM    8  C2  UNL     1     -32.292  -8.944  42.761  1.00  0.00     0.007 C 
HETATM    9  C1  UNL     1     -33.308  -9.778  42.653  1.00  0.00     0.012 C 
ENDBRANCH   7   8
ENDBRANCH   1   7
BRANCH   3  10
HETATM   10  O1  UNL     1     -28.916  -5.097  39.739  1.00  0.00    -0.391 OA
ATOM     11  H1  UNL     1     -29.264  -5.318  38.883  1.00  0.00     0.210 HD
ENDBRANCH   3  10
BRANCH   5  12
HETATM   12  C8  UNL     1     -31.422  -4.212  43.403  1.00  0.00     0.176 C 
BRANCH  12  13
HETATM   13  O3  UNL     1     -30.127  -4.247  43.885  1.00  0.00    -0.400 OA
ATOM     14  H3  UNL     1     -30.084  -4.571  44.777  1.00  0.00     0.209 HD
ENDBRANCH  12  13
ENDBRANCH   5  12
BRANCH   4  15
HETATM   15  O2  UNL     1     -30.430  -3.326  41.196  1.00  0.00    -0.392 OA
ATOM     16  H2  UNL     1     -29.992  -3.044  40.402  1.00  0.00     0.210 HD
ENDBRANCH   4  15
TORSDOF 6
ENDMDL
MODEL 4
REMARK VINA RESULT: -5.342738300      3.063      5.422
REMARK  6 active torsions:
REMARK  status: ('A' for Active; 'I' for Inactive)
REMARK    1  A    between atoms: C2_2  and  C3_3 
REMARK    2  A    between atoms: C3_3  and  N1_4 
REMARK    3  A    between atoms: C5_6  and  O1_7 
REMARK    4  A    between atoms: C6_9  and  O2_10 
REMARK    5  A    between atoms: C7_12  and  C8_13 
REMARK    6  A    between atoms: C8_13  and  O3_14 
ROOT
HETATM    1  N1  UNL     1     -31.845  -6.725  42.231  1.00  0.00    -0.367 N 
HETATM    2  C4  UNL     1     -31.195  -6.307  41.057  1.00  0.00     0.161 C 
HETATM    3  C5  UNL     1     -30.008  -5.452  41.529  1.00  0.00     0.165 C 
HETATM    4  C6  UNL     1     -30.688  -4.133  41.921  1.00  0.00     0.159 C 
HETATM    5  C7  UNL     1     -31.611  -4.408  43.056  1.00  0.00     0.079 C 
HETATM    6  C9  UNL     1     -31.864  -5.857  43.325  1.00  0.00     0.073 C 
ENDROOT
BRANCH   1   7
HETATM    7  C3  UNL     1     -32.852  -7.704  42.118  1.00  0.00     0.089 C 
BRANCH   7   8
HETATM    8  C2  UNL     1     -32.277  -8.990  41.592  1.00  0.00     0.007 C 
HETATM    9  C1  UNL     1     -32.447  -9.317  40.326  1.00  0.00     0.012 C 
ENDBRANCH   7   8
ENDBRANCH   1   7
BRANCH   3  10
HETATM   10  O1  UNL     1     -29.070  -5.281  40.543  1.00  0.00    -0.391 OA
ATOM     11  H1  UNL     1     -28.380  -4.683  40.805  1.00  0.00     0.210 HD
ENDBRANCH   3  10
BRANCH   5  12
HETATM   12  C8  UNL     1     -31.064  -3.738  44.302  1.00  0.00     0.176 C 
BRANCH  12  13
HETATM   13  O3  UNL     1     -31.232  -2.366  44.276  1.00  0.00    -0.400 OA
ATOM     14  H3  UNL     1     -30.588  -1.935  43.726  1.00  0.00     0.209 HD
ENDBRANCH  12  13
ENDBRANCH   5  12
BRANCH   4  15
HETATM   15  O2  UNL     1     -29.745  -3.167  42.164  1.00  0.00    -0.392 OA
ATOM     16  H2  UNL     1     -30.138  -2.304  42.110  1.00  0.00     0.210 HD
ENDBRANCH   4  15
TORSDOF 6
ENDMDL
MODEL 5
REMARK VINA RESULT: -5.294080251      1.340      2.925
REMARK  6 active torsions:
REMARK  status: ('A' for Active; 'I' for Inactive)
REMARK    1  A    between atoms: C2_2  and  C3_3 
REMARK    2  A    between atoms: C3_3  and  N1_4 
REMARK    3  A    between atoms: C5_6  and  O1_7 
REMARK    4  A    between atoms: C6_9  and  O2_10 
REMARK    5  A    between atoms: C7_12  and  C8_13 
REMARK    6  A    between atoms: C8_13  and  O3_14 
ROOT
HETATM    1  N1  UNL     1     -30.882  -5.135  41.551  1.00  0.00    -0.367 N 
HETATM    2  C4  UNL     1     -29.842  -5.930  41.041  1.00  0.00     0.161 C 
HETATM    3  C5  UNL     1     -30.522  -7.206  40.518  1.00  0.00     0.165 C 
HETATM    4  C6  UNL     1     -30.814  -7.977  41.813  1.00  0.00     0.159 C 
HETATM    5  C7  UNL     1     -31.771  -7.176  42.623  1.00  0.00     0.079 C 
HETATM    6  C9  UNL     1     -31.971  -5.770  42.153  1.00  0.00     0.073 C 
ENDROOT
BRANCH   1   7
HETATM    7  C3  UNL     1     -30.585  -3.804  41.909  1.00  0.00     0.089 C 
BRANCH   7   8
HETATM    8  C2  UNL     1     -30.911  -3.566  43.358  1.00  0.00     0.007 C 
HETATM    9  C1  UNL     1     -30.814  -2.351  43.862  1.00  0.00     0.012 C 
ENDBRANCH   7   8
ENDBRANCH   1   7
BRANCH   3  10
HETATM   10  O1  UNL     1     -29.712  -7.909  39.664  1.00  0.00    -0.391 OA
ATOM     11  H1  UNL     1     -28.790  -7.764  39.843  1.00  0.00     0.210 HD
ENDBRANCH   3  10
BRANCH   5  12
HETATM   12  C8  UNL     1     -33.103  -7.902  42.663  1.00  0.00     0.176 C 
BRANCH  12  13
HETATM   13  O3  UNL     1     -34.103  -7.197  42.021  1.00  0.00    -0.400 OA
ATOM     14  H3  UNL     1     -33.914  -7.061  41.100  1.00  0.00     0.209 HD
ENDBRANCH  12  13
ENDBRANCH   5  12
BRANCH   4  15
HETATM   15  O2  UNL     1     -31.228  -9.252  41.522  1.00  0.00    -0.392 OA
ATOM     16  H2  UNL     1     -30.610  -9.885  41.867  1.00  0.00     0.210 HD
ENDBRANCH   4  15
TORSDOF 6
ENDMDL
