MODEL 1
REMARK VINA RESULT: -8.983929867      0.000      0.000
REMARK  14 active torsions:
REMARK  status: ('A' for Active; 'I' for Inactive)
REMARK    1  A    between atoms: C1_2  and  C2_3 
REMARK       I    between atoms: C1_2  and  N5_31 
REMARK    2  A    between atoms: C2_3  and  C3_4 
REMARK    3  A    between atoms: C3_4  and  C4_5 
REMARK    4  A    between atoms: C3_4  and  N3_18 
REMARK       I    between atoms: C4_5  and  N1_7 
REMARK    5  A    between atoms: N1_7  and  C5_9 
REMARK    6  A    between atoms: C5_9  and  C6_10 
REMARK    7  A    between atoms: C6_10  and  C7_11 
REMARK    8  A    between atoms: C7_11  and  N2_12 
REMARK    9  A    between atoms: C14_21  and  C15_22 
REMARK   10  A    between atoms: C15_22  and  C16_23 
REMARK   11  A    between atoms: C16_23  and  N4_24 
REMARK   12  A    between atoms: N5_31  and  C22_33 
REMARK   13  A    between atoms: C22_33  and  C23_34 
REMARK   14  A    between atoms: C23_34  and  C24_35 
ROOT
HETATM    1  C3  UNL     1      12.197 -19.921 -16.955  1.00  0.00     0.188 C 
ENDROOT
BRANCH   1   2
HETATM    2  C2  UNL     1      12.614 -20.241 -18.349  1.00  0.00     0.138 C 
BRANCH   2   3
HETATM    3  C1  UNL     1      13.777 -21.094 -18.515  1.00  0.00     0.220 C 
HETATM    4  O1  UNL     1      14.932 -20.629 -18.464  1.00  0.00    -0.274 OA
HETATM    5  N5  UNL     1      13.619 -22.482 -18.737  1.00  0.00    -0.361 N 
ATOM      6  H5  UNL     1      12.684 -22.886 -18.781  1.00  0.00     0.162 HD
BRANCH   5   7
HETATM    7  C22 UNL     1      14.778 -23.330 -18.902  1.00  0.00     0.123 C 
BRANCH   7   8
HETATM    8  C23 UNL     1      14.414 -24.766 -19.088  1.00  0.00     0.024 C 
BRANCH   8   9
HETATM    9  C24 UNL     1      15.589 -25.554 -19.556  1.00  0.00    -0.010 C 
HETATM   10  C25 UNL     1      16.057 -25.078 -20.932  1.00  0.00     0.032 C 
HETATM   11  C26 UNL     1      17.223 -25.923 -21.367  1.00  0.00     0.232 C 
HETATM   12  N6  UNL     1      18.324 -25.930 -20.455  1.00  0.00    -0.075 N 
HETATM   13  C27 UNL     1      17.882 -26.359 -19.166  1.00  0.00     0.232 C 
ATOM     14  H62 UNL     1      19.103 -26.491 -20.799  1.00  0.00     0.277 HD
ATOM     15  H61 UNL     1      18.797 -25.027 -20.418  1.00  0.00     0.277 HD
HETATM   16  C28 UNL     1      16.755 -25.462 -18.633  1.00  0.00     0.032 C 
ENDBRANCH   8   9
ENDBRANCH   7   8
ENDBRANCH   5   7
ENDBRANCH   2   3
ENDBRANCH   1   2
BRANCH   1  17
HETATM   17  C4  UNL     1      12.488 -20.974 -15.958  1.00  0.00     0.241 C 
HETATM   18  O2  UNL     1      12.012 -22.134 -16.023  1.00  0.00    -0.271 OA
HETATM   19  N1  UNL     1      13.357 -20.650 -14.870  1.00  0.00    -0.359 N 
ATOM     20  H1  UNL     1      13.754 -19.714 -14.792  1.00  0.00     0.162 HD
BRANCH  19  21
HETATM   21  C5  UNL     1      13.669 -21.654 -13.885  1.00  0.00     0.124 C 
BRANCH  21  22
HETATM   22  C6  UNL     1      14.819 -22.522 -14.273  1.00  0.00     0.039 C 
BRANCH  22  23
HETATM   23  C7  UNL     1      16.006 -21.805 -14.824  1.00  0.00     0.118 C 
BRANCH  23  24
HETATM   24  N2  UNL     1      17.144 -22.642 -15.036  1.00  0.00    -0.408 N 
HETATM   25  C8  UNL     1      18.250 -22.420 -14.162  1.00  0.00     0.143 C 
HETATM   26  C9  UNL     1      19.443 -21.811 -14.844  1.00  0.00     0.187 C 
HETATM   27  O3  UNL     1      19.857 -22.551 -15.924  1.00  0.00    -0.388 OA
HETATM   28  C10 UNL     1      18.922 -23.408 -16.447  1.00  0.00     0.187 C 
HETATM   29  C11 UNL     1      17.504 -22.871 -16.398  1.00  0.00     0.143 C 
ENDBRANCH  23  24
ENDBRANCH  22  23
ENDBRANCH  21  22
ENDBRANCH  19  21
ENDBRANCH   1  17
BRANCH   1  30
HETATM   30  N3  UNL     1      10.842 -19.404 -16.825  1.00  0.00    -0.338 N 
HETATM   31  C12 UNL     1       9.838 -19.271 -17.842  1.00  0.00     0.127 C 
HETATM   32  C13 UNL     1       8.540 -18.832 -17.155  1.00  0.00     0.034 C 
HETATM   33  C14 UNL     1       8.787 -19.121 -15.726  1.00  0.00     0.081 C 
HETATM   34  C21 UNL     1      10.238 -18.929 -15.608  1.00  0.00     0.224 C 
HETATM   35  O4  UNL     1      10.856 -18.452 -14.654  1.00  0.00    -0.273 OA
BRANCH  33  36
HETATM   36  C15 UNL     1       7.951 -18.515 -14.688  1.00  0.00     0.044 C 
BRANCH  36  37
HETATM   37  C16 UNL     1       6.936 -17.514 -15.043  1.00  0.00     0.273 C 
BRANCH  37  38
HETATM   38  N4  UNL     1       7.341 -16.144 -15.124  1.00  0.00     0.088 N 
HETATM   39  C17 UNL     1       8.149 -15.744 -13.980  1.00  0.00     0.272 C 
HETATM   40  C18 UNL     1       7.694 -14.385 -13.535  1.00  0.00     0.032 C 
HETATM   41  C19 UNL     1       6.910 -13.921 -14.772  1.00  0.00     0.032 C 
HETATM   42  C20 UNL     1       6.209 -15.228 -15.076  1.00  0.00     0.272 C 
ENDBRANCH  37  38
ENDBRANCH  36  37
ENDBRANCH  33  36
ENDBRANCH   1  30
TORSDOF 14
ENDMDL
MODEL 2
REMARK VINA RESULT: -8.898820783      2.166     10.630
REMARK  14 active torsions:
REMARK  status: ('A' for Active; 'I' for Inactive)
REMARK    1  A    between atoms: C1_2  and  C2_3 
REMARK       I    between atoms: C1_2  and  N5_31 
REMARK    2  A    between atoms: C2_3  and  C3_4 
REMARK    3  A    between atoms: C3_4  and  C4_5 
REMARK    4  A    between atoms: C3_4  and  N3_18 
REMARK       I    between atoms: C4_5  and  N1_7 
REMARK    5  A    between atoms: N1_7  and  C5_9 
REMARK    6  A    between atoms: C5_9  and  C6_10 
REMARK    7  A    between atoms: C6_10  and  C7_11 
REMARK    8  A    between atoms: C7_11  and  N2_12 
REMARK    9  A    between atoms: C14_21  and  C15_22 
REMARK   10  A    between atoms: C15_22  and  C16_23 
REMARK   11  A    between atoms: C16_23  and  N4_24 
REMARK   12  A    between atoms: N5_31  and  C22_33 
REMARK   13  A    between atoms: C22_33  and  C23_34 
REMARK   14  A    between atoms: C23_34  and  C24_35 
ROOT
HETATM    1  C3  UNL     1      12.936 -20.265 -16.559  1.00  0.00     0.188 C 
ENDROOT
BRANCH   1   2
HETATM    2  C2  UNL     1      12.333 -19.439 -15.475  1.00  0.00     0.138 C 
BRANCH   2   3
HETATM    3  C1  UNL     1      11.049 -18.819 -15.749  1.00  0.00     0.220 C 
HETATM    4  O1  UNL     1      10.974 -17.655 -16.188  1.00  0.00    -0.274 OA
HETATM    5  N5  UNL     1       9.849 -19.533 -15.523  1.00  0.00    -0.361 N 
ATOM      6  H5  UNL     1       9.885 -20.487 -15.167  1.00  0.00     0.162 HD
BRANCH   5   7
HETATM    7  C22 UNL     1       8.571 -18.915 -15.797  1.00  0.00     0.123 C 
BRANCH   7   8
HETATM    8  C23 UNL     1       7.825 -18.569 -14.551  1.00  0.00     0.024 C 
BRANCH   8   9
HETATM    9  C24 UNL     1       7.795 -17.093 -14.343  1.00  0.00    -0.010 C 
HETATM   10  C25 UNL     1       9.016 -16.626 -13.548  1.00  0.00     0.032 C 
HETATM   11  C26 UNL     1       8.921 -15.139 -13.343  1.00  0.00     0.232 C 
HETATM   12  N6  UNL     1       8.807 -14.379 -14.549  1.00  0.00    -0.075 N 
HETATM   13  C27 UNL     1       7.676 -14.828 -15.298  1.00  0.00     0.232 C 
ATOM     14  H62 UNL     1       8.773 -13.376 -14.369  1.00  0.00     0.277 HD
ATOM     15  H61 UNL     1       9.665 -14.402 -15.099  1.00  0.00     0.277 HD
HETATM   16  C28 UNL     1       7.776 -16.327 -15.619  1.00  0.00     0.032 C 
ENDBRANCH   8   9
ENDBRANCH   7   8
ENDBRANCH   5   7
ENDBRANCH   2   3
ENDBRANCH   1   2
BRANCH   1  17
HETATM   17  C4  UNL     1      12.043 -21.298 -17.128  1.00  0.00     0.241 C 
HETATM   18  O2  UNL     1      11.539 -22.223 -16.446  1.00  0.00    -0.271 OA
HETATM   19  N1  UNL     1      11.741 -21.233 -18.523  1.00  0.00    -0.359 N 
ATOM     20  H1  UNL     1      12.141 -20.493 -19.101  1.00  0.00     0.162 HD
BRANCH  19  21
HETATM   21  C5  UNL     1      10.868 -22.218 -19.110  1.00  0.00     0.124 C 
BRANCH  21  22
HETATM   22  C6  UNL     1       9.689 -21.621 -19.802  1.00  0.00     0.039 C 
BRANCH  22  23
HETATM   23  C7  UNL     1       9.090 -20.428 -19.135  1.00  0.00     0.118 C 
BRANCH  23  24
HETATM   24  N2  UNL     1       9.014 -19.272 -19.972  1.00  0.00    -0.408 N 
HETATM   25  C8  UNL     1       9.250 -18.021 -19.327  1.00  0.00     0.143 C 
HETATM   26  C9  UNL     1       8.023 -17.162 -19.213  1.00  0.00     0.187 C 
HETATM   27  O3  UNL     1       7.428 -16.941 -20.431  1.00  0.00    -0.388 OA
HETATM   28  C10 UNL     1       7.752 -17.838 -21.418  1.00  0.00     0.187 C 
HETATM   29  C11 UNL     1       7.944 -19.256 -20.917  1.00  0.00     0.143 C 
ENDBRANCH  23  24
ENDBRANCH  22  23
ENDBRANCH  21  22
ENDBRANCH  19  21
ENDBRANCH   1  17
BRANCH   1  30
HETATM   30  N3  UNL     1      14.261 -20.790 -16.262  1.00  0.00    -0.338 N 
HETATM   31  C12 UNL     1      14.972 -20.762 -15.016  1.00  0.00     0.127 C 
HETATM   32  C13 UNL     1      16.249 -21.591 -15.195  1.00  0.00     0.034 C 
HETATM   33  C14 UNL     1      15.991 -22.368 -16.425  1.00  0.00     0.081 C 
HETATM   34  C21 UNL     1      15.123 -21.468 -17.195  1.00  0.00     0.224 C 
HETATM   35  O4  UNL     1      15.110 -21.302 -18.416  1.00  0.00    -0.273 OA
BRANCH  33  36
HETATM   36  C15 UNL     1      17.093 -23.006 -17.148  1.00  0.00     0.044 C 
BRANCH  36  37
HETATM   37  C16 UNL     1      16.905 -24.320 -17.778  1.00  0.00     0.273 C 
BRANCH  37  38
HETATM   38  N4  UNL     1      17.185 -24.442 -19.177  1.00  0.00     0.088 N 
HETATM   39  C17 UNL     1      15.990 -24.264 -19.990  1.00  0.00     0.272 C 
HETATM   40  C18 UNL     1      15.999 -25.304 -21.072  1.00  0.00     0.032 C 
HETATM   41  C19 UNL     1      17.470 -25.746 -21.039  1.00  0.00     0.032 C 
HETATM   42  C20 UNL     1      17.644 -25.778 -19.535  1.00  0.00     0.272 C 
ENDBRANCH  37  38
ENDBRANCH  36  37
ENDBRANCH  33  36
ENDBRANCH   1  30
TORSDOF 14
ENDMDL
MODEL 3
REMARK VINA RESULT: -8.795876278      2.330      8.073
REMARK  14 active torsions:
REMARK  status: ('A' for Active; 'I' for Inactive)
REMARK    1  A    between atoms: C1_2  and  C2_3 
REMARK       I    between atoms: C1_2  and  N5_31 
REMARK    2  A    between atoms: C2_3  and  C3_4 
REMARK    3  A    between atoms: C3_4  and  C4_5 
REMARK    4  A    between atoms: C3_4  and  N3_18 
REMARK       I    between atoms: C4_5  and  N1_7 
REMARK    5  A    between atoms: N1_7  and  C5_9 
REMARK    6  A    between atoms: C5_9  and  C6_10 
REMARK    7  A    between atoms: C6_10  and  C7_11 
REMARK    8  A    between atoms: C7_11  and  N2_12 
REMARK    9  A    between atoms: C14_21  and  C15_22 
REMARK   10  A    between atoms: C15_22  and  C16_23 
REMARK   11  A    between atoms: C16_23  and  N4_24 
REMARK   12  A    between atoms: N5_31  and  C22_33 
REMARK   13  A    between atoms: C22_33  and  C23_34 
REMARK   14  A    between atoms: C23_34  and  C24_35 
ROOT
HETATM    1  C3  UNL     1      11.408 -19.917 -15.930  1.00  0.00     0.188 C 
ENDROOT
BRANCH   1   2
HETATM    2  C2  UNL     1      11.594 -18.620 -15.220  1.00  0.00     0.138 C 
BRANCH   2   3
HETATM    3  C1  UNL     1      10.411 -18.001 -14.651  1.00  0.00     0.220 C 
HETATM    4  O1  UNL     1      10.491 -16.957 -13.976  1.00  0.00    -0.274 OA
HETATM    5  N5  UNL     1       9.135 -18.574 -14.857  1.00  0.00    -0.361 N 
ATOM      6  H5  UNL     1       9.045 -19.427 -15.408  1.00  0.00     0.162 HD
BRANCH   5   7
HETATM    7  C22 UNL     1       7.958 -17.956 -14.290  1.00  0.00     0.123 C 
BRANCH   7   8
HETATM    8  C23 UNL     1       6.993 -17.498 -15.334  1.00  0.00     0.024 C 
BRANCH   8   9
HETATM    9  C24 UNL     1       6.880 -16.011 -15.335  1.00  0.00    -0.010 C 
HETATM   10  C25 UNL     1       5.428 -15.572 -15.532  1.00  0.00     0.032 C 
HETATM   11  C26 UNL     1       5.375 -14.070 -15.553  1.00  0.00     0.232 C 
HETATM   12  N6  UNL     1       5.919 -13.439 -14.392  1.00  0.00    -0.075 N 
HETATM   13  C27 UNL     1       7.270 -13.863 -14.199  1.00  0.00     0.232 C 
ATOM     14  H62 UNL     1       5.839 -12.423 -14.433  1.00  0.00     0.277 HD
ATOM     15  H61 UNL     1       5.345 -13.599 -13.564  1.00  0.00     0.277 HD
HETATM   16  C28 UNL     1       7.364 -15.391 -14.071  1.00  0.00     0.032 C 
ENDBRANCH   8   9
ENDBRANCH   7   8
ENDBRANCH   5   7
ENDBRANCH   2   3
ENDBRANCH   1   2
BRANCH   1  17
HETATM   17  C4  UNL     1      12.460 -20.925 -15.677  1.00  0.00     0.241 C 
HETATM   18  O2  UNL     1      12.332 -22.141 -15.962  1.00  0.00    -0.271 OA
HETATM   19  N1  UNL     1      13.683 -20.488 -15.079  1.00  0.00    -0.359 N 
ATOM     20  H1  UNL     1      13.811 -19.506 -14.833  1.00  0.00     0.162 HD
BRANCH  19  21
HETATM   21  C5  UNL     1      14.733 -21.441 -14.825  1.00  0.00     0.124 C 
BRANCH  21  22
HETATM   22  C6  UNL     1      15.782 -21.456 -15.886  1.00  0.00     0.039 C 
BRANCH  22  23
HETATM   23  C7  UNL     1      15.972 -22.763 -16.580  1.00  0.00     0.118 C 
BRANCH  23  24
HETATM   24  N2  UNL     1      15.917 -22.678 -18.005  1.00  0.00    -0.408 N 
HETATM   25  C8  UNL     1      14.947 -21.775 -18.536  1.00  0.00     0.143 C 
HETATM   26  C9  UNL     1      13.803 -22.459 -19.228  1.00  0.00     0.187 C 
HETATM   27  O3  UNL     1      14.228 -23.306 -20.222  1.00  0.00    -0.388 OA
HETATM   28  C10 UNL     1      15.536 -23.712 -20.132  1.00  0.00     0.187 C 
HETATM   29  C11 UNL     1      16.017 -23.916 -18.708  1.00  0.00     0.143 C 
ENDBRANCH  23  24
ENDBRANCH  22  23
ENDBRANCH  21  22
ENDBRANCH  19  21
ENDBRANCH   1  17
BRANCH   1  30
HETATM   30  N3  UNL     1      11.095 -19.799 -17.347  1.00  0.00    -0.338 N 
HETATM   31  C12 UNL     1      11.947 -19.360 -18.415  1.00  0.00     0.127 C 
HETATM   32  C13 UNL     1      11.189 -19.578 -19.730  1.00  0.00     0.034 C 
HETATM   33  C14 UNL     1      10.094 -20.496 -19.353  1.00  0.00     0.081 C 
HETATM   34  C21 UNL     1       9.831 -20.125 -17.957  1.00  0.00     0.224 C 
HETATM   35  O4  UNL     1       8.742 -20.088 -17.383  1.00  0.00    -0.273 OA
BRANCH  33  36
HETATM   36  C15 UNL     1       8.929 -20.665 -20.225  1.00  0.00     0.044 C 
BRANCH  36  37
HETATM   37  C16 UNL     1       8.590 -19.636 -21.217  1.00  0.00     0.273 C 
BRANCH  37  38
HETATM   38  N4  UNL     1       7.631 -18.638 -20.851  1.00  0.00     0.088 N 
HETATM   39  C17 UNL     1       8.260 -17.474 -20.242  1.00  0.00     0.272 C 
HETATM   40  C18 UNL     1       7.432 -17.056 -19.063  1.00  0.00     0.032 C 
HETATM   41  C19 UNL     1       6.116 -17.793 -19.355  1.00  0.00     0.032 C 
HETATM   42  C20 UNL     1       6.712 -19.104 -19.822  1.00  0.00     0.272 C 
ENDBRANCH  37  38
ENDBRANCH  36  37
ENDBRANCH  33  36
ENDBRANCH   1  30
TORSDOF 14
ENDMDL
MODEL 4
REMARK VINA RESULT: -8.734527381      2.584      8.166
REMARK  14 active torsions:
REMARK  status: ('A' for Active; 'I' for Inactive)
REMARK    1  A    between atoms: C1_2  and  C2_3 
REMARK       I    between atoms: C1_2  and  N5_31 
REMARK    2  A    between atoms: C2_3  and  C3_4 
REMARK    3  A    between atoms: C3_4  and  C4_5 
REMARK    4  A    between atoms: C3_4  and  N3_18 
REMARK       I    between atoms: C4_5  and  N1_7 
REMARK    5  A    between atoms: N1_7  and  C5_9 
REMARK    6  A    between atoms: C5_9  and  C6_10 
REMARK    7  A    between atoms: C6_10  and  C7_11 
REMARK    8  A    between atoms: C7_11  and  N2_12 
REMARK    9  A    between atoms: C14_21  and  C15_22 
REMARK   10  A    between atoms: C15_22  and  C16_23 
REMARK   11  A    between atoms: C16_23  and  N4_24 
REMARK   12  A    between atoms: N5_31  and  C22_33 
REMARK   13  A    between atoms: C22_33  and  C23_34 
REMARK   14  A    between atoms: C23_34  and  C24_35 
ROOT
HETATM    1  C3  UNL     1      10.803 -20.598 -16.734  1.00  0.00     0.188 C 
ENDROOT
BRANCH   1   2
HETATM    2  C2  UNL     1      11.243 -19.675 -15.650  1.00  0.00     0.138 C 
BRANCH   2   3
HETATM    3  C1  UNL     1      10.236 -18.805 -15.069  1.00  0.00     0.220 C 
HETATM    4  O1  UNL     1      10.551 -17.740 -14.505  1.00  0.00    -0.274 OA
HETATM    5  N5  UNL     1       8.867 -19.152 -15.137  1.00  0.00    -0.361 N 
ATOM      6  H5  UNL     1       8.585 -20.018 -15.595  1.00  0.00     0.162 HD
BRANCH   5   7
HETATM    7  C22 UNL     1       7.866 -18.285 -14.558  1.00  0.00     0.123 C 
BRANCH   7   8
HETATM    8  C23 UNL     1       7.218 -17.403 -15.574  1.00  0.00     0.024 C 
BRANCH   8   9
HETATM    9  C24 UNL     1       6.676 -16.169 -14.936  1.00  0.00    -0.010 C 
HETATM   10  C25 UNL     1       7.803 -15.294 -14.387  1.00  0.00     0.032 C 
HETATM   11  C26 UNL     1       7.200 -14.082 -13.732  1.00  0.00     0.232 C 
HETATM   12  N6  UNL     1       6.354 -13.305 -14.583  1.00  0.00    -0.075 N 
HETATM   13  C27 UNL     1       5.311 -14.128 -15.109  1.00  0.00     0.232 C 
ATOM     14  H62 UNL     1       5.988 -12.479 -14.110  1.00  0.00     0.277 HD
ATOM     15  H61 UNL     1       6.879 -12.834 -15.319  1.00  0.00     0.277 HD
HETATM   16  C28 UNL     1       5.880 -15.332 -15.876  1.00  0.00     0.032 C 
ENDBRANCH   8   9
ENDBRANCH   7   8
ENDBRANCH   5   7
ENDBRANCH   2   3
ENDBRANCH   1   2
BRANCH   1  17
HETATM   17  C4  UNL     1      11.602 -21.834 -16.865  1.00  0.00     0.241 C 
HETATM   18  O2  UNL     1      11.092 -22.979 -16.945  1.00  0.00    -0.271 OA
HETATM   19  N1  UNL     1      13.026 -21.715 -16.905  1.00  0.00    -0.359 N 
ATOM     20  H1  UNL     1      13.466 -20.797 -16.838  1.00  0.00     0.162 HD
BRANCH  19  21
HETATM   21  C5  UNL     1      13.836 -22.899 -17.041  1.00  0.00     0.124 C 
BRANCH  21  22
HETATM   22  C6  UNL     1      14.081 -23.284 -18.462  1.00  0.00     0.039 C 
BRANCH  22  23
HETATM   23  C7  UNL     1      14.050 -24.749 -18.744  1.00  0.00     0.118 C 
BRANCH  23  24
HETATM   24  N2  UNL     1      15.136 -25.208 -19.550  1.00  0.00    -0.408 N 
HETATM   25  C8  UNL     1      16.313 -25.600 -18.844  1.00  0.00     0.143 C 
HETATM   26  C9  UNL     1      17.473 -24.667 -19.043  1.00  0.00     0.187 C 
HETATM   27  O3  UNL     1      17.777 -24.490 -20.370  1.00  0.00    -0.388 OA
HETATM   28  C10 UNL     1      16.773 -24.802 -21.252  1.00  0.00     0.187 C 
HETATM   29  C11 UNL     1      15.385 -24.464 -20.743  1.00  0.00     0.143 C 
ENDBRANCH  23  24
ENDBRANCH  22  23
ENDBRANCH  21  22
ENDBRANCH  19  21
ENDBRANCH   1  17
BRANCH   1  30
HETATM   30  N3  UNL     1      10.566 -19.960 -18.021  1.00  0.00    -0.338 N 
HETATM   31  C12 UNL     1      11.515 -19.318 -18.885  1.00  0.00     0.127 C 
HETATM   32  C13 UNL     1      10.786 -18.961 -20.186  1.00  0.00     0.034 C 
HETATM   33  C14 UNL     1       9.555 -19.777 -20.132  1.00  0.00     0.081 C 
HETATM   34  C21 UNL     1       9.294 -19.866 -18.690  1.00  0.00     0.224 C 
HETATM   35  O4  UNL     1       8.199 -19.864 -18.124  1.00  0.00    -0.273 OA
BRANCH  33  36
HETATM   36  C15 UNL     1       8.414 -19.463 -20.995  1.00  0.00     0.044 C 
BRANCH  36  37
HETATM   37  C16 UNL     1       8.103 -18.069 -21.336  1.00  0.00     0.273 C 
BRANCH  37  38
HETATM   38  N4  UNL     1       6.851 -17.531 -20.896  1.00  0.00     0.088 N 
HETATM   39  C17 UNL     1       6.896 -17.111 -19.502  1.00  0.00     0.272 C 
HETATM   40  C18 UNL     1       5.627 -17.556 -18.837  1.00  0.00     0.032 C 
HETATM   41  C19 UNL     1       4.741 -17.841 -20.059  1.00  0.00     0.032 C 
HETATM   42  C20 UNL     1       5.784 -18.524 -20.918  1.00  0.00     0.272 C 
ENDBRANCH  37  38
ENDBRANCH  36  37
ENDBRANCH  33  36
ENDBRANCH   1  30
TORSDOF 14
ENDMDL
MODEL 5
REMARK VINA RESULT: -8.721271696      2.325     10.622
REMARK  14 active torsions:
REMARK  status: ('A' for Active; 'I' for Inactive)
REMARK    1  A    between atoms: C1_2  and  C2_3 
REMARK       I    between atoms: C1_2  and  N5_31 
REMARK    2  A    between atoms: C2_3  and  C3_4 
REMARK    3  A    between atoms: C3_4  and  C4_5 
REMARK    4  A    between atoms: C3_4  and  N3_18 
REMARK       I    between atoms: C4_5  and  N1_7 
REMARK    5  A    between atoms: N1_7  and  C5_9 
REMARK    6  A    between atoms: C5_9  and  C6_10 
REMARK    7  A    between atoms: C6_10  and  C7_11 
REMARK    8  A    between atoms: C7_11  and  N2_12 
REMARK    9  A    between atoms: C14_21  and  C15_22 
REMARK   10  A    between atoms: C15_22  and  C16_23 
REMARK   11  A    between atoms: C16_23  and  N4_24 
REMARK   12  A    between atoms: N5_31  and  C22_33 
REMARK   13  A    between atoms: C22_33  and  C23_34 
REMARK   14  A    between atoms: C23_34  and  C24_35 
ROOT
HETATM    1  C3  UNL     1      12.146 -19.416 -16.286  1.00  0.00     0.188 C 
ENDROOT
BRANCH   1   2
HETATM    2  C2  UNL     1      10.981 -19.107 -15.410  1.00  0.00     0.138 C 
BRANCH   2   3
HETATM    3  C1  UNL     1      10.635 -17.709 -15.234  1.00  0.00     0.220 C 
HETATM    4  O1  UNL     1      10.389 -16.976 -16.211  1.00  0.00    -0.274 OA
HETATM    5  N5  UNL     1      10.569 -17.147 -13.938  1.00  0.00    -0.361 N 
ATOM      6  H5  UNL     1      10.765 -17.727 -13.123  1.00  0.00     0.162 HD
BRANCH   5   7
HETATM    7  C22 UNL     1      10.225 -15.754 -13.764  1.00  0.00     0.123 C 
BRANCH   7   8
HETATM    8  C23 UNL     1       8.845 -15.569 -13.227  1.00  0.00     0.024 C 
BRANCH   8   9
HETATM    9  C24 UNL     1       7.918 -15.100 -14.296  1.00  0.00    -0.010 C 
HETATM   10  C25 UNL     1       7.114 -16.265 -14.876  1.00  0.00     0.032 C 
HETATM   11  C26 UNL     1       6.220 -15.741 -15.966  1.00  0.00     0.232 C 
HETATM   12  N6  UNL     1       5.334 -14.697 -15.557  1.00  0.00    -0.075 N 
HETATM   13  C27 UNL     1       6.084 -13.616 -14.999  1.00  0.00     0.232 C 
ATOM     14  H62 UNL     1       4.726 -14.389 -16.316  1.00  0.00     0.277 HD
ATOM     15  H61 UNL     1       4.613 -15.033 -14.918  1.00  0.00     0.277 HD
HETATM   16  C28 UNL     1       6.942 -14.083 -13.814  1.00  0.00     0.032 C 
ENDBRANCH   8   9
ENDBRANCH   7   8
ENDBRANCH   5   7
ENDBRANCH   2   3
ENDBRANCH   1   2
BRANCH   1  17
HETATM   17  C4  UNL     1      11.807 -19.735 -17.689  1.00  0.00     0.241 C 
HETATM   18  O2  UNL     1      12.002 -18.942 -18.643  1.00  0.00    -0.271 OA
HETATM   19  N1  UNL     1      11.231 -21.013 -17.969  1.00  0.00    -0.359 N 
ATOM     20  H1  UNL     1      11.058 -21.675 -17.212  1.00  0.00     0.162 HD
BRANCH  19  21
HETATM   21  C5  UNL     1      10.895 -21.362 -19.327  1.00  0.00     0.124 C 
BRANCH  21  22
HETATM   22  C6  UNL     1       9.446 -21.664 -19.515  1.00  0.00     0.039 C 
BRANCH  22  23
HETATM   23  C7  UNL     1       8.505 -20.596 -19.066  1.00  0.00     0.118 C 
BRANCH  23  24
HETATM   24  N2  UNL     1       8.677 -19.349 -19.741  1.00  0.00    -0.408 N 
HETATM   25  C8  UNL     1       8.522 -18.180 -18.937  1.00  0.00     0.143 C 
HETATM   26  C9  UNL     1       7.286 -17.389 -19.259  1.00  0.00     0.187 C 
HETATM   27  O3  UNL     1       7.223 -17.040 -20.586  1.00  0.00    -0.388 OA
HETATM   28  C10 UNL     1       7.996 -17.794 -21.432  1.00  0.00     0.187 C 
HETATM   29  C11 UNL     1       8.088 -19.256 -21.038  1.00  0.00     0.143 C 
ENDBRANCH  23  24
ENDBRANCH  22  23
ENDBRANCH  21  22
ENDBRANCH  19  21
ENDBRANCH   1  17
BRANCH   1  30
HETATM   30  N3  UNL     1      13.099 -20.363 -15.725  1.00  0.00    -0.338 N 
HETATM   31  C12 UNL     1      12.964 -21.171 -14.546  1.00  0.00     0.127 C 
HETATM   32  C13 UNL     1      14.173 -22.111 -14.489  1.00  0.00     0.034 C 
HETATM   33  C14 UNL     1      14.728 -22.048 -15.857  1.00  0.00     0.081 C 
HETATM   34  C21 UNL     1      14.390 -20.682 -16.277  1.00  0.00     0.224 C 
HETATM   35  O4  UNL     1      15.065 -19.923 -16.974  1.00  0.00    -0.273 OA
BRANCH  33  36
HETATM   36  C15 UNL     1      16.092 -22.507 -16.130  1.00  0.00     0.044 C 
BRANCH  36  37
HETATM   37  C16 UNL     1      16.414 -23.158 -17.407  1.00  0.00     0.273 C 
BRANCH  37  38
HETATM   38  N4  UNL     1      15.330 -23.596 -18.232  1.00  0.00     0.088 N 
HETATM   39  C17 UNL     1      15.624 -24.860 -18.894  1.00  0.00     0.272 C 
HETATM   40  C18 UNL     1      15.153 -24.766 -20.316  1.00  0.00     0.032 C 
HETATM   41  C19 UNL     1      14.213 -23.554 -20.232  1.00  0.00     0.032 C 
HETATM   42  C20 UNL     1      15.073 -22.685 -19.339  1.00  0.00     0.272 C 
ENDBRANCH  37  38
ENDBRANCH  36  37
ENDBRANCH  33  36
ENDBRANCH   1  30
TORSDOF 14
ENDMDL
