MODEL 1
REMARK VINA RESULT: -8.510547009      0.000      0.000
REMARK  14 active torsions:
REMARK  status: ('A' for Active; 'I' for Inactive)
REMARK    1  A    between atoms: C2_2  and  C3_3 
REMARK    2  A    between atoms: C3_3  and  N1_4 
REMARK       I    between atoms: N1_4  and  C4_6 
REMARK    3  A    between atoms: C4_6  and  C5_8 
REMARK    4  A    between atoms: C5_8  and  N2_9 
REMARK       I    between atoms: N2_9  and  C6_11 
REMARK    5  A    between atoms: C6_11  and  C7_13 
REMARK    6  A    between atoms: C7_13  and  C8_15 
REMARK    7  A    between atoms: C8_15  and  C9_16 
REMARK    8  A    between atoms: C8_15  and  N3_20 
REMARK    9  A    between atoms: C9_16  and  C10_17 
REMARK   10  A    between atoms: C10_17  and  C11_18 
REMARK       I    between atoms: N3_20  and  C13_22 
REMARK   11  A    between atoms: C13_22  and  C14_24 
REMARK       I    between atoms: N4_28  and  C18_29 
REMARK   12  A    between atoms: C18_29  and  C19_31 
REMARK   13  A    between atoms: C19_31  and  C20_32 
REMARK   14  A    between atoms: C20_32  and  C21_33 
REMARK       I    between atoms: N5_39  and  C27_41 
ROOT
HETATM    1  N3  UNL     1      13.790 -20.532 -16.526  1.00  0.00    -0.347 N 
ATOM      2  H3  UNL     1      13.208 -19.703 -16.406  1.00  0.00     0.163 HD
HETATM    3  C13 UNL     1      13.940 -21.138 -17.805  1.00  0.00     0.241 C 
HETATM    4  O4  UNL     1      14.679 -22.169 -17.861  1.00  0.00    -0.271 OA
ENDROOT
BRANCH   3   5
HETATM    5  C14 UNL     1      13.312 -20.675 -19.060  1.00  0.00     0.179 C 
HETATM    6  C15 UNL     1      13.540 -21.663 -20.186  1.00  0.00     0.037 C 
HETATM    7  C16 UNL     1      12.696 -22.856 -19.755  1.00  0.00     0.022 C 
HETATM    8  C17 UNL     1      11.456 -22.155 -19.230  1.00  0.00     0.127 C 
HETATM    9  N4  UNL     1      11.850 -20.857 -18.816  1.00  0.00    -0.334 N 
HETATM   10  C18 UNL     1      11.086 -19.780 -18.261  1.00  0.00     0.267 C 
HETATM   11  O5  UNL     1      11.684 -18.655 -18.106  1.00  0.00    -0.266 OA
BRANCH  10  12
HETATM   12  C19 UNL     1       9.730 -19.860 -17.866  1.00  0.00     0.080 C 
HETATM   13  N5  UNL     1       8.814 -19.546 -18.731  1.00  0.00    -0.326 N 
HETATM   14  C27 UNL     1       8.912 -19.127 -20.035  1.00  0.00     0.218 C 
ATOM     15  H5  UNL     1       7.858 -19.624 -18.383  1.00  0.00     0.168 HD
HETATM   16  C28 UNL     1       8.928 -17.693 -20.401  1.00  0.00     0.117 C 
HETATM   17  O6  UNL     1       8.993 -19.967 -20.975  1.00  0.00    -0.274 OA
BRANCH  12  18
HETATM   18  C20 UNL     1       9.300 -20.208 -16.496  1.00  0.00     0.067 C 
BRANCH  18  19
HETATM   19  C21 UNL     1       9.339 -18.969 -15.639  1.00  0.00    -0.009 C 
HETATM   20  C22 UNL     1       8.215 -18.770 -14.694  1.00  0.00     0.005 C 
HETATM   21  C23 UNL     1       8.149 -17.249 -14.441  1.00  0.00     0.000 C 
HETATM   22  C24 UNL     1       9.448 -16.812 -13.805  1.00  0.00     0.000 C 
HETATM   23  C25 UNL     1      10.665 -17.261 -14.545  1.00  0.00     0.000 C 
HETATM   24  C26 UNL     1      10.637 -18.741 -14.922  1.00  0.00     0.005 C 
ENDBRANCH  18  19
ENDBRANCH  12  18
ENDBRANCH  10  12
ENDBRANCH   3   5
BRANCH   1  25
HETATM   25  C8  UNL     1      14.482 -21.121 -15.401  1.00  0.00     0.164 C 
BRANCH  25  26
HETATM   26  C7  UNL     1      15.868 -20.615 -15.234  1.00  0.00     0.238 C 
HETATM   27  O3  UNL     1      16.050 -19.428 -14.926  1.00  0.00    -0.285 OA
BRANCH  26  28
HETATM   28  C6  UNL     1      17.005 -21.505 -15.427  1.00  0.00     0.289 C 
HETATM   29  N2  UNL     1      17.096 -22.473 -16.459  1.00  0.00    -0.346 N 
ATOM     30  H2  UNL     1      16.351 -22.590 -17.145  1.00  0.00     0.163 HD
HETATM   31  O2  UNL     1      17.968 -21.377 -14.593  1.00  0.00    -0.264 OA
BRANCH  29  32
HETATM   32  C5  UNL     1      18.292 -23.288 -16.495  1.00  0.00     0.225 C 
BRANCH  32  33
HETATM   33  C4  UNL     1      18.088 -24.459 -17.354  1.00  0.00     0.235 C 
HETATM   34  N1  UNL     1      16.845 -24.578 -18.030  1.00  0.00    -0.356 N 
ATOM     35  H1  UNL     1      16.159 -23.832 -17.915  1.00  0.00     0.162 HD
HETATM   36  O1  UNL     1      19.004 -25.309 -17.460  1.00  0.00    -0.272 OA
BRANCH  34  37
HETATM   37  C3  UNL     1      16.504 -25.689 -18.866  1.00  0.00     0.149 C 
BRANCH  37  38
HETATM   38  C2  UNL     1      15.663 -25.380 -20.033  1.00  0.00    -0.018 C 
HETATM   39  C1  UNL     1      15.987 -24.517 -20.956  1.00  0.00     0.008 C 
ENDBRANCH  37  38
ENDBRANCH  34  37
ENDBRANCH  32  33
ENDBRANCH  29  32
ENDBRANCH  26  28
ENDBRANCH  25  26
BRANCH  25  40
HETATM   40  C9  UNL     1      13.701 -20.924 -14.109  1.00  0.00     0.033 C 
BRANCH  40  41
HETATM   41  C10 UNL     1      14.140 -21.870 -13.023  1.00  0.00     0.002 C 
BRANCH  41  42
HETATM   42  C11 UNL     1      14.484 -23.233 -13.597  1.00  0.00    -0.004 C 
HETATM   43  C12 UNL     1      15.773 -23.684 -12.951  1.00  0.00     0.005 C 
ENDBRANCH  41  42
ENDBRANCH  40  41
ENDBRANCH  25  40
ENDBRANCH   1  25
TORSDOF 14
ENDMDL
MODEL 2
REMARK VINA RESULT: -8.261443151      2.837      5.123
REMARK  14 active torsions:
REMARK  status: ('A' for Active; 'I' for Inactive)
REMARK    1  A    between atoms: C2_2  and  C3_3 
REMARK    2  A    between atoms: C3_3  and  N1_4 
REMARK       I    between atoms: N1_4  and  C4_6 
REMARK    3  A    between atoms: C4_6  and  C5_8 
REMARK    4  A    between atoms: C5_8  and  N2_9 
REMARK       I    between atoms: N2_9  and  C6_11 
REMARK    5  A    between atoms: C6_11  and  C7_13 
REMARK    6  A    between atoms: C7_13  and  C8_15 
REMARK    7  A    between atoms: C8_15  and  C9_16 
REMARK    8  A    between atoms: C8_15  and  N3_20 
REMARK    9  A    between atoms: C9_16  and  C10_17 
REMARK   10  A    between atoms: C10_17  and  C11_18 
REMARK       I    between atoms: N3_20  and  C13_22 
REMARK   11  A    between atoms: C13_22  and  C14_24 
REMARK       I    between atoms: N4_28  and  C18_29 
REMARK   12  A    between atoms: C18_29  and  C19_31 
REMARK   13  A    between atoms: C19_31  and  C20_32 
REMARK   14  A    between atoms: C20_32  and  C21_33 
REMARK       I    between atoms: N5_39  and  C27_41 
ROOT
HETATM    1  N3  UNL     1       9.729 -18.246 -19.001  1.00  0.00    -0.347 N 
ATOM      2  H3  UNL     1       9.472 -17.946 -18.060  1.00  0.00     0.163 HD
HETATM    3  C13 UNL     1       8.925 -17.897 -20.121  1.00  0.00     0.241 C 
HETATM    4  O4  UNL     1       9.317 -18.317 -21.254  1.00  0.00    -0.271 OA
ENDROOT
BRANCH   3   5
HETATM    5  C14 UNL     1       7.683 -17.097 -20.079  1.00  0.00     0.179 C 
HETATM    6  C15 UNL     1       6.706 -17.542 -21.149  1.00  0.00     0.037 C 
HETATM    7  C16 UNL     1       6.287 -18.924 -20.661  1.00  0.00     0.022 C 
HETATM    8  C17 UNL     1       6.144 -18.669 -19.170  1.00  0.00     0.127 C 
HETATM    9  N4  UNL     1       6.991 -17.578 -18.846  1.00  0.00    -0.334 N 
HETATM   10  C18 UNL     1       7.231 -16.920 -17.598  1.00  0.00     0.267 C 
HETATM   11  O5  UNL     1       7.952 -15.859 -17.623  1.00  0.00    -0.266 OA
BRANCH  10  12
HETATM   12  C19 UNL     1       6.741 -17.348 -16.342  1.00  0.00     0.080 C 
HETATM   13  N5  UNL     1       5.607 -16.873 -15.925  1.00  0.00    -0.326 N 
HETATM   14  C27 UNL     1       4.736 -15.982 -16.503  1.00  0.00     0.218 C 
ATOM     15  H5  UNL     1       5.311 -17.221 -15.012  1.00  0.00     0.168 HD
HETATM   16  C28 UNL     1       4.786 -14.532 -16.212  1.00  0.00     0.117 C 
HETATM   17  O6  UNL     1       3.852 -16.382 -17.313  1.00  0.00    -0.274 OA
BRANCH  12  18
HETATM   18  C20 UNL     1       7.489 -18.249 -15.440  1.00  0.00     0.067 C 
BRANCH  18  19
HETATM   19  C21 UNL     1       8.743 -17.552 -14.978  1.00  0.00    -0.009 C 
HETATM   20  C22 UNL     1       8.641 -16.732 -13.748  1.00  0.00     0.005 C 
HETATM   21  C23 UNL     1       9.771 -15.687 -13.851  1.00  0.00     0.000 C 
HETATM   22  C24 UNL     1      11.095 -16.415 -13.883  1.00  0.00     0.000 C 
HETATM   23  C25 UNL     1      11.165 -17.499 -14.908  1.00  0.00     0.000 C 
HETATM   24  C26 UNL     1       9.955 -18.432 -14.890  1.00  0.00     0.005 C 
ENDBRANCH  18  19
ENDBRANCH  12  18
ENDBRANCH  10  12
ENDBRANCH   3   5
BRANCH   1  25
HETATM   25  C8  UNL     1      10.918 -19.037 -19.228  1.00  0.00     0.164 C 
BRANCH  25  26
HETATM   26  C7  UNL     1      12.074 -18.611 -18.399  1.00  0.00     0.238 C 
HETATM   27  O3  UNL     1      12.162 -17.429 -18.038  1.00  0.00    -0.285 OA
BRANCH  26  28
HETATM   28  C6  UNL     1      13.097 -19.574 -18.012  1.00  0.00     0.289 C 
HETATM   29  N2  UNL     1      13.953 -20.240 -18.924  1.00  0.00    -0.346 N 
ATOM     30  H2  UNL     1      13.902 -20.064 -19.927  1.00  0.00     0.163 HD
HETATM   31  O2  UNL     1      13.202 -19.810 -16.758  1.00  0.00    -0.264 OA
BRANCH  29  32
HETATM   32  C5  UNL     1      14.904 -21.182 -18.369  1.00  0.00     0.225 C 
BRANCH  32  33
HETATM   33  C4  UNL     1      14.837 -22.460 -19.084  1.00  0.00     0.235 C 
HETATM   34  N1  UNL     1      15.869 -23.407 -18.847  1.00  0.00    -0.356 N 
ATOM     35  H1  UNL     1      16.595 -23.172 -18.170  1.00  0.00     0.162 HD
HETATM   36  O1  UNL     1      13.886 -22.673 -19.874  1.00  0.00    -0.272 OA
BRANCH  34  37
HETATM   37  C3  UNL     1      15.943 -24.675 -19.508  1.00  0.00     0.149 C 
BRANCH  37  38
HETATM   38  C2  UNL     1      16.745 -24.710 -20.741  1.00  0.00    -0.018 C 
HETATM   39  C1  UNL     1      17.171 -25.808 -21.301  1.00  0.00     0.008 C 
ENDBRANCH  37  38
ENDBRANCH  34  37
ENDBRANCH  32  33
ENDBRANCH  29  32
ENDBRANCH  26  28
ENDBRANCH  25  26
BRANCH  25  40
HETATM   40  C9  UNL     1      10.645 -20.519 -19.010  1.00  0.00     0.033 C 
BRANCH  40  41
HETATM   41  C10 UNL     1       9.617 -20.763 -17.937  1.00  0.00     0.002 C 
BRANCH  41  42
HETATM   42  C11 UNL     1      10.163 -21.689 -16.865  1.00  0.00    -0.004 C 
HETATM   43  C12 UNL     1      11.141 -22.628 -17.533  1.00  0.00     0.005 C 
ENDBRANCH  41  42
ENDBRANCH  40  41
ENDBRANCH  25  40
ENDBRANCH   1  25
TORSDOF 14
ENDMDL
MODEL 3
REMARK VINA RESULT: -8.213881614      0.963      1.190
REMARK  14 active torsions:
REMARK  status: ('A' for Active; 'I' for Inactive)
REMARK    1  A    between atoms: C2_2  and  C3_3 
REMARK    2  A    between atoms: C3_3  and  N1_4 
REMARK       I    between atoms: N1_4  and  C4_6 
REMARK    3  A    between atoms: C4_6  and  C5_8 
REMARK    4  A    between atoms: C5_8  and  N2_9 
REMARK       I    between atoms: N2_9  and  C6_11 
REMARK    5  A    between atoms: C6_11  and  C7_13 
REMARK    6  A    between atoms: C7_13  and  C8_15 
REMARK    7  A    between atoms: C8_15  and  C9_16 
REMARK    8  A    between atoms: C8_15  and  N3_20 
REMARK    9  A    between atoms: C9_16  and  C10_17 
REMARK   10  A    between atoms: C10_17  and  C11_18 
REMARK       I    between atoms: N3_20  and  C13_22 
REMARK   11  A    between atoms: C13_22  and  C14_24 
REMARK       I    between atoms: N4_28  and  C18_29 
REMARK   12  A    between atoms: C18_29  and  C19_31 
REMARK   13  A    between atoms: C19_31  and  C20_32 
REMARK   14  A    between atoms: C20_32  and  C21_33 
REMARK       I    between atoms: N5_39  and  C27_41 
ROOT
HETATM    1  N3  UNL     1      13.957 -20.912 -16.456  1.00  0.00    -0.347 N 
ATOM      2  H3  UNL     1      13.201 -20.259 -16.249  1.00  0.00     0.163 HD
HETATM    3  C13 UNL     1      14.272 -21.260 -17.799  1.00  0.00     0.241 C 
HETATM    4  O4  UNL     1      15.225 -22.083 -17.964  1.00  0.00    -0.271 OA
ENDROOT
BRANCH   3   5
HETATM    5  C14 UNL     1      13.587 -20.753 -19.007  1.00  0.00     0.179 C 
HETATM    6  C15 UNL     1      13.723 -21.722 -20.164  1.00  0.00     0.037 C 
HETATM    7  C16 UNL     1      12.871 -22.901 -19.710  1.00  0.00     0.022 C 
HETATM    8  C17 UNL     1      11.683 -22.177 -19.100  1.00  0.00     0.127 C 
HETATM    9  N4  UNL     1      12.137 -20.900 -18.683  1.00  0.00    -0.334 N 
HETATM   10  C18 UNL     1      11.436 -19.816 -18.063  1.00  0.00     0.267 C 
HETATM   11  O5  UNL     1      12.073 -18.711 -17.920  1.00  0.00    -0.266 OA
BRANCH  10  12
HETATM   12  C19 UNL     1      10.103 -19.867 -17.594  1.00  0.00     0.080 C 
HETATM   13  N5  UNL     1       9.142 -19.611 -18.428  1.00  0.00    -0.326 N 
HETATM   14  C27 UNL     1       9.171 -19.280 -19.761  1.00  0.00     0.218 C 
ATOM     15  H5  UNL     1       8.206 -19.664 -18.026  1.00  0.00     0.168 HD
HETATM   16  C28 UNL     1       9.164 -17.875 -20.223  1.00  0.00     0.117 C 
HETATM   17  O6  UNL     1       9.204 -20.182 -20.645  1.00  0.00    -0.274 OA
BRANCH  12  18
HETATM   18  C20 UNL     1       9.746 -20.122 -16.182  1.00  0.00     0.067 C 
BRANCH  18  19
HETATM   19  C21 UNL     1       9.430 -18.810 -15.511  1.00  0.00    -0.009 C 
HETATM   20  C22 UNL     1       8.211 -18.763 -14.669  1.00  0.00     0.005 C 
HETATM   21  C23 UNL     1       7.781 -17.282 -14.641  1.00  0.00     0.000 C 
HETATM   22  C24 UNL     1       8.888 -16.474 -14.003  1.00  0.00     0.000 C 
HETATM   23  C25 UNL     1      10.235 -16.713 -14.602  1.00  0.00     0.000 C 
HETATM   24  C26 UNL     1      10.575 -18.193 -14.764  1.00  0.00     0.005 C 
ENDBRANCH  18  19
ENDBRANCH  12  18
ENDBRANCH  10  12
ENDBRANCH   3   5
BRANCH   1  25
HETATM   25  C8  UNL     1      14.736 -21.506 -15.392  1.00  0.00     0.164 C 
BRANCH  25  26
HETATM   26  C7  UNL     1      16.041 -20.833 -15.173  1.00  0.00     0.238 C 
HETATM   27  O3  UNL     1      16.064 -19.629 -14.878  1.00  0.00    -0.285 OA
BRANCH  26  28
HETATM   28  C6  UNL     1      17.286 -21.580 -15.300  1.00  0.00     0.289 C 
HETATM   29  N2  UNL     1      17.587 -22.452 -16.377  1.00  0.00    -0.346 N 
ATOM     30  H2  UNL     1      16.932 -22.594 -17.145  1.00  0.00     0.163 HD
HETATM   31  O2  UNL     1      18.140 -21.415 -14.362  1.00  0.00    -0.264 OA
BRANCH  29  32
HETATM   32  C5  UNL     1      18.866 -23.130 -16.338  1.00  0.00     0.225 C 
BRANCH  32  33
HETATM   33  C4  UNL     1      18.697 -24.559 -16.620  1.00  0.00     0.235 C 
HETATM   34  N1  UNL     1      17.924 -24.924 -17.755  1.00  0.00    -0.356 N 
ATOM     35  H1  UNL     1      17.543 -24.180 -18.340  1.00  0.00     0.162 HD
HETATM   36  O1  UNL     1      19.231 -25.402 -15.861  1.00  0.00    -0.272 OA
BRANCH  34  37
HETATM   37  C3  UNL     1      17.650 -26.280 -18.120  1.00  0.00     0.149 C 
BRANCH  37  38
HETATM   38  C2  UNL     1      18.640 -26.920 -19.001  1.00  0.00    -0.018 C 
HETATM   39  C1  UNL     1      19.486 -27.831 -18.605  1.00  0.00     0.008 C 
ENDBRANCH  37  38
ENDBRANCH  34  37
ENDBRANCH  32  33
ENDBRANCH  29  32
ENDBRANCH  26  28
ENDBRANCH  25  26
BRANCH  25  40
HETATM   40  C9  UNL     1      13.950 -21.544 -14.089  1.00  0.00     0.033 C 
BRANCH  40  41
HETATM   41  C10 UNL     1      14.664 -22.312 -13.009  1.00  0.00     0.002 C 
BRANCH  41  42
HETATM   42  C11 UNL     1      15.009 -23.714 -13.479  1.00  0.00    -0.004 C 
HETATM   43  C12 UNL     1      16.327 -24.093 -12.846  1.00  0.00     0.005 C 
ENDBRANCH  41  42
ENDBRANCH  40  41
ENDBRANCH  25  40
ENDBRANCH   1  25
TORSDOF 14
ENDMDL
MODEL 4
REMARK VINA RESULT: -8.210908914      2.682      8.741
REMARK  14 active torsions:
REMARK  status: ('A' for Active; 'I' for Inactive)
REMARK    1  A    between atoms: C2_2  and  C3_3 
REMARK    2  A    between atoms: C3_3  and  N1_4 
REMARK       I    between atoms: N1_4  and  C4_6 
REMARK    3  A    between atoms: C4_6  and  C5_8 
REMARK    4  A    between atoms: C5_8  and  N2_9 
REMARK       I    between atoms: N2_9  and  C6_11 
REMARK    5  A    between atoms: C6_11  and  C7_13 
REMARK    6  A    between atoms: C7_13  and  C8_15 
REMARK    7  A    between atoms: C8_15  and  C9_16 
REMARK    8  A    between atoms: C8_15  and  N3_20 
REMARK    9  A    between atoms: C9_16  and  C10_17 
REMARK   10  A    between atoms: C10_17  and  C11_18 
REMARK       I    between atoms: N3_20  and  C13_22 
REMARK   11  A    between atoms: C13_22  and  C14_24 
REMARK       I    between atoms: N4_28  and  C18_29 
REMARK   12  A    between atoms: C18_29  and  C19_31 
REMARK   13  A    between atoms: C19_31  and  C20_32 
REMARK   14  A    between atoms: C20_32  and  C21_33 
REMARK       I    between atoms: N5_39  and  C27_41 
ROOT
HETATM    1  N3  UNL     1       9.642 -19.489 -16.120  1.00  0.00    -0.347 N 
ATOM      2  H3  UNL     1      10.127 -20.212 -15.588  1.00  0.00     0.163 HD
HETATM    3  C13 UNL     1       9.393 -19.653 -17.511  1.00  0.00     0.241 C 
HETATM    4  O4  UNL     1       8.788 -18.701 -18.096  1.00  0.00    -0.271 OA
ENDROOT
BRANCH   3   5
HETATM    5  C14 UNL     1       9.778 -20.824 -18.327  1.00  0.00     0.179 C 
HETATM    6  C15 UNL     1       9.543 -20.569 -19.802  1.00  0.00     0.037 C 
HETATM    7  C16 UNL     1      10.596 -19.515 -20.126  1.00  0.00     0.022 C 
HETATM    8  C17 UNL     1      11.784 -20.048 -19.345  1.00  0.00     0.127 C 
HETATM    9  N4  UNL     1      11.270 -20.822 -18.273  1.00  0.00    -0.334 N 
HETATM   10  C18 UNL     1      11.942 -21.557 -17.245  1.00  0.00     0.267 C 
HETATM   11  O5  UNL     1      11.219 -22.288 -16.477  1.00  0.00    -0.266 OA
BRANCH  10  12
HETATM   12  C19 UNL     1      13.336 -21.538 -17.006  1.00  0.00     0.080 C 
HETATM   13  N5  UNL     1      14.100 -22.290 -17.738  1.00  0.00    -0.326 N 
HETATM   14  C27 UNL     1      13.799 -23.153 -18.763  1.00  0.00     0.218 C 
ATOM     15  H5  UNL     1      15.094 -22.230 -17.514  1.00  0.00     0.168 HD
HETATM   16  C28 UNL     1      13.579 -24.598 -18.536  1.00  0.00     0.117 C 
HETATM   17  O6  UNL     1      13.700 -22.730 -19.950  1.00  0.00    -0.274 OA
BRANCH  12  18
HETATM   18  C20 UNL     1      13.965 -20.766 -15.914  1.00  0.00     0.067 C 
BRANCH  18  19
HETATM   19  C21 UNL     1      14.868 -21.677 -15.124  1.00  0.00    -0.009 C 
HETATM   20  C22 UNL     1      16.259 -21.218 -14.903  1.00  0.00     0.005 C 
HETATM   21  C23 UNL     1      17.089 -22.498 -14.673  1.00  0.00     0.000 C 
HETATM   22  C24 UNL     1      16.566 -23.192 -13.436  1.00  0.00     0.000 C 
HETATM   23  C25 UNL     1      15.088 -23.408 -13.442  1.00  0.00     0.000 C 
HETATM   24  C26 UNL     1      14.292 -22.162 -13.826  1.00  0.00     0.005 C 
ENDBRANCH  18  19
ENDBRANCH  12  18
ENDBRANCH  10  12
ENDBRANCH   3   5
BRANCH   1  25
HETATM   25  C8  UNL     1       9.192 -18.273 -15.480  1.00  0.00     0.164 C 
BRANCH  25  26
HETATM   26  C7  UNL     1       7.776 -18.331 -15.038  1.00  0.00     0.238 C 
HETATM   27  O3  UNL     1       7.464 -19.061 -14.086  1.00  0.00    -0.285 OA
BRANCH  26  28
HETATM   28  C6  UNL     1       6.760 -17.536 -15.716  1.00  0.00     0.289 C 
HETATM   29  N2  UNL     1       7.002 -16.742 -16.864  1.00  0.00    -0.346 N 
ATOM     30  H2  UNL     1       7.926 -16.696 -17.294  1.00  0.00     0.163 HD
HETATM   31  O2  UNL     1       5.583 -17.581 -15.214  1.00  0.00    -0.264 OA
BRANCH  29  32
HETATM   32  C5  UNL     1       5.880 -16.000 -17.402  1.00  0.00     0.225 C 
BRANCH  32  33
HETATM   33  C4  UNL     1       5.338 -16.675 -18.585  1.00  0.00     0.235 C 
HETATM   34  N1  UNL     1       6.091 -17.741 -19.144  1.00  0.00    -0.356 N 
ATOM     35  H1  UNL     1       6.961 -18.011 -18.685  1.00  0.00     0.162 HD
HETATM   36  O1  UNL     1       4.242 -16.294 -19.060  1.00  0.00    -0.272 OA
BRANCH  34  37
HETATM   37  C3  UNL     1       5.695 -18.457 -20.318  1.00  0.00     0.149 C 
BRANCH  37  38
HETATM   38  C2  UNL     1       6.634 -18.406 -21.450  1.00  0.00    -0.018 C 
HETATM   39  C1  UNL     1       7.734 -17.705 -21.451  1.00  0.00     0.008 C 
ENDBRANCH  37  38
ENDBRANCH  34  37
ENDBRANCH  32  33
ENDBRANCH  29  32
ENDBRANCH  26  28
ENDBRANCH  25  26
BRANCH  25  40
HETATM   40  C9  UNL     1      10.085 -17.907 -14.303  1.00  0.00     0.033 C 
BRANCH  40  41
HETATM   41  C10 UNL     1      10.373 -16.431 -14.237  1.00  0.00     0.002 C 
BRANCH  41  42
HETATM   42  C11 UNL     1       9.298 -15.704 -13.447  1.00  0.00    -0.004 C 
HETATM   43  C12 UNL     1       8.653 -14.703 -14.377  1.00  0.00     0.005 C 
ENDBRANCH  41  42
ENDBRANCH  40  41
ENDBRANCH  25  40
ENDBRANCH   1  25
TORSDOF 14
ENDMDL
MODEL 5
REMARK VINA RESULT: -8.155946834      4.001      8.149
REMARK  14 active torsions:
REMARK  status: ('A' for Active; 'I' for Inactive)
REMARK    1  A    between atoms: C2_2  and  C3_3 
REMARK    2  A    between atoms: C3_3  and  N1_4 
REMARK       I    between atoms: N1_4  and  C4_6 
REMARK    3  A    between atoms: C4_6  and  C5_8 
REMARK    4  A    between atoms: C5_8  and  N2_9 
REMARK       I    between atoms: N2_9  and  C6_11 
REMARK    5  A    between atoms: C6_11  and  C7_13 
REMARK    6  A    between atoms: C7_13  and  C8_15 
REMARK    7  A    between atoms: C8_15  and  C9_16 
REMARK    8  A    between atoms: C8_15  and  N3_20 
REMARK    9  A    between atoms: C9_16  and  C10_17 
REMARK   10  A    between atoms: C10_17  and  C11_18 
REMARK       I    between atoms: N3_20  and  C13_22 
REMARK   11  A    between atoms: C13_22  and  C14_24 
REMARK       I    between atoms: N4_28  and  C18_29 
REMARK   12  A    between atoms: C18_29  and  C19_31 
REMARK   13  A    between atoms: C19_31  and  C20_32 
REMARK   14  A    between atoms: C20_32  and  C21_33 
REMARK       I    between atoms: N5_39  and  C27_41 
ROOT
HETATM    1  N3  UNL     1      10.989 -20.566 -16.907  1.00  0.00    -0.347 N 
ATOM      2  H3  UNL     1      11.980 -20.323 -16.888  1.00  0.00     0.163 HD
HETATM    3  C13 UNL     1      10.035 -19.787 -16.195  1.00  0.00     0.241 C 
HETATM    4  O4  UNL     1       8.824 -20.164 -16.271  1.00  0.00    -0.271 OA
ENDROOT
BRANCH   3   5
HETATM    5  C14 UNL     1      10.331 -18.590 -15.380  1.00  0.00     0.179 C 
HETATM    6  C15 UNL     1      11.612 -17.919 -15.831  1.00  0.00     0.037 C 
HETATM    7  C16 UNL     1      11.231 -17.365 -17.199  1.00  0.00     0.022 C 
HETATM    8  C17 UNL     1       9.833 -16.842 -16.916  1.00  0.00     0.127 C 
HETATM    9  N4  UNL     1       9.315 -17.592 -15.830  1.00  0.00    -0.334 N 
HETATM   10  C18 UNL     1       8.056 -17.508 -15.152  1.00  0.00     0.267 C 
HETATM   11  O5  UNL     1       7.907 -18.228 -14.101  1.00  0.00    -0.266 OA
BRANCH  10  12
HETATM   12  C19 UNL     1       6.966 -16.701 -15.552  1.00  0.00     0.080 C 
HETATM   13  N5  UNL     1       6.967 -15.447 -15.213  1.00  0.00    -0.326 N 
HETATM   14  C27 UNL     1       7.878 -14.708 -14.498  1.00  0.00     0.218 C 
ATOM     15  H5  UNL     1       6.152 -14.922 -15.531  1.00  0.00     0.168 HD
HETATM   16  C28 UNL     1       7.752 -14.503 -13.038  1.00  0.00     0.117 C 
HETATM   17  O6  UNL     1       8.866 -14.173 -15.077  1.00  0.00    -0.274 OA
BRANCH  12  18
HETATM   18  C20 UNL     1       5.785 -17.223 -16.270  1.00  0.00     0.067 C 
BRANCH  18  19
HETATM   19  C21 UNL     1       4.630 -16.275 -16.072  1.00  0.00    -0.009 C 
HETATM   20  C22 UNL     1       4.278 -15.399 -17.214  1.00  0.00     0.005 C 
HETATM   21  C23 UNL     1       3.573 -14.174 -16.595  1.00  0.00     0.000 C 
HETATM   22  C24 UNL     1       2.319 -14.646 -15.895  1.00  0.00     0.000 C 
HETATM   23  C25 UNL     1       2.547 -15.772 -14.941  1.00  0.00     0.000 C 
HETATM   24  C26 UNL     1       3.384 -16.908 -15.528  1.00  0.00     0.005 C 
ENDBRANCH  18  19
ENDBRANCH  12  18
ENDBRANCH  10  12
ENDBRANCH   3   5
BRANCH   1  25
HETATM   25  C8  UNL     1      10.520 -21.709 -17.658  1.00  0.00     0.164 C 
BRANCH  25  26
HETATM   26  C7  UNL     1      10.228 -21.399 -19.080  1.00  0.00     0.238 C 
HETATM   27  O3  UNL     1      10.139 -22.324 -19.900  1.00  0.00    -0.285 OA
BRANCH  26  28
HETATM   28  C6  UNL     1      10.045 -20.018 -19.510  1.00  0.00     0.289 C 
HETATM   29  N2  UNL     1       8.796 -19.348 -19.535  1.00  0.00    -0.346 N 
ATOM     30  H2  UNL     1       7.939 -19.810 -19.231  1.00  0.00     0.163 HD
HETATM   31  O2  UNL     1      11.102 -19.400 -19.884  1.00  0.00    -0.264 OA
BRANCH  29  32
HETATM   32  C5  UNL     1       8.791 -17.980 -20.008  1.00  0.00     0.225 C 
BRANCH  32  33
HETATM   33  C4  UNL     1       7.470 -17.374 -19.812  1.00  0.00     0.235 C 
HETATM   34  N1  UNL     1       6.328 -18.155 -20.132  1.00  0.00    -0.356 N 
ATOM     35  H1  UNL     1       6.472 -19.111 -20.457  1.00  0.00     0.162 HD
HETATM   36  O1  UNL     1       7.392 -16.201 -19.376  1.00  0.00    -0.272 OA
BRANCH  34  37
HETATM   37  C3  UNL     1       4.985 -17.671 -20.023  1.00  0.00     0.149 C 
BRANCH  37  38
HETATM   38  C2  UNL     1       3.952 -18.692 -19.786  1.00  0.00    -0.018 C 
HETATM   39  C1  UNL     1       3.309 -18.829 -18.660  1.00  0.00     0.008 C 
ENDBRANCH  37  38
ENDBRANCH  34  37
ENDBRANCH  32  33
ENDBRANCH  29  32
ENDBRANCH  26  28
ENDBRANCH  25  26
BRANCH  25  40
HETATM   40  C9  UNL     1      11.506 -22.866 -17.575  1.00  0.00     0.033 C 
BRANCH  40  41
HETATM   41  C10 UNL     1      12.933 -22.420 -17.755  1.00  0.00     0.002 C 
BRANCH  41  42
HETATM   42  C11 UNL     1      13.583 -23.142 -18.922  1.00  0.00    -0.004 C 
HETATM   43  C12 UNL     1      13.748 -22.139 -20.040  1.00  0.00     0.005 C 
ENDBRANCH  41  42
ENDBRANCH  40  41
ENDBRANCH  25  40
ENDBRANCH   1  25
TORSDOF 14
ENDMDL
