MODEL 1
REMARK VINA RESULT: -8.143381158      0.000      0.000
REMARK  16 active torsions:
REMARK  status: ('A' for Active; 'I' for Inactive)
REMARK       I    between atoms: N1_2  and  C2_4 
REMARK    1  A    between atoms: C2_4  and  C3_6 
REMARK    2  A    between atoms: C3_6  and  N2_7 
REMARK    3  A    between atoms: N2_7  and  C4_9 
REMARK    4  A    between atoms: C7_14  and  C8_15 
REMARK    5  A    between atoms: C8_15  and  C9_16 
REMARK    6  A    between atoms: C9_16  and  C10_17 
REMARK    7  A    between atoms: C10_17  and  C11_18 
REMARK    8  A    between atoms: C11_18  and  N4_19 
REMARK    9  A    between atoms: N5_22  and  C14_23 
REMARK   10  A    between atoms: C14_23  and  C15_24 
REMARK   11  A    between atoms: C19_28  and  C20_29 
REMARK   12  A    between atoms: C24_34  and  N6_35 
REMARK   13  A    between atoms: N6_35  and  C25_37 
REMARK   14  A    between atoms: C25_37  and  C26_38 
REMARK   15  A    between atoms: C26_38  and  C27_39 
REMARK   16  A    between atoms: C27_39  and  O3_40 
ROOT
HETATM    1  C4  UNL     1      17.003 -23.356 -17.169  1.00  0.00     0.680 A 
HETATM    2  N3  UNL     1      16.477 -24.296 -17.943  1.00  0.00    -0.195 N 
ATOM      3  H3  UNL     1      16.952 -25.194 -18.035  1.00  0.00     0.184 HD
HETATM    4  C5  UNL     1      15.306 -24.080 -18.622  1.00  0.00     0.032 A 
HETATM    5  C6  UNL     1      14.784 -25.167 -19.465  1.00  0.00     0.069 C 
HETATM    6  C7  UNL     1      14.642 -22.883 -18.520  1.00  0.00     0.009 A 
HETATM    7  C24 UNL     1      15.210 -21.924 -17.709  1.00  0.00     0.125 A 
HETATM    8  N7  UNL     1      16.371 -22.162 -17.047  1.00  0.00    -0.176 N 
ATOM      9  H7  UNL     1      16.772 -21.436 -16.452  1.00  0.00     0.186 HD
ENDROOT
BRANCH   6  10
HETATM   10  C8  UNL     1      13.392 -22.646 -19.246  1.00  0.00     0.044 C 
BRANCH  10  11
HETATM   11  C9  UNL     1      12.157 -22.828 -18.428  1.00  0.00     0.006 C 
BRANCH  11  12
HETATM   12  C10 UNL     1      10.981 -22.026 -18.933  1.00  0.00     0.020 C 
BRANCH  12  13
HETATM   13  C11 UNL     1      11.262 -20.568 -19.038  1.00  0.00     0.126 C 
BRANCH  13  14
HETATM   14  N4  UNL     1      10.473 -19.771 -18.108  1.00  0.00    -0.349 N 
HETATM   15  C12 UNL     1       9.441 -20.329 -17.275  1.00  0.00     0.156 C 
HETATM   16  C13 UNL     1       9.284 -19.547 -16.004  1.00  0.00     0.293 C 
HETATM   17  N5  UNL     1       9.151 -18.151 -16.082  1.00  0.00     0.104 N 
HETATM   18  C19 UNL     1       9.702 -17.508 -17.249  1.00  0.00     0.318 C 
HETATM   19  C23 UNL     1      10.680 -18.362 -17.985  1.00  0.00     0.254 C 
HETATM   20  O2  UNL     1      11.717 -17.886 -18.520  1.00  0.00    -0.271 OA
BRANCH  17  21
HETATM   21  C14 UNL     1       9.640 -17.533 -14.881  1.00  0.00     0.278 C 
BRANCH  21  22
HETATM   22  C15 UNL     1       8.774 -16.789 -13.988  1.00  0.00     0.014 C 
HETATM   23  C16 UNL     1       9.216 -15.435 -13.495  1.00  0.00     0.006 C 
HETATM   24  C17 UNL     1       7.935 -14.839 -14.086  1.00  0.00     0.001 C 
HETATM   25  C18 UNL     1       7.446 -16.259 -14.322  1.00  0.00     0.006 C 
ENDBRANCH  21  22
ENDBRANCH  17  21
BRANCH  18  26
HETATM   26  C20 UNL     1       8.706 -16.831 -18.146  1.00  0.00     0.028 A 
HETATM   27  C21 UNL     1       7.248 -16.814 -17.888  1.00  0.00     0.008 A 
HETATM   28  C22 UNL     1       8.030 -15.556 -17.779  1.00  0.00     0.008 A 
ENDBRANCH  18  26
ENDBRANCH  13  14
ENDBRANCH  12  13
ENDBRANCH  11  12
ENDBRANCH  10  11
ENDBRANCH   6  10
BRANCH   7  29
HETATM   29  N6  UNL     1      14.627 -20.783 -17.582  1.00  0.00    -0.375 N 
ATOM     30  H6  UNL     1      14.260 -20.331 -18.420  1.00  0.00     0.161 HD
BRANCH  29  31
HETATM   31  C25 UNL     1      14.465 -20.109 -16.313  1.00  0.00     0.123 C 
BRANCH  31  32
HETATM   32  C26 UNL     1      13.096 -20.353 -15.709  1.00  0.00     0.046 C 
BRANCH  32  33
HETATM   33  C27 UNL     1      13.231 -21.248 -14.489  1.00  0.00     0.168 C 
BRANCH  33  34
HETATM   34  O3  UNL     1      13.826 -22.449 -14.860  1.00  0.00    -0.396 OA
HETATM   35  C28 UNL     1      14.618 -22.873 -13.792  1.00  0.00     0.201 C 
ENDBRANCH  33  34
ENDBRANCH  32  33
ENDBRANCH  31  32
ENDBRANCH  29  31
ENDBRANCH   7  29
BRANCH   1  36
HETATM   36  N2  UNL     1      18.102 -23.535 -16.520  1.00  0.00    -0.217 N 
ATOM     37  H2  UNL     1      18.817 -24.109 -16.966  1.00  0.00     0.178 HD
BRANCH  36  38
HETATM   38  C3  UNL     1      18.410 -22.996 -15.224  1.00  0.00     0.240 C 
BRANCH  38  39
HETATM   39  C2  UNL     1      18.608 -24.080 -14.230  1.00  0.00     0.235 C 
HETATM   40  N1  UNL     1      17.714 -25.169 -14.179  1.00  0.00    -0.364 N 
HETATM   41  C1  UNL     1      17.861 -26.248 -13.232  1.00  0.00     0.149 C 
ATOM     42  H1  UNL     1      16.935 -25.196 -14.837  1.00  0.00     0.161 HD
HETATM   43  O1  UNL     1      19.600 -24.002 -13.428  1.00  0.00    -0.272 OA
ENDBRANCH  38  39
ENDBRANCH  36  38
ENDBRANCH   1  36
TORSDOF 16
ENDMDL
MODEL 2
REMARK VINA RESULT: -8.006090546      2.193      3.865
REMARK  16 active torsions:
REMARK  status: ('A' for Active; 'I' for Inactive)
REMARK       I    between atoms: N1_2  and  C2_4 
REMARK    1  A    between atoms: C2_4  and  C3_6 
REMARK    2  A    between atoms: C3_6  and  N2_7 
REMARK    3  A    between atoms: N2_7  and  C4_9 
REMARK    4  A    between atoms: C7_14  and  C8_15 
REMARK    5  A    between atoms: C8_15  and  C9_16 
REMARK    6  A    between atoms: C9_16  and  C10_17 
REMARK    7  A    between atoms: C10_17  and  C11_18 
REMARK    8  A    between atoms: C11_18  and  N4_19 
REMARK    9  A    between atoms: N5_22  and  C14_23 
REMARK   10  A    between atoms: C14_23  and  C15_24 
REMARK   11  A    between atoms: C19_28  and  C20_29 
REMARK   12  A    between atoms: C24_34  and  N6_35 
REMARK   13  A    between atoms: N6_35  and  C25_37 
REMARK   14  A    between atoms: C25_37  and  C26_38 
REMARK   15  A    between atoms: C26_38  and  C27_39 
REMARK   16  A    between atoms: C27_39  and  O3_40 
ROOT
HETATM    1  C4  UNL     1      15.629 -21.775 -15.828  1.00  0.00     0.680 A 
HETATM    2  N3  UNL     1      14.609 -21.030 -15.424  1.00  0.00    -0.195 N 
ATOM      3  H3  UNL     1      14.773 -20.271 -14.762  1.00  0.00     0.184 HD
HETATM    4  C5  UNL     1      13.338 -21.263 -15.881  1.00  0.00     0.032 A 
HETATM    5  C6  UNL     1      12.255 -20.397 -15.386  1.00  0.00     0.069 C 
HETATM    6  C7  UNL     1      13.083 -22.276 -16.772  1.00  0.00     0.009 A 
HETATM    7  C24 UNL     1      14.161 -23.034 -17.175  1.00  0.00     0.125 A 
HETATM    8  N7  UNL     1      15.410 -22.784 -16.708  1.00  0.00    -0.176 N 
ATOM      9  H7  UNL     1      16.192 -23.360 -17.021  1.00  0.00     0.186 HD
ENDROOT
BRANCH   6  10
HETATM   10  C8  UNL     1      11.726 -22.531 -17.260  1.00  0.00     0.044 C 
BRANCH  10  11
HETATM   11  C9  UNL     1      11.546 -22.321 -18.727  1.00  0.00     0.006 C 
BRANCH  11  12
HETATM   12  C10 UNL     1      11.743 -20.887 -19.156  1.00  0.00     0.020 C 
BRANCH  12  13
HETATM   13  C11 UNL     1      10.473 -20.195 -19.504  1.00  0.00     0.126 C 
BRANCH  13  14
HETATM   14  N4  UNL     1      10.094 -19.181 -18.528  1.00  0.00    -0.349 N 
HETATM   15  C12 UNL     1      10.974 -18.119 -18.117  1.00  0.00     0.156 C 
HETATM   16  C13 UNL     1      10.203 -16.900 -17.707  1.00  0.00     0.293 C 
HETATM   17  N5  UNL     1       9.147 -17.046 -16.791  1.00  0.00     0.104 N 
HETATM   18  C19 UNL     1       8.519 -18.341 -16.721  1.00  0.00     0.318 C 
HETATM   19  C23 UNL     1       8.807 -19.200 -17.907  1.00  0.00     0.254 C 
HETATM   20  O2  UNL     1       7.940 -19.966 -18.407  1.00  0.00    -0.271 OA
BRANCH  17  21
HETATM   21  C14 UNL     1       8.167 -16.013 -16.989  1.00  0.00     0.278 C 
BRANCH  21  22
HETATM   22  C15 UNL     1       7.863 -15.032 -15.967  1.00  0.00     0.014 C 
HETATM   23  C16 UNL     1       6.666 -15.245 -15.076  1.00  0.00     0.006 C 
HETATM   24  C17 UNL     1       7.599 -15.174 -13.864  1.00  0.00     0.001 C 
HETATM   25  C18 UNL     1       8.700 -14.712 -14.805  1.00  0.00     0.006 C 
ENDBRANCH  21  22
ENDBRANCH  17  21
BRANCH  18  26
HETATM   26  C20 UNL     1       8.666 -19.062 -15.412  1.00  0.00     0.028 A 
HETATM   27  C21 UNL     1       9.190 -18.428 -14.181  1.00  0.00     0.008 A 
HETATM   28  C22 UNL     1       7.760 -18.819 -14.255  1.00  0.00     0.008 A 
ENDBRANCH  18  26
ENDBRANCH  13  14
ENDBRANCH  12  13
ENDBRANCH  11  12
ENDBRANCH  10  11
ENDBRANCH   6  10
BRANCH   7  29
HETATM   29  N6  UNL     1      13.973 -23.999 -18.008  1.00  0.00    -0.375 N 
ATOM     30  H6  UNL     1      13.036 -24.396 -18.086  1.00  0.00     0.161 HD
BRANCH  29  31
HETATM   31  C25 UNL     1      15.023 -24.547 -18.838  1.00  0.00     0.123 C 
BRANCH  31  32
HETATM   32  C26 UNL     1      15.224 -23.744 -20.108  1.00  0.00     0.046 C 
BRANCH  32  33
HETATM   33  C27 UNL     1      16.144 -24.503 -21.048  1.00  0.00     0.168 C 
BRANCH  33  34
HETATM   34  O3  UNL     1      17.466 -24.290 -20.672  1.00  0.00    -0.396 OA
HETATM   35  C28 UNL     1      18.044 -25.540 -20.445  1.00  0.00     0.201 C 
ENDBRANCH  33  34
ENDBRANCH  32  33
ENDBRANCH  31  32
ENDBRANCH  29  31
ENDBRANCH   7  29
BRANCH   1  36
HETATM   36  N2  UNL     1      16.833 -21.576 -15.413  1.00  0.00    -0.217 N 
ATOM     37  H2  UNL     1      17.023 -20.689 -14.946  1.00  0.00     0.178 HD
BRANCH  36  38
HETATM   38  C3  UNL     1      17.931 -22.492 -15.551  1.00  0.00     0.240 C 
BRANCH  38  39
HETATM   39  C2  UNL     1      19.191 -21.893 -15.044  1.00  0.00     0.235 C 
HETATM   40  N1  UNL     1      19.343 -21.617 -13.670  1.00  0.00    -0.364 N 
HETATM   41  C1  UNL     1      20.546 -21.035 -13.126  1.00  0.00     0.149 C 
ATOM     42  H1  UNL     1      18.575 -21.838 -13.037  1.00  0.00     0.161 HD
HETATM   43  O1  UNL     1      20.125 -21.635 -15.876  1.00  0.00    -0.272 OA
ENDBRANCH  38  39
ENDBRANCH  36  38
ENDBRANCH   1  36
TORSDOF 16
ENDMDL
MODEL 3
REMARK VINA RESULT: -7.997396382      1.677      3.065
REMARK  16 active torsions:
REMARK  status: ('A' for Active; 'I' for Inactive)
REMARK       I    between atoms: N1_2  and  C2_4 
REMARK    1  A    between atoms: C2_4  and  C3_6 
REMARK    2  A    between atoms: C3_6  and  N2_7 
REMARK    3  A    between atoms: N2_7  and  C4_9 
REMARK    4  A    between atoms: C7_14  and  C8_15 
REMARK    5  A    between atoms: C8_15  and  C9_16 
REMARK    6  A    between atoms: C9_16  and  C10_17 
REMARK    7  A    between atoms: C10_17  and  C11_18 
REMARK    8  A    between atoms: C11_18  and  N4_19 
REMARK    9  A    between atoms: N5_22  and  C14_23 
REMARK   10  A    between atoms: C14_23  and  C15_24 
REMARK   11  A    between atoms: C19_28  and  C20_29 
REMARK   12  A    between atoms: C24_34  and  N6_35 
REMARK   13  A    between atoms: N6_35  and  C25_37 
REMARK   14  A    between atoms: C25_37  and  C26_38 
REMARK   15  A    between atoms: C26_38  and  C27_39 
REMARK   16  A    between atoms: C27_39  and  O3_40 
ROOT
HETATM    1  C4  UNL     1      16.004 -22.487 -16.373  1.00  0.00     0.680 A 
HETATM    2  N3  UNL     1      15.020 -21.831 -15.772  1.00  0.00    -0.195 N 
ATOM      3  H3  UNL     1      15.225 -21.265 -14.949  1.00  0.00     0.184 HD
HETATM    4  C5  UNL     1      13.734 -21.903 -16.239  1.00  0.00     0.032 A 
HETATM    5  C6  UNL     1      12.694 -21.151 -15.519  1.00  0.00     0.069 C 
HETATM    6  C7  UNL     1      13.425 -22.656 -17.345  1.00  0.00     0.009 A 
HETATM    7  C24 UNL     1      14.466 -23.326 -17.949  1.00  0.00     0.125 A 
HETATM    8  N7  UNL     1      15.732 -23.240 -17.468  1.00  0.00    -0.176 N 
ATOM      9  H7  UNL     1      16.486 -23.746 -17.933  1.00  0.00     0.186 HD
ENDROOT
BRANCH   6  10
HETATM   10  C8  UNL     1      12.051 -22.738 -17.845  1.00  0.00     0.044 C 
BRANCH  10  11
HETATM   11  C9  UNL     1      11.770 -21.871 -19.027  1.00  0.00     0.006 C 
BRANCH  11  12
HETATM   12  C10 UNL     1      10.391 -22.078 -19.607  1.00  0.00     0.020 C 
BRANCH  12  13
HETATM   13  C11 UNL     1       9.663 -20.807 -19.867  1.00  0.00     0.126 C 
BRANCH  13  14
HETATM   14  N4  UNL     1       9.497 -19.994 -18.668  1.00  0.00    -0.349 N 
HETATM   15  C12 UNL     1       8.860 -20.478 -17.473  1.00  0.00     0.156 C 
HETATM   16  C13 UNL     1       9.401 -19.796 -16.251  1.00  0.00     0.293 C 
HETATM   17  N5  UNL     1       9.471 -18.393 -16.237  1.00  0.00     0.104 N 
HETATM   18  C19 UNL     1       9.551 -17.731 -17.515  1.00  0.00     0.318 C 
HETATM   19  C23 UNL     1       9.959 -18.642 -18.625  1.00  0.00     0.254 C 
HETATM   20  O2  UNL     1      10.719 -18.266 -19.557  1.00  0.00    -0.271 OA
BRANCH  17  21
HETATM   21  C14 UNL     1      10.528 -17.953 -15.368  1.00  0.00     0.278 C 
BRANCH  21  22
HETATM   22  C15 UNL     1      10.263 -17.322 -14.090  1.00  0.00     0.014 C 
HETATM   23  C16 UNL     1      10.644 -15.877 -13.892  1.00  0.00     0.006 C 
HETATM   24  C17 UNL     1       9.185 -15.576 -13.541  1.00  0.00     0.001 C 
HETATM   25  C18 UNL     1       8.937 -17.075 -13.511  1.00  0.00     0.006 C 
ENDBRANCH  21  22
ENDBRANCH  17  21
BRANCH  18  26
HETATM   26  C20 UNL     1       8.385 -16.851 -17.863  1.00  0.00     0.028 A 
HETATM   27  C21 UNL     1       7.191 -16.693 -17.002  1.00  0.00     0.008 A 
HETATM   28  C22 UNL     1       8.126 -15.554 -17.180  1.00  0.00     0.008 A 
ENDBRANCH  18  26
ENDBRANCH  13  14
ENDBRANCH  12  13
ENDBRANCH  11  12
ENDBRANCH  10  11
ENDBRANCH   6  10
BRANCH   7  29
HETATM   29  N6  UNL     1      14.227 -24.049 -18.989  1.00  0.00    -0.375 N 
ATOM     30  H6  UNL     1      13.570 -24.824 -18.899  1.00  0.00     0.161 HD
BRANCH  29  31
HETATM   31  C25 UNL     1      14.845 -23.818 -20.276  1.00  0.00     0.123 C 
BRANCH  31  32
HETATM   32  C26 UNL     1      15.608 -25.032 -20.768  1.00  0.00     0.046 C 
BRANCH  32  33
HETATM   33  C27 UNL     1      17.094 -24.718 -20.804  1.00  0.00     0.168 C 
BRANCH  33  34
HETATM   34  O3  UNL     1      17.503 -24.273 -19.552  1.00  0.00    -0.396 OA
HETATM   35  C28 UNL     1      18.263 -25.289 -18.972  1.00  0.00     0.201 C 
ENDBRANCH  33  34
ENDBRANCH  32  33
ENDBRANCH  31  32
ENDBRANCH  29  31
ENDBRANCH   7  29
BRANCH   1  36
HETATM   36  N2  UNL     1      17.222 -22.435 -15.954  1.00  0.00    -0.217 N 
ATOM     37  H2  UNL     1      17.938 -22.186 -16.637  1.00  0.00     0.178 HD
BRANCH  36  38
HETATM   38  C3  UNL     1      17.660 -22.697 -14.612  1.00  0.00     0.240 C 
BRANCH  38  39
HETATM   39  C2  UNL     1      18.366 -24.000 -14.526  1.00  0.00     0.235 C 
HETATM   40  N1  UNL     1      17.916 -25.102 -15.281  1.00  0.00    -0.364 N 
HETATM   41  C1  UNL     1      18.564 -26.390 -15.233  1.00  0.00     0.149 C 
ATOM     42  H1  UNL     1      17.101 -24.984 -15.884  1.00  0.00     0.161 HD
HETATM   43  O1  UNL     1      19.381 -24.097 -13.756  1.00  0.00    -0.272 OA
ENDBRANCH  38  39
ENDBRANCH  36  38
ENDBRANCH   1  36
TORSDOF 16
ENDMDL
MODEL 4
REMARK VINA RESULT: -7.965998117      2.183      2.591
REMARK  16 active torsions:
REMARK  status: ('A' for Active; 'I' for Inactive)
REMARK       I    between atoms: N1_2  and  C2_4 
REMARK    1  A    between atoms: C2_4  and  C3_6 
REMARK    2  A    between atoms: C3_6  and  N2_7 
REMARK    3  A    between atoms: N2_7  and  C4_9 
REMARK    4  A    between atoms: C7_14  and  C8_15 
REMARK    5  A    between atoms: C8_15  and  C9_16 
REMARK    6  A    between atoms: C9_16  and  C10_17 
REMARK    7  A    between atoms: C10_17  and  C11_18 
REMARK    8  A    between atoms: C11_18  and  N4_19 
REMARK    9  A    between atoms: N5_22  and  C14_23 
REMARK   10  A    between atoms: C14_23  and  C15_24 
REMARK   11  A    between atoms: C19_28  and  C20_29 
REMARK   12  A    between atoms: C24_34  and  N6_35 
REMARK   13  A    between atoms: N6_35  and  C25_37 
REMARK   14  A    between atoms: C25_37  and  C26_38 
REMARK   15  A    between atoms: C26_38  and  C27_39 
REMARK   16  A    between atoms: C27_39  and  O3_40 
ROOT
HETATM    1  C4  UNL     1      16.482 -24.882 -19.248  1.00  0.00     0.680 A 
HETATM    2  N3  UNL     1      15.834 -24.500 -20.341  1.00  0.00    -0.195 N 
ATOM      3  H3  UNL     1      16.094 -24.900 -21.244  1.00  0.00     0.184 HD
HETATM    4  C5  UNL     1      14.822 -23.579 -20.277  1.00  0.00     0.032 A 
HETATM    5  C6  UNL     1      14.151 -23.201 -21.532  1.00  0.00     0.069 C 
HETATM    6  C7  UNL     1      14.448 -23.022 -19.079  1.00  0.00     0.009 A 
HETATM    7  C24 UNL     1      15.138 -23.437 -17.960  1.00  0.00     0.125 A 
HETATM    8  N7  UNL     1      16.137 -24.351 -18.049  1.00  0.00    -0.176 N 
ATOM      9  H7  UNL     1      16.633 -24.642 -17.206  1.00  0.00     0.186 HD
ENDROOT
BRANCH   6  10
HETATM   10  C8  UNL     1      13.370 -22.035 -19.007  1.00  0.00     0.044 C 
BRANCH  10  11
HETATM   11  C9  UNL     1      12.084 -22.560 -18.460  1.00  0.00     0.006 C 
BRANCH  11  12
HETATM   12  C10 UNL     1      10.870 -22.075 -19.214  1.00  0.00     0.020 C 
BRANCH  12  13
HETATM   13  C11 UNL     1      10.886 -20.611 -19.480  1.00  0.00     0.126 C 
BRANCH  13  14
HETATM   14  N4  UNL     1      10.182 -19.842 -18.461  1.00  0.00    -0.349 N 
HETATM   15  C12 UNL     1       9.196 -20.418 -17.585  1.00  0.00     0.156 C 
HETATM   16  C13 UNL     1       9.146 -19.696 -16.270  1.00  0.00     0.293 C 
HETATM   17  N5  UNL     1       9.043 -18.295 -16.274  1.00  0.00     0.104 N 
HETATM   18  C19 UNL     1       9.529 -17.608 -17.444  1.00  0.00     0.318 C 
HETATM   19  C23 UNL     1      10.432 -18.446 -18.286  1.00  0.00     0.254 C 
HETATM   20  O2  UNL     1      11.442 -17.968 -18.869  1.00  0.00    -0.271 OA
BRANCH  17  21
HETATM   21  C14 UNL     1       9.629 -17.747 -15.082  1.00  0.00     0.278 C 
BRANCH  21  22
HETATM   22  C15 UNL     1       8.849 -17.008 -14.108  1.00  0.00     0.014 C 
HETATM   23  C16 UNL     1       9.393 -15.715 -13.558  1.00  0.00     0.006 C 
HETATM   24  C17 UNL     1       8.127 -15.011 -14.054  1.00  0.00     0.001 C 
HETATM   25  C18 UNL     1       7.542 -16.383 -14.348  1.00  0.00     0.006 C 
ENDBRANCH  21  22
ENDBRANCH  17  21
BRANCH  18  26
HETATM   26  C20 UNL     1       8.491 -16.866 -18.238  1.00  0.00     0.028 A 
HETATM   27  C21 UNL     1       7.078 -16.734 -17.818  1.00  0.00     0.008 A 
HETATM   28  C22 UNL     1       7.959 -15.539 -17.822  1.00  0.00     0.008 A 
ENDBRANCH  18  26
ENDBRANCH  13  14
ENDBRANCH  12  13
ENDBRANCH  11  12
ENDBRANCH  10  11
ENDBRANCH   6  10
BRANCH   7  29
HETATM   29  N6  UNL     1      14.827 -22.942 -16.812  1.00  0.00    -0.375 N 
ATOM     30  H6  UNL     1      13.845 -22.938 -16.537  1.00  0.00     0.161 HD
BRANCH  29  31
HETATM   31  C25 UNL     1      15.800 -22.393 -15.894  1.00  0.00     0.123 C 
BRANCH  31  32
HETATM   32  C26 UNL     1      15.198 -21.332 -14.994  1.00  0.00     0.046 C 
BRANCH  32  33
HETATM   33  C27 UNL     1      15.278 -19.978 -15.680  1.00  0.00     0.168 C 
BRANCH  33  34
HETATM   34  O3  UNL     1      14.240 -19.863 -16.598  1.00  0.00    -0.396 OA
HETATM   35  C28 UNL     1      13.043 -19.859 -15.882  1.00  0.00     0.201 C 
ENDBRANCH  33  34
ENDBRANCH  32  33
ENDBRANCH  31  32
ENDBRANCH  29  31
ENDBRANCH   7  29
BRANCH   1  36
HETATM   36  N2  UNL     1      17.437 -25.748 -19.282  1.00  0.00    -0.217 N 
ATOM     37  H2  UNL     1      17.302 -26.566 -19.877  1.00  0.00     0.178 HD
BRANCH  36  38
HETATM   38  C3  UNL     1      18.674 -25.663 -18.556  1.00  0.00     0.240 C 
BRANCH  38  39
HETATM   39  C2  UNL     1      19.225 -27.014 -18.283  1.00  0.00     0.235 C 
HETATM   40  N1  UNL     1      20.513 -27.361 -18.741  1.00  0.00    -0.364 N 
HETATM   41  C1  UNL     1      21.094 -28.660 -18.504  1.00  0.00     0.149 C 
ATOM     42  H1  UNL     1      21.053 -26.668 -19.260  1.00  0.00     0.161 HD
HETATM   43  O1  UNL     1      18.510 -27.847 -17.630  1.00  0.00    -0.272 OA
ENDBRANCH  38  39
ENDBRANCH  36  38
ENDBRANCH   1  36
TORSDOF 16
ENDMDL
MODEL 5
REMARK VINA RESULT: -7.950744848      2.450      3.958
REMARK  16 active torsions:
REMARK  status: ('A' for Active; 'I' for Inactive)
REMARK       I    between atoms: N1_2  and  C2_4 
REMARK    1  A    between atoms: C2_4  and  C3_6 
REMARK    2  A    between atoms: C3_6  and  N2_7 
REMARK    3  A    between atoms: N2_7  and  C4_9 
REMARK    4  A    between atoms: C7_14  and  C8_15 
REMARK    5  A    between atoms: C8_15  and  C9_16 
REMARK    6  A    between atoms: C9_16  and  C10_17 
REMARK    7  A    between atoms: C10_17  and  C11_18 
REMARK    8  A    between atoms: C11_18  and  N4_19 
REMARK    9  A    between atoms: N5_22  and  C14_23 
REMARK   10  A    between atoms: C14_23  and  C15_24 
REMARK   11  A    between atoms: C19_28  and  C20_29 
REMARK   12  A    between atoms: C24_34  and  N6_35 
REMARK   13  A    between atoms: N6_35  and  C25_37 
REMARK   14  A    between atoms: C25_37  and  C26_38 
REMARK   15  A    between atoms: C26_38  and  C27_39 
REMARK   16  A    between atoms: C27_39  and  O3_40 
ROOT
HETATM    1  C4  UNL     1      17.567 -23.581 -16.354  1.00  0.00     0.680 A 
HETATM    2  N3  UNL     1      17.182 -22.602 -15.545  1.00  0.00    -0.195 N 
ATOM      3  H3  UNL     1      17.742 -22.384 -14.721  1.00  0.00     0.184 HD
HETATM    4  C5  UNL     1      16.045 -21.881 -15.800  1.00  0.00     0.032 A 
HETATM    5  C6  UNL     1      15.679 -20.812 -14.856  1.00  0.00     0.069 C 
HETATM    6  C7  UNL     1      15.270 -22.149 -16.900  1.00  0.00     0.009 A 
HETATM    7  C24 UNL     1      15.693 -23.171 -17.723  1.00  0.00     0.125 A 
HETATM    8  N7  UNL     1      16.823 -23.872 -17.450  1.00  0.00    -0.176 N 
ATOM      9  H7  UNL     1      17.115 -24.623 -18.075  1.00  0.00     0.186 HD
ENDROOT
BRANCH   6  10
HETATM   10  C8  UNL     1      14.052 -21.383 -17.174  1.00  0.00     0.044 C 
BRANCH  10  11
HETATM   11  C9  UNL     1      12.829 -21.899 -16.492  1.00  0.00     0.006 C 
BRANCH  11  12
HETATM   12  C10 UNL     1      11.666 -22.113 -17.430  1.00  0.00     0.020 C 
BRANCH  12  13
HETATM   13  C11 UNL     1      11.481 -21.004 -18.405  1.00  0.00     0.126 C 
BRANCH  13  14
HETATM   14  N4  UNL     1      10.893 -19.813 -17.805  1.00  0.00    -0.349 N 
HETATM   15  C12 UNL     1      11.647 -18.619 -17.529  1.00  0.00     0.156 C 
HETATM   16  C13 UNL     1      10.777 -17.399 -17.588  1.00  0.00     0.293 C 
HETATM   17  N5  UNL     1       9.569 -17.395 -16.870  1.00  0.00     0.104 N 
HETATM   18  C19 UNL     1       8.977 -18.677 -16.584  1.00  0.00     0.318 C 
HETATM   19  C23 UNL     1       9.512 -19.777 -17.440  1.00  0.00     0.254 C 
HETATM   20  O2  UNL     1       8.779 -20.706 -17.874  1.00  0.00    -0.271 OA
BRANCH  17  21
HETATM   21  C14 UNL     1       8.616 -16.521 -17.497  1.00  0.00     0.278 C 
BRANCH  21  22
HETATM   22  C15 UNL     1       8.055 -15.373 -16.813  1.00  0.00     0.014 C 
HETATM   23  C16 UNL     1       6.573 -15.329 -16.545  1.00  0.00     0.006 C 
HETATM   24  C17 UNL     1       6.882 -15.175 -15.053  1.00  0.00     0.001 C 
HETATM   25  C18 UNL     1       8.340 -14.972 -15.430  1.00  0.00     0.006 C 
ENDBRANCH  21  22
ENDBRANCH  17  21
BRANCH  18  26
HETATM   26  C20 UNL     1       8.890 -19.041 -15.129  1.00  0.00     0.028 A 
HETATM   27  C21 UNL     1       8.979 -18.053 -14.030  1.00  0.00     0.008 A 
HETATM   28  C22 UNL     1       7.692 -18.743 -14.297  1.00  0.00     0.008 A 
ENDBRANCH  18  26
ENDBRANCH  13  14
ENDBRANCH  12  13
ENDBRANCH  11  12
ENDBRANCH  10  11
ENDBRANCH   6  10
BRANCH   7  29
HETATM   29  N6  UNL     1      14.998 -23.463 -18.768  1.00  0.00    -0.375 N 
ATOM     30  H6  UNL     1      14.728 -22.708 -19.398  1.00  0.00     0.161 HD
BRANCH  29  31
HETATM   31  C25 UNL     1      14.580 -24.809 -19.093  1.00  0.00     0.123 C 
BRANCH  31  32
HETATM   32  C26 UNL     1      15.355 -25.379 -20.265  1.00  0.00     0.046 C 
BRANCH  32  33
HETATM   33  C27 UNL     1      16.066 -24.256 -20.999  1.00  0.00     0.168 C 
BRANCH  33  34
HETATM   34  O3  UNL     1      17.410 -24.247 -20.640  1.00  0.00    -0.396 OA
HETATM   35  C28 UNL     1      17.851 -25.571 -20.632  1.00  0.00     0.201 C 
ENDBRANCH  33  34
ENDBRANCH  32  33
ENDBRANCH  31  32
ENDBRANCH  29  31
ENDBRANCH   7  29
BRANCH   1  36
HETATM   36  N2  UNL     1      18.632 -24.274 -16.138  1.00  0.00    -0.217 N 
ATOM     37  H2  UNL     1      19.528 -23.803 -16.270  1.00  0.00     0.178 HD
BRANCH  36  38
HETATM   38  C3  UNL     1      18.670 -25.650 -15.726  1.00  0.00     0.240 C 
BRANCH  38  39
HETATM   39  C2  UNL     1      18.809 -26.552 -16.897  1.00  0.00     0.235 C 
HETATM   40  N1  UNL     1      20.088 -26.936 -17.349  1.00  0.00    -0.364 N 
HETATM   41  C1  UNL     1      20.278 -27.809 -18.482  1.00  0.00     0.149 C 
ATOM     42  H1  UNL     1      20.909 -26.583 -16.858  1.00  0.00     0.161 HD
HETATM   43  O1  UNL     1      17.750 -26.967 -17.479  1.00  0.00    -0.272 OA
ENDBRANCH  38  39
ENDBRANCH  36  38
ENDBRANCH   1  36
TORSDOF 16
ENDMDL
