MODEL 1
REMARK VINA RESULT: -9.328248361      0.000      0.000
REMARK  17 active torsions:
REMARK  status: ('A' for Active; 'I' for Inactive)
REMARK    1  A    between atoms: C2_2  and  C4_4 
REMARK    2  A    between atoms: C4_4  and  C5_5 
REMARK    3  A    between atoms: C5_5  and  N1_6 
REMARK    4  A    between atoms: C5_5  and  C31_44 
REMARK       I    between atoms: N1_6  and  C6_8 
REMARK    5  A    between atoms: C6_8  and  C7_10 
REMARK    6  A    between atoms: C7_10  and  C8_11 
REMARK    7  A    between atoms: C7_10  and  N2_15 
REMARK    8  A    between atoms: C8_11  and  C9_12 
REMARK       I    between atoms: N2_15  and  C12_17 
REMARK    9  A    between atoms: C12_17  and  C13_19 
REMARK   10  A    between atoms: N3_23  and  C17_24 
REMARK   11  A    between atoms: C17_24  and  O3_25 
REMARK   12  A    between atoms: C17_24  and  C18_27 
REMARK   13  A    between atoms: C18_27  and  N4_28 
REMARK   14  A    between atoms: C18_27  and  C28_41 
REMARK       I    between atoms: N4_28  and  C19_30 
REMARK   15  A    between atoms: C19_30  and  C20_32 
REMARK   16  A    between atoms: C20_32  and  C21_33 
REMARK   17  A    between atoms: C20_32  and  N5_36 
ROOT
HETATM    1  C13 UNL     1     -11.942  20.890 -18.995  1.00  0.00     0.178 C 
HETATM    2  C14 UNL     1     -11.172  22.114 -18.597  1.00  0.00     0.037 C 
HETATM    3  C15 UNL     1     -11.272  21.955 -17.068  1.00  0.00     0.022 C 
HETATM    4  C16 UNL     1     -11.100  20.449 -16.869  1.00  0.00     0.126 C 
HETATM    5  N3  UNL     1     -11.276  19.852 -18.142  1.00  0.00    -0.347 N 
ENDROOT
BRANCH   1   6
HETATM    6  C12 UNL     1     -13.355  20.947 -18.604  1.00  0.00     0.241 C 
HETATM    7  N2  UNL     1     -14.060  22.134 -18.341  1.00  0.00    -0.346 N 
ATOM      8  H2  UNL     1     -13.574  23.025 -18.434  1.00  0.00     0.163 HD
HETATM    9  O2  UNL     1     -13.999  19.848 -18.490  1.00  0.00    -0.271 OA
BRANCH   7  10
HETATM   10  C7  UNL     1     -15.483  22.137 -17.935  1.00  0.00     0.177 C 
BRANCH  10  11
HETATM   11  C6  UNL     1     -15.613  22.059 -16.495  1.00  0.00     0.241 C 
HETATM   12  N1  UNL     1     -15.605  23.146 -15.615  1.00  0.00    -0.346 N 
ATOM     13  H1  UNL     1     -15.511  24.097 -15.972  1.00  0.00     0.163 HD
HETATM   14  O1  UNL     1     -15.751  20.863 -16.010  1.00  0.00    -0.271 OA
BRANCH  12  15
HETATM   15  C5  UNL     1     -15.734  22.902 -14.141  1.00  0.00     0.174 C 
BRANCH  15  16
HETATM   16  C4  UNL     1     -14.384  22.937 -13.548  1.00  0.00     0.038 C 
BRANCH  16  17
HETATM   17  C2  UNL     1     -13.855  21.678 -12.988  1.00  0.00    -0.020 C 
HETATM   18  C1  UNL     1     -12.936  20.853 -13.812  1.00  0.00     0.009 C 
HETATM   19  C3  UNL     1     -15.027  20.761 -12.549  1.00  0.00     0.009 C 
ENDBRANCH  16  17
ENDBRANCH  15  16
BRANCH  15  20
HETATM   20  C31 UNL     1     -16.751  23.821 -13.611  1.00  0.00     0.254 C 
HETATM   21  N6  UNL     1     -18.028  24.041 -14.246  1.00  0.00    -0.060 NA
HETATM   22  O5  UNL     1     -16.567  24.502 -12.545  1.00  0.00    -0.275 OA
ENDBRANCH  15  20
ENDBRANCH  12  15
ENDBRANCH  10  11
BRANCH  10  23
HETATM   23  C8  UNL     1     -16.145  23.336 -18.519  1.00  0.00     0.038 C 
BRANCH  23  24
HETATM   24  C9  UNL     1     -15.370  24.098 -19.521  1.00  0.00    -0.020 C 
HETATM   25  C10 UNL     1     -14.871  25.437 -18.988  1.00  0.00     0.009 C 
HETATM   26  C11 UNL     1     -16.283  24.382 -20.720  1.00  0.00     0.009 C 
ENDBRANCH  23  24
ENDBRANCH  10  23
ENDBRANCH   7  10
ENDBRANCH   1   6
BRANCH   5  27
HETATM   27  C17 UNL     1     -10.894  18.601 -18.676  1.00  0.00     0.162 C 
BRANCH  27  28
HETATM   28  O3  UNL     1     -11.914  17.762 -18.756  1.00  0.00    -0.345 OA
ATOM     29  H3  UNL     1     -12.716  18.142 -18.419  1.00  0.00     0.219 HD
ENDBRANCH  27  28
BRANCH  27  30
HETATM   30  C18 UNL     1      -9.639  18.056 -19.148  1.00  0.00     0.066 C 
BRANCH  30  31
HETATM   31  N4  UNL     1      -8.933  17.440 -18.342  1.00  0.00    -0.325 N 
HETATM   32  C19 UNL     1      -7.938  17.271 -17.487  1.00  0.00     0.256 C 
HETATM   33  O4  UNL     1      -6.714  17.408 -17.872  1.00  0.00    -0.271 OA
ATOM     34  H4  UNL     1      -9.381  16.524 -18.329  1.00  0.00     0.169 HD
BRANCH  32  35
HETATM   35  C20 UNL     1      -8.110  16.909 -16.002  1.00  0.00     0.317 C 
BRANCH  35  36
HETATM   36  C21 UNL     1      -9.012  17.930 -15.440  1.00  0.00     0.020 C 
HETATM   37  C22 UNL     1      -8.268  18.693 -14.320  1.00  0.00     0.012 C 
HETATM   38  C23 UNL     1     -10.359  17.517 -14.950  1.00  0.00     0.012 C 
ENDBRANCH  35  36
BRANCH  35  39
HETATM   39  N5  UNL     1      -8.394  15.545 -15.905  1.00  0.00     0.102 N 
HETATM   40  C24 UNL     1      -7.106  14.826 -16.167  1.00  0.00     0.273 C 
HETATM   41  C25 UNL     1      -6.414  14.936 -14.833  1.00  0.00     0.032 C 
HETATM   42  C26 UNL     1      -7.510  14.965 -13.796  1.00  0.00     0.032 C 
HETATM   43  C27 UNL     1      -8.746  14.936 -14.682  1.00  0.00     0.273 C 
ENDBRANCH  35  39
ENDBRANCH  32  35
ENDBRANCH  30  31
BRANCH  30  44
HETATM   44  C28 UNL     1      -9.198  18.321 -20.531  1.00  0.00     0.032 C 
HETATM   45  C29 UNL     1      -8.477  19.687 -20.608  1.00  0.00     0.016 C 
HETATM   46  C30 UNL     1      -8.217  17.305 -21.080  1.00  0.00     0.016 C 
ENDBRANCH  30  44
ENDBRANCH  27  30
ENDBRANCH   5  27
TORSDOF 17
ENDMDL
MODEL 2
REMARK VINA RESULT: -9.267820262      0.892      1.754
REMARK  17 active torsions:
REMARK  status: ('A' for Active; 'I' for Inactive)
REMARK    1  A    between atoms: C2_2  and  C4_4 
REMARK    2  A    between atoms: C4_4  and  C5_5 
REMARK    3  A    between atoms: C5_5  and  N1_6 
REMARK    4  A    between atoms: C5_5  and  C31_44 
REMARK       I    between atoms: N1_6  and  C6_8 
REMARK    5  A    between atoms: C6_8  and  C7_10 
REMARK    6  A    between atoms: C7_10  and  C8_11 
REMARK    7  A    between atoms: C7_10  and  N2_15 
REMARK    8  A    between atoms: C8_11  and  C9_12 
REMARK       I    between atoms: N2_15  and  C12_17 
REMARK    9  A    between atoms: C12_17  and  C13_19 
REMARK   10  A    between atoms: N3_23  and  C17_24 
REMARK   11  A    between atoms: C17_24  and  O3_25 
REMARK   12  A    between atoms: C17_24  and  C18_27 
REMARK   13  A    between atoms: C18_27  and  N4_28 
REMARK   14  A    between atoms: C18_27  and  C28_41 
REMARK       I    between atoms: N4_28  and  C19_30 
REMARK   15  A    between atoms: C19_30  and  C20_32 
REMARK   16  A    between atoms: C20_32  and  C21_33 
REMARK   17  A    between atoms: C20_32  and  N5_36 
ROOT
HETATM    1  C13 UNL     1     -11.515  20.913 -18.999  1.00  0.00     0.178 C 
HETATM    2  C14 UNL     1     -10.788  22.080 -18.400  1.00  0.00     0.037 C 
HETATM    3  C15 UNL     1     -10.962  21.714 -16.914  1.00  0.00     0.022 C 
HETATM    4  C16 UNL     1     -10.776  20.196 -16.911  1.00  0.00     0.126 C 
HETATM    5  N3  UNL     1     -10.877  19.776 -18.260  1.00  0.00    -0.347 N 
ENDROOT
BRANCH   1   6
HETATM    6  C12 UNL     1     -12.948  20.903 -18.679  1.00  0.00     0.241 C 
HETATM    7  N2  UNL     1     -13.716  22.054 -18.433  1.00  0.00    -0.346 N 
ATOM      8  H2  UNL     1     -13.264  22.967 -18.487  1.00  0.00     0.163 HD
HETATM    9  O2  UNL     1     -13.548  19.776 -18.616  1.00  0.00    -0.271 OA
BRANCH   7  10
HETATM   10  C7  UNL     1     -15.156  21.990 -18.100  1.00  0.00     0.177 C 
BRANCH  10  11
HETATM   11  C6  UNL     1     -15.355  21.916 -16.668  1.00  0.00     0.241 C 
HETATM   12  N1  UNL     1     -15.413  23.007 -15.794  1.00  0.00    -0.346 N 
ATOM     13  H1  UNL     1     -15.322  23.958 -16.152  1.00  0.00     0.163 HD
HETATM   14  O1  UNL     1     -15.492  20.719 -16.184  1.00  0.00    -0.271 OA
BRANCH  12  15
HETATM   15  C5  UNL     1     -15.610  22.767 -14.328  1.00  0.00     0.174 C 
BRANCH  15  16
HETATM   16  C4  UNL     1     -14.297  22.871 -13.663  1.00  0.00     0.038 C 
BRANCH  16  17
HETATM   17  C2  UNL     1     -13.738  21.643 -13.065  1.00  0.00    -0.020 C 
HETATM   18  C1  UNL     1     -12.874  20.767 -13.895  1.00  0.00     0.009 C 
HETATM   19  C3  UNL     1     -14.884  20.760 -12.504  1.00  0.00     0.009 C 
ENDBRANCH  16  17
ENDBRANCH  15  16
BRANCH  15  20
HETATM   20  C31 UNL     1     -16.698  23.639 -13.862  1.00  0.00     0.254 C 
HETATM   21  N6  UNL     1     -17.914  23.855 -14.606  1.00  0.00    -0.060 NA
HETATM   22  O5  UNL     1     -16.634  24.279 -12.756  1.00  0.00    -0.275 OA
ENDBRANCH  15  20
ENDBRANCH  12  15
ENDBRANCH  10  11
BRANCH  10  23
HETATM   23  C8  UNL     1     -15.845  23.152 -18.728  1.00  0.00     0.038 C 
BRANCH  23  24
HETATM   24  C9  UNL     1     -15.012  24.042 -19.564  1.00  0.00    -0.020 C 
HETATM   25  C10 UNL     1     -14.802  25.415 -18.935  1.00  0.00     0.009 C 
HETATM   26  C11 UNL     1     -15.726  24.246 -20.906  1.00  0.00     0.009 C 
ENDBRANCH  23  24
ENDBRANCH  10  23
ENDBRANCH   7  10
ENDBRANCH   1   6
BRANCH   5  27
HETATM   27  C17 UNL     1     -10.448  18.612 -18.936  1.00  0.00     0.162 C 
BRANCH  27  28
HETATM   28  O3  UNL     1     -11.405  18.090 -19.685  1.00  0.00    -0.345 OA
ATOM     29  H3  UNL     1     -11.872  17.395 -19.235  1.00  0.00     0.219 HD
ENDBRANCH  27  28
BRANCH  27  30
HETATM   30  C18 UNL     1      -9.197  17.885 -18.980  1.00  0.00     0.066 C 
BRANCH  30  31
HETATM   31  N4  UNL     1      -9.025  16.975 -18.163  1.00  0.00    -0.325 N 
HETATM   32  C19 UNL     1      -8.347  16.038 -17.519  1.00  0.00     0.256 C 
HETATM   33  O4  UNL     1      -7.833  15.044 -18.162  1.00  0.00    -0.271 OA
ATOM     34  H4  UNL     1      -9.946  16.902 -17.732  1.00  0.00     0.169 HD
BRANCH  32  35
HETATM   35  C20 UNL     1      -8.100  16.022 -16.002  1.00  0.00     0.317 C 
BRANCH  35  36
HETATM   36  C21 UNL     1      -6.693  15.618 -15.826  1.00  0.00     0.020 C 
HETATM   37  C22 UNL     1      -6.624  14.492 -14.769  1.00  0.00     0.012 C 
HETATM   38  C23 UNL     1      -5.673  16.659 -15.512  1.00  0.00     0.012 C 
ENDBRANCH  35  36
BRANCH  35  39
HETATM   39  N5  UNL     1      -8.596  17.207 -15.456  1.00  0.00     0.102 N 
HETATM   40  C24 UNL     1     -10.078  17.030 -15.339  1.00  0.00     0.273 C 
HETATM   41  C25 UNL     1     -10.195  16.217 -14.076  1.00  0.00     0.032 C 
HETATM   42  C26 UNL     1      -9.026  16.621 -13.211  1.00  0.00     0.032 C 
HETATM   43  C27 UNL     1      -8.313  17.600 -14.131  1.00  0.00     0.273 C 
ENDBRANCH  35  39
ENDBRANCH  32  35
ENDBRANCH  30  31
BRANCH  30  44
HETATM   44  C28 UNL     1      -8.141  18.300 -19.925  1.00  0.00     0.032 C 
HETATM   45  C29 UNL     1      -8.036  17.282 -21.085  1.00  0.00     0.016 C 
HETATM   46  C30 UNL     1      -8.381  19.646 -20.578  1.00  0.00     0.016 C 
ENDBRANCH  30  44
ENDBRANCH  27  30
ENDBRANCH   5  27
TORSDOF 17
ENDMDL
MODEL 3
REMARK VINA RESULT: -8.951635301      1.220      1.416
REMARK  17 active torsions:
REMARK  status: ('A' for Active; 'I' for Inactive)
REMARK    1  A    between atoms: C2_2  and  C4_4 
REMARK    2  A    between atoms: C4_4  and  C5_5 
REMARK    3  A    between atoms: C5_5  and  N1_6 
REMARK    4  A    between atoms: C5_5  and  C31_44 
REMARK       I    between atoms: N1_6  and  C6_8 
REMARK    5  A    between atoms: C6_8  and  C7_10 
REMARK    6  A    between atoms: C7_10  and  C8_11 
REMARK    7  A    between atoms: C7_10  and  N2_15 
REMARK    8  A    between atoms: C8_11  and  C9_12 
REMARK       I    between atoms: N2_15  and  C12_17 
REMARK    9  A    between atoms: C12_17  and  C13_19 
REMARK   10  A    between atoms: N3_23  and  C17_24 
REMARK   11  A    between atoms: C17_24  and  O3_25 
REMARK   12  A    between atoms: C17_24  and  C18_27 
REMARK   13  A    between atoms: C18_27  and  N4_28 
REMARK   14  A    between atoms: C18_27  and  C28_41 
REMARK       I    between atoms: N4_28  and  C19_30 
REMARK   15  A    between atoms: C19_30  and  C20_32 
REMARK   16  A    between atoms: C20_32  and  C21_33 
REMARK   17  A    between atoms: C20_32  and  N5_36 
ROOT
HETATM    1  C13 UNL     1     -11.633  21.090 -17.859  1.00  0.00     0.178 C 
HETATM    2  C14 UNL     1     -11.160  21.705 -16.576  1.00  0.00     0.037 C 
HETATM    3  C15 UNL     1     -12.248  21.142 -15.642  1.00  0.00     0.022 C 
HETATM    4  C16 UNL     1     -12.439  19.716 -16.160  1.00  0.00     0.126 C 
HETATM    5  N3  UNL     1     -11.819  19.664 -17.433  1.00  0.00    -0.347 N 
ENDROOT
BRANCH   1   6
HETATM    6  C12 UNL     1     -12.939  21.598 -18.293  1.00  0.00     0.241 C 
HETATM    7  N2  UNL     1     -13.421  22.890 -18.019  1.00  0.00    -0.346 N 
ATOM      8  H2  UNL     1     -12.830  23.533 -17.493  1.00  0.00     0.163 HD
HETATM    9  O2  UNL     1     -13.701  20.822 -18.967  1.00  0.00    -0.271 OA
BRANCH   7  10
HETATM   10  C7  UNL     1     -14.754  23.351 -18.468  1.00  0.00     0.177 C 
BRANCH  10  11
HETATM   11  C6  UNL     1     -15.765  23.062 -17.473  1.00  0.00     0.241 C 
HETATM   12  N1  UNL     1     -15.709  23.424 -16.123  1.00  0.00    -0.346 N 
ATOM     13  H1  UNL     1     -14.910  23.946 -15.763  1.00  0.00     0.163 HD
HETATM   14  O1  UNL     1     -16.804  22.414 -17.905  1.00  0.00    -0.271 OA
BRANCH  12  15
HETATM   15  C5  UNL     1     -16.834  23.038 -15.210  1.00  0.00     0.174 C 
BRANCH  15  16
HETATM   16  C4  UNL     1     -16.253  22.471 -13.978  1.00  0.00     0.038 C 
BRANCH  16  17
HETATM   17  C2  UNL     1     -15.488  21.215 -14.103  1.00  0.00    -0.020 C 
HETATM   18  C1  UNL     1     -16.130  20.042 -14.748  1.00  0.00     0.009 C 
HETATM   19  C3  UNL     1     -14.991  20.757 -12.706  1.00  0.00     0.009 C 
ENDBRANCH  16  17
ENDBRANCH  15  16
BRANCH  15  20
HETATM   20  C31 UNL     1     -17.740  24.188 -15.087  1.00  0.00     0.254 C 
HETATM   21  N6  UNL     1     -18.421  24.533 -13.863  1.00  0.00    -0.060 NA
HETATM   22  O5  UNL     1     -17.997  24.964 -16.071  1.00  0.00    -0.275 OA
ENDBRANCH  15  20
ENDBRANCH  12  15
ENDBRANCH  10  11
BRANCH  10  23
HETATM   23  C8  UNL     1     -14.668  24.796 -18.814  1.00  0.00     0.038 C 
BRANCH  23  24
HETATM   24  C9  UNL     1     -15.123  25.181 -20.168  1.00  0.00    -0.020 C 
HETATM   25  C10 UNL     1     -16.537  25.751 -20.175  1.00  0.00     0.009 C 
HETATM   26  C11 UNL     1     -15.120  23.926 -21.050  1.00  0.00     0.009 C 
ENDBRANCH  23  24
ENDBRANCH  10  23
ENDBRANCH   7  10
ENDBRANCH   1   6
BRANCH   5  27
HETATM   27  C17 UNL     1     -11.344  18.595 -18.226  1.00  0.00     0.162 C 
BRANCH  27  28
HETATM   28  O3  UNL     1     -12.292  17.708 -18.484  1.00  0.00    -0.345 OA
ATOM     29  H3  UNL     1     -11.932  16.859 -18.716  1.00  0.00     0.219 HD
ENDBRANCH  27  28
BRANCH  27  30
HETATM   30  C18 UNL     1     -10.058  18.276 -18.806  1.00  0.00     0.066 C 
BRANCH  30  31
HETATM   31  N4  UNL     1      -9.268  17.604 -18.136  1.00  0.00    -0.325 N 
HETATM   32  C19 UNL     1      -8.171  17.368 -17.435  1.00  0.00     0.256 C 
HETATM   33  O4  UNL     1      -7.008  17.495 -17.979  1.00  0.00    -0.271 OA
ATOM     34  H4  UNL     1      -9.738  16.699 -18.102  1.00  0.00     0.169 HD
BRANCH  32  35
HETATM   35  C20 UNL     1      -8.148  16.937 -15.959  1.00  0.00     0.317 C 
BRANCH  35  36
HETATM   36  C21 UNL     1      -8.956  17.936 -15.235  1.00  0.00     0.020 C 
HETATM   37  C22 UNL     1      -8.068  18.620 -14.170  1.00  0.00     0.012 C 
HETATM   38  C23 UNL     1     -10.244  17.514 -14.613  1.00  0.00     0.012 C 
ENDBRANCH  35  36
BRANCH  35  39
HETATM   39  N5  UNL     1      -8.433  15.572 -15.888  1.00  0.00     0.102 N 
HETATM   40  C24 UNL     1      -7.168  14.857 -16.248  1.00  0.00     0.273 C 
HETATM   41  C25 UNL     1      -6.396  14.923 -14.955  1.00  0.00     0.032 C 
HETATM   42  C26 UNL     1      -7.428  14.923 -13.854  1.00  0.00     0.032 C 
HETATM   43  C27 UNL     1      -8.715  14.926 -14.666  1.00  0.00     0.273 C 
ENDBRANCH  35  39
ENDBRANCH  32  35
ENDBRANCH  30  31
BRANCH  30  44
HETATM   44  C28 UNL     1      -9.693  18.826 -20.127  1.00  0.00     0.032 C 
HETATM   45  C29 UNL     1      -8.831  20.098 -19.954  1.00  0.00     0.016 C 
HETATM   46  C30 UNL     1      -8.874  17.887 -20.989  1.00  0.00     0.016 C 
ENDBRANCH  30  44
ENDBRANCH  27  30
ENDBRANCH   5  27
TORSDOF 17
ENDMDL
MODEL 4
REMARK VINA RESULT: -8.934843932      1.635      1.984
REMARK  17 active torsions:
REMARK  status: ('A' for Active; 'I' for Inactive)
REMARK    1  A    between atoms: C2_2  and  C4_4 
REMARK    2  A    between atoms: C4_4  and  C5_5 
REMARK    3  A    between atoms: C5_5  and  N1_6 
REMARK    4  A    between atoms: C5_5  and  C31_44 
REMARK       I    between atoms: N1_6  and  C6_8 
REMARK    5  A    between atoms: C6_8  and  C7_10 
REMARK    6  A    between atoms: C7_10  and  C8_11 
REMARK    7  A    between atoms: C7_10  and  N2_15 
REMARK    8  A    between atoms: C8_11  and  C9_12 
REMARK       I    between atoms: N2_15  and  C12_17 
REMARK    9  A    between atoms: C12_17  and  C13_19 
REMARK   10  A    between atoms: N3_23  and  C17_24 
REMARK   11  A    between atoms: C17_24  and  O3_25 
REMARK   12  A    between atoms: C17_24  and  C18_27 
REMARK   13  A    between atoms: C18_27  and  N4_28 
REMARK   14  A    between atoms: C18_27  and  C28_41 
REMARK       I    between atoms: N4_28  and  C19_30 
REMARK   15  A    between atoms: C19_30  and  C20_32 
REMARK   16  A    between atoms: C20_32  and  C21_33 
REMARK   17  A    between atoms: C20_32  and  N5_36 
ROOT
HETATM    1  C13 UNL     1     -10.658  20.974 -18.307  1.00  0.00     0.178 C 
HETATM    2  C14 UNL     1     -10.116  21.523 -17.021  1.00  0.00     0.037 C 
HETATM    3  C15 UNL     1     -11.097  20.835 -16.053  1.00  0.00     0.022 C 
HETATM    4  C16 UNL     1     -11.257  19.441 -16.661  1.00  0.00     0.126 C 
HETATM    5  N3  UNL     1     -10.738  19.514 -17.977  1.00  0.00    -0.347 N 
ENDROOT
BRANCH   1   6
HETATM    6  C12 UNL     1     -12.018  21.439 -18.603  1.00  0.00     0.241 C 
HETATM    7  N2  UNL     1     -12.627  22.552 -17.999  1.00  0.00    -0.346 N 
ATOM      8  H2  UNL     1     -12.097  23.091 -17.314  1.00  0.00     0.163 HD
HETATM    9  O2  UNL     1     -12.706  20.794 -19.466  1.00  0.00    -0.271 OA
BRANCH   7  10
HETATM   10  C7  UNL     1     -14.009  22.972 -18.321  1.00  0.00     0.177 C 
BRANCH  10  11
HETATM   11  C6  UNL     1     -14.934  22.549 -17.291  1.00  0.00     0.241 C 
HETATM   12  N1  UNL     1     -15.537  23.381 -16.342  1.00  0.00    -0.346 N 
ATOM     13  H1  UNL     1     -15.345  24.383 -16.342  1.00  0.00     0.163 HD
HETATM   14  O1  UNL     1     -15.211  21.280 -17.277  1.00  0.00    -0.271 OA
BRANCH  12  15
HETATM   15  C5  UNL     1     -16.465  22.788 -15.326  1.00  0.00     0.174 C 
BRANCH  15  16
HETATM   16  C4  UNL     1     -15.783  22.800 -14.017  1.00  0.00     0.038 C 
BRANCH  16  17
HETATM   17  C2  UNL     1     -15.331  21.504 -13.475  1.00  0.00    -0.020 C 
HETATM   18  C1  UNL     1     -13.928  21.077 -13.706  1.00  0.00     0.009 C 
HETATM   19  C3  UNL     1     -16.249  20.365 -13.993  1.00  0.00     0.009 C 
ENDBRANCH  16  17
ENDBRANCH  15  16
BRANCH  15  20
HETATM   20  C31 UNL     1     -17.764  23.466 -15.440  1.00  0.00     0.254 C 
HETATM   21  N6  UNL     1     -18.617  23.354 -16.599  1.00  0.00    -0.060 NA
HETATM   22  O5  UNL     1     -18.227  24.216 -14.514  1.00  0.00    -0.275 OA
ENDBRANCH  15  20
ENDBRANCH  12  15
ENDBRANCH  10  11
BRANCH  10  23
HETATM   23  C8  UNL     1     -14.021  24.443 -18.550  1.00  0.00     0.038 C 
BRANCH  23  24
HETATM   24  C9  UNL     1     -14.792  24.925 -19.716  1.00  0.00    -0.020 C 
HETATM   25  C10 UNL     1     -16.207  25.359 -19.347  1.00  0.00     0.009 C 
HETATM   26  C11 UNL     1     -14.902  23.777 -20.727  1.00  0.00     0.009 C 
ENDBRANCH  23  24
ENDBRANCH  10  23
ENDBRANCH   7  10
ENDBRANCH   1   6
BRANCH   5  27
HETATM   27  C17 UNL     1     -10.274  18.532 -18.881  1.00  0.00     0.162 C 
BRANCH  27  28
HETATM   28  O3  UNL     1     -11.209  18.169 -19.744  1.00  0.00    -0.345 OA
ATOM     29  H3  UNL     1     -11.120  18.616 -20.577  1.00  0.00     0.219 HD
ENDBRANCH  27  28
BRANCH  27  30
HETATM   30  C18 UNL     1      -9.008  17.854 -19.057  1.00  0.00     0.066 C 
BRANCH  30  31
HETATM   31  N4  UNL     1      -8.682  17.006 -18.221  1.00  0.00    -0.325 N 
HETATM   32  C19 UNL     1      -7.983  15.994 -17.731  1.00  0.00     0.256 C 
HETATM   33  O4  UNL     1      -7.980  14.851 -18.330  1.00  0.00    -0.271 OA
ATOM     34  H4  UNL     1      -9.333  17.199 -17.460  1.00  0.00     0.169 HD
BRANCH  32  35
HETATM   35  C20 UNL     1      -7.131  16.054 -16.453  1.00  0.00     0.317 C 
BRANCH  35  36
HETATM   36  C21 UNL     1      -8.060  15.801 -15.336  1.00  0.00     0.020 C 
HETATM   37  C22 UNL     1      -7.953  16.966 -14.324  1.00  0.00     0.012 C 
HETATM   38  C23 UNL     1      -7.985  14.502 -14.610  1.00  0.00     0.012 C 
ENDBRANCH  35  36
BRANCH  35  39
HETATM   39  N5  UNL     1      -5.986  15.279 -16.643  1.00  0.00     0.102 N 
HETATM   40  C24 UNL     1      -5.159  15.991 -17.669  1.00  0.00     0.273 C 
HETATM   41  C25 UNL     1      -4.489  17.057 -16.840  1.00  0.00     0.032 C 
HETATM   42  C26 UNL     1      -4.331  16.472 -15.458  1.00  0.00     0.032 C 
HETATM   43  C27 UNL     1      -5.009  15.122 -15.637  1.00  0.00     0.273 C 
ENDBRANCH  35  39
ENDBRANCH  32  35
ENDBRANCH  30  31
BRANCH  30  44
HETATM   44  C28 UNL     1      -8.114  18.247 -20.164  1.00  0.00     0.032 C 
HETATM   45  C29 UNL     1      -6.776  18.781 -19.601  1.00  0.00     0.016 C 
HETATM   46  C30 UNL     1      -7.745  17.116 -21.101  1.00  0.00     0.016 C 
ENDBRANCH  30  44
ENDBRANCH  27  30
ENDBRANCH   5  27
TORSDOF 17
ENDMDL
MODEL 5
REMARK VINA RESULT: -8.918530866      1.549      3.317
REMARK  17 active torsions:
REMARK  status: ('A' for Active; 'I' for Inactive)
REMARK    1  A    between atoms: C2_2  and  C4_4 
REMARK    2  A    between atoms: C4_4  and  C5_5 
REMARK    3  A    between atoms: C5_5  and  N1_6 
REMARK    4  A    between atoms: C5_5  and  C31_44 
REMARK       I    between atoms: N1_6  and  C6_8 
REMARK    5  A    between atoms: C6_8  and  C7_10 
REMARK    6  A    between atoms: C7_10  and  C8_11 
REMARK    7  A    between atoms: C7_10  and  N2_15 
REMARK    8  A    between atoms: C8_11  and  C9_12 
REMARK       I    between atoms: N2_15  and  C12_17 
REMARK    9  A    between atoms: C12_17  and  C13_19 
REMARK   10  A    between atoms: N3_23  and  C17_24 
REMARK   11  A    between atoms: C17_24  and  O3_25 
REMARK   12  A    between atoms: C17_24  and  C18_27 
REMARK   13  A    between atoms: C18_27  and  N4_28 
REMARK   14  A    between atoms: C18_27  and  C28_41 
REMARK       I    between atoms: N4_28  and  C19_30 
REMARK   15  A    between atoms: C19_30  and  C20_32 
REMARK   16  A    between atoms: C20_32  and  C21_33 
REMARK   17  A    between atoms: C20_32  and  N5_36 
ROOT
HETATM    1  C13 UNL     1     -11.369  20.271 -18.444  1.00  0.00     0.178 C 
HETATM    2  C14 UNL     1     -10.674  21.600 -18.430  1.00  0.00     0.037 C 
HETATM    3  C15 UNL     1     -10.925  21.970 -16.957  1.00  0.00     0.022 C 
HETATM    4  C16 UNL     1     -10.739  20.637 -16.232  1.00  0.00     0.126 C 
HETATM    5  N3  UNL     1     -10.770  19.630 -17.228  1.00  0.00    -0.347 N 
ENDROOT
BRANCH   1   6
HETATM    6  C12 UNL     1     -12.816  20.377 -18.223  1.00  0.00     0.241 C 
HETATM    7  N2  UNL     1     -13.528  21.589 -18.186  1.00  0.00    -0.346 N 
ATOM      8  H2  UNL     1     -13.020  22.461 -18.332  1.00  0.00     0.163 HD
HETATM    9  O2  UNL     1     -13.485  19.302 -18.049  1.00  0.00    -0.271 OA
BRANCH   7  10
HETATM   10  C7  UNL     1     -14.987  21.644 -17.945  1.00  0.00     0.177 C 
BRANCH  10  11
HETATM   11  C6  UNL     1     -15.279  21.668 -16.527  1.00  0.00     0.241 C 
HETATM   12  N1  UNL     1     -15.261  22.802 -15.709  1.00  0.00    -0.346 N 
ATOM     13  H1  UNL     1     -15.038  23.717 -16.102  1.00  0.00     0.163 HD
HETATM   14  O1  UNL     1     -15.584  20.521 -16.000  1.00  0.00    -0.271 OA
BRANCH  12  15
HETATM   15  C5  UNL     1     -15.573  22.663 -14.249  1.00  0.00     0.174 C 
BRANCH  15  16
HETATM   16  C4  UNL     1     -14.312  22.799 -13.494  1.00  0.00     0.038 C 
BRANCH  16  17
HETATM   17  C2  UNL     1     -13.755  21.580 -12.877  1.00  0.00    -0.020 C 
HETATM   18  C1  UNL     1     -12.930  20.665 -13.706  1.00  0.00     0.009 C 
HETATM   19  C3  UNL     1     -14.898  20.732 -12.255  1.00  0.00     0.009 C 
ENDBRANCH  16  17
ENDBRANCH  15  16
BRANCH  15  20
HETATM   20  C31 UNL     1     -16.679  23.575 -13.927  1.00  0.00     0.254 C 
HETATM   21  N6  UNL     1     -17.850  23.724 -14.756  1.00  0.00    -0.060 NA
HETATM   22  O5  UNL     1     -16.674  24.312 -12.882  1.00  0.00    -0.275 OA
ENDBRANCH  15  20
ENDBRANCH  12  15
ENDBRANCH  10  11
BRANCH  10  23
HETATM   23  C8  UNL     1     -15.549  22.811 -18.679  1.00  0.00     0.038 C 
BRANCH  23  24
HETATM   24  C9  UNL     1     -14.579  23.701 -19.351  1.00  0.00    -0.020 C 
HETATM   25  C10 UNL     1     -14.629  25.132 -18.825  1.00  0.00     0.009 C 
HETATM   26  C11 UNL     1     -14.918  23.739 -20.846  1.00  0.00     0.009 C 
ENDBRANCH  23  24
ENDBRANCH  10  23
ENDBRANCH   7  10
ENDBRANCH   1   6
BRANCH   5  27
HETATM   27  C17 UNL     1     -10.306  18.295 -17.258  1.00  0.00     0.162 C 
BRANCH  27  28
HETATM   28  O3  UNL     1     -11.035  17.533 -18.056  1.00  0.00    -0.345 OA
ATOM     29  H3  UNL     1     -10.504  16.908 -18.536  1.00  0.00     0.219 HD
ENDBRANCH  27  28
BRANCH  27  30
HETATM   30  C18 UNL     1      -9.215  17.602 -16.607  1.00  0.00     0.066 C 
BRANCH  30  31
HETATM   31  N4  UNL     1      -8.299  17.169 -17.313  1.00  0.00    -0.325 N 
HETATM   32  C19 UNL     1      -7.753  16.462 -18.290  1.00  0.00     0.256 C 
HETATM   33  O4  UNL     1      -7.864  15.177 -18.308  1.00  0.00    -0.271 OA
ATOM     34  H4  UNL     1      -7.483  17.620 -16.900  1.00  0.00     0.169 HD
BRANCH  32  35
HETATM   35  C20 UNL     1      -6.961  17.058 -19.466  1.00  0.00     0.317 C 
BRANCH  35  36
HETATM   36  C21 UNL     1      -7.969  17.570 -20.413  1.00  0.00     0.020 C 
HETATM   37  C22 UNL     1      -7.578  17.131 -21.843  1.00  0.00     0.012 C 
HETATM   38  C23 UNL     1      -8.295  19.024 -20.410  1.00  0.00     0.012 C 
ENDBRANCH  35  36
BRANCH  35  39
HETATM   39  N5  UNL     1      -5.953  17.877 -18.956  1.00  0.00     0.102 N 
HETATM   40  C24 UNL     1      -4.991  16.972 -18.248  1.00  0.00     0.273 C 
HETATM   41  C25 UNL     1      -4.182  16.424 -19.395  1.00  0.00     0.032 C 
HETATM   42  C26 UNL     1      -4.161  17.507 -20.446  1.00  0.00     0.032 C 
HETATM   43  C27 UNL     1      -5.044  18.559 -19.791  1.00  0.00     0.273 C 
ENDBRANCH  35  39
ENDBRANCH  32  35
ENDBRANCH  30  31
BRANCH  30  44
HETATM   44  C28 UNL     1      -9.267  17.356 -15.153  1.00  0.00     0.032 C 
HETATM   45  C29 UNL     1      -8.441  18.426 -14.403  1.00  0.00     0.016 C 
HETATM   46  C30 UNL     1     -10.659  17.417 -14.558  1.00  0.00     0.016 C 
ENDBRANCH  30  44
ENDBRANCH  27  30
ENDBRANCH   5  27
TORSDOF 17
ENDMDL
