MODEL 1
REMARK VINA RESULT: -10.257025083      0.000      0.000
REMARK  13 active torsions:
REMARK  status: ('A' for Active; 'I' for Inactive)
REMARK    1  A    between atoms: C3_3  and  O1_4 
REMARK    2  A    between atoms: C3_3  and  C4_6 
REMARK    3  A    between atoms: C4_6  and  N1_7 
REMARK       I    between atoms: N1_7  and  C5_9 
REMARK    4  A    between atoms: C5_9  and  C6_11 
REMARK    5  A    between atoms: C6_11  and  C7_12 
REMARK    6  A    between atoms: C7_12  and  C8_13 
REMARK       I    between atoms: N2_19  and  C14_21 
REMARK    7  A    between atoms: C14_21  and  C15_23 
REMARK    8  A    between atoms: C16_24  and  C17_25 
REMARK    9  A    between atoms: C20_28  and  O4_29 
REMARK   10  A    between atoms: C20_28  and  N3_31 
REMARK   11  A    between atoms: C24_35  and  C25_36 
REMARK       I    between atoms: C25_36  and  N4_38 
REMARK   12  A    between atoms: N4_38  and  C26_39 
REMARK   13  A    between atoms: C26_39  and  C28_41 
REMARK       I    between atoms: C28_41  and  N5_43 
ROOT
HETATM    1  C4  UNL     1      -9.729  19.220 -18.010  1.00  0.00     0.119 C 
HETATM    2  C20 UNL     1      -8.902  18.349 -18.793  1.00  0.00     0.169 C 
ENDROOT
BRANCH   1   3
HETATM    3  C3  UNL     1      -9.433  19.647 -16.672  1.00  0.00     0.092 C 
HETATM    4  C2  UNL     1      -9.247  19.732 -15.301  1.00  0.00     0.008 C 
HETATM    5  C1  UNL     1      -8.756  18.395 -14.771  1.00  0.00     0.039 C 
BRANCH   3   6
HETATM    6  O1  UNL     1      -9.004  21.136 -17.014  1.00  0.00    -0.359 OA
ATOM      7  H1  UNL     1      -8.606  20.949 -17.855  1.00  0.00     0.217 HD
ENDBRANCH   3   6
ENDBRANCH   1   3
BRANCH   1   8
HETATM    8  N1  UNL     1     -10.779  20.053 -18.483  1.00  0.00    -0.316 N 
HETATM    9  C5  UNL     1     -11.505  20.710 -19.433  1.00  0.00     0.268 C 
HETATM   10  O2  UNL     1     -11.322  20.947 -20.631  1.00  0.00    -0.266 OA
ATOM     11  H1  UNL     1     -11.267  20.300 -17.622  1.00  0.00     0.169 HD
BRANCH   9  12
HETATM   12  C6  UNL     1     -12.855  21.257 -18.921  1.00  0.00     0.081 C 
HETATM   13  N2  UNL     1     -13.011  21.555 -17.668  1.00  0.00    -0.322 N 
HETATM   14  C14 UNL     1     -12.526  21.873 -16.381  1.00  0.00     0.245 C 
ATOM     15  H2  UNL     1     -14.024  21.566 -17.550  1.00  0.00     0.169 HD
HETATM   16  O3  UNL     1     -11.508  22.242 -15.927  1.00  0.00    -0.268 OA
BRANCH  12  17
HETATM   17  C7  UNL     1     -13.670  21.775 -20.043  1.00  0.00     0.067 C 
BRANCH  17  18
HETATM   18  C8  UNL     1     -14.565  22.934 -19.773  1.00  0.00    -0.009 C 
HETATM   19  C9  UNL     1     -14.944  23.816 -20.853  1.00  0.00     0.005 C 
HETATM   20  C10 UNL     1     -15.092  25.277 -20.234  1.00  0.00     0.000 C 
HETATM   21  C11 UNL     1     -16.273  25.173 -19.334  1.00  0.00     0.000 C 
HETATM   22  C12 UNL     1     -16.704  23.826 -18.897  1.00  0.00     0.000 C 
HETATM   23  C13 UNL     1     -15.669  22.755 -18.736  1.00  0.00     0.005 C 
ENDBRANCH  17  18
ENDBRANCH  12  17
BRANCH  14  24
HETATM   24  C15 UNL     1     -13.670  21.605 -15.433  1.00  0.00     0.071 C 
HETATM   25  C16 UNL     1     -14.014  21.850 -14.132  1.00  0.00    -0.017 C 
BRANCH  25  26
HETATM   26  C17 UNL     1     -13.353  21.313 -12.947  1.00  0.00    -0.000 C 
HETATM   27  C18 UNL     1     -12.558  19.998 -13.308  1.00  0.00     0.013 C 
HETATM   28  C19 UNL     1     -14.487  20.717 -12.072  1.00  0.00     0.013 C 
ENDBRANCH  25  26
ENDBRANCH  14  24
ENDBRANCH   9  12
ENDBRANCH   1   8
BRANCH   2  29
HETATM   29  O4  UNL     1      -9.575  17.680 -19.707  1.00  0.00    -0.344 OA
ATOM     30  H4  UNL     1      -9.025  17.349 -20.407  1.00  0.00     0.219 HD
ENDBRANCH   2  29
BRANCH   2  31
HETATM   31  N3  UNL     1      -7.538  18.076 -18.746  1.00  0.00    -0.345 N 
HETATM   32  C21 UNL     1      -6.429  18.894 -19.421  1.00  0.00     0.126 C 
HETATM   33  C22 UNL     1      -5.655  17.719 -20.045  1.00  0.00     0.022 C 
HETATM   34  C23 UNL     1      -5.625  16.761 -18.960  1.00  0.00     0.038 C 
HETATM   35  C24 UNL     1      -6.841  17.111 -18.068  1.00  0.00     0.193 C 
BRANCH  35  36
HETATM   36  C25 UNL     1      -7.450  15.723 -17.695  1.00  0.00     0.310 C 
HETATM   37  O5  UNL     1      -8.146  15.153 -18.441  1.00  0.00    -0.255 OA
HETATM   38  N4  UNL     1      -6.961  15.507 -16.402  1.00  0.00    -0.399 NA
BRANCH  38  39
HETATM   39  C26 UNL     1      -6.507  15.284 -15.176  1.00  0.00     0.254 C 
HETATM   40  C27 UNL     1      -7.487  14.226 -14.507  1.00  0.00     0.058 C 
BRANCH  39  41
HETATM   41  C28 UNL     1      -5.157  14.766 -14.899  1.00  0.00     0.255 C 
HETATM   42  O6  UNL     1      -5.084  13.562 -14.462  1.00  0.00    -0.270 OA
HETATM   43  N5  UNL     1      -3.921  15.399 -15.075  1.00  0.00    -0.349 N 
HETATM   44  C29 UNL     1      -2.557  14.976 -14.889  1.00  0.00     0.126 C 
HETATM   45  C32 UNL     1      -3.828  16.822 -15.497  1.00  0.00     0.126 C 
HETATM   46  C30 UNL     1      -1.730  15.789 -15.827  1.00  0.00     0.021 C 
HETATM   47  C31 UNL     1      -2.542  16.945 -16.276  1.00  0.00     0.021 C 
ENDBRANCH  39  41
ENDBRANCH  38  39
ENDBRANCH  35  36
ENDBRANCH   2  31
TORSDOF 13
ENDMDL
MODEL 2
REMARK VINA RESULT: -10.223736357      2.514      5.087
REMARK  13 active torsions:
REMARK  status: ('A' for Active; 'I' for Inactive)
REMARK    1  A    between atoms: C3_3  and  O1_4 
REMARK    2  A    between atoms: C3_3  and  C4_6 
REMARK    3  A    between atoms: C4_6  and  N1_7 
REMARK       I    between atoms: N1_7  and  C5_9 
REMARK    4  A    between atoms: C5_9  and  C6_11 
REMARK    5  A    between atoms: C6_11  and  C7_12 
REMARK    6  A    between atoms: C7_12  and  C8_13 
REMARK       I    between atoms: N2_19  and  C14_21 
REMARK    7  A    between atoms: C14_21  and  C15_23 
REMARK    8  A    between atoms: C16_24  and  C17_25 
REMARK    9  A    between atoms: C20_28  and  O4_29 
REMARK   10  A    between atoms: C20_28  and  N3_31 
REMARK   11  A    between atoms: C24_35  and  C25_36 
REMARK       I    between atoms: C25_36  and  N4_38 
REMARK   12  A    between atoms: N4_38  and  C26_39 
REMARK   13  A    between atoms: C26_39  and  C28_41 
REMARK       I    between atoms: C28_41  and  N5_43 
ROOT
HETATM    1  C4  UNL     1     -11.217  20.191 -18.338  1.00  0.00     0.119 C 
HETATM    2  C20 UNL     1     -10.659  19.499 -19.463  1.00  0.00     0.169 C 
ENDROOT
BRANCH   1   3
HETATM    3  C3  UNL     1     -10.457  20.918 -17.363  1.00  0.00     0.092 C 
HETATM    4  C2  UNL     1      -9.797  21.343 -16.220  1.00  0.00     0.008 C 
HETATM    5  C1  UNL     1      -9.188  20.145 -15.510  1.00  0.00     0.039 C 
BRANCH   3   6
HETATM    6  O1  UNL     1     -10.134  22.192 -18.252  1.00  0.00    -0.359 OA
ATOM      7  H1  UNL     1     -10.970  22.232 -18.701  1.00  0.00     0.217 HD
ENDBRANCH   3   6
ENDBRANCH   1   3
BRANCH   1   8
HETATM    8  N1  UNL     1     -12.578  20.554 -18.150  1.00  0.00    -0.316 N 
HETATM    9  C5  UNL     1     -13.913  20.316 -17.994  1.00  0.00     0.268 C 
HETATM   10  O2  UNL     1     -14.620  19.312 -18.129  1.00  0.00    -0.266 OA
ATOM     11  H1  UNL     1     -12.530  21.572 -18.106  1.00  0.00     0.169 HD
BRANCH   9  12
HETATM   12  C6  UNL     1     -14.717  21.548 -17.526  1.00  0.00     0.081 C 
HETATM   13  N2  UNL     1     -14.916  22.547 -18.330  1.00  0.00    -0.322 N 
HETATM   14  C14 UNL     1     -14.974  23.140 -19.610  1.00  0.00     0.245 C 
ATOM     15  H2  UNL     1     -15.162  23.312 -17.702  1.00  0.00     0.169 HD
HETATM   16  O3  UNL     1     -15.036  22.757 -20.718  1.00  0.00    -0.268 OA
BRANCH  12  17
HETATM   17  C7  UNL     1     -15.529  21.221 -16.332  1.00  0.00     0.067 C 
BRANCH  17  18
HETATM   18  C8  UNL     1     -14.815  21.022 -15.041  1.00  0.00    -0.009 C 
HETATM   19  C9  UNL     1     -13.586  21.736 -14.782  1.00  0.00     0.005 C 
HETATM   20  C10 UNL     1     -12.669  20.783 -13.893  1.00  0.00     0.000 C 
HETATM   21  C11 UNL     1     -13.390  20.691 -12.594  1.00  0.00     0.000 C 
HETATM   22  C12 UNL     1     -14.826  21.053 -12.564  1.00  0.00     0.000 C 
HETATM   23  C13 UNL     1     -15.656  20.811 -13.786  1.00  0.00     0.005 C 
ENDBRANCH  17  18
ENDBRANCH  12  17
BRANCH  14  24
HETATM   24  C15 UNL     1     -14.898  24.629 -19.376  1.00  0.00     0.071 C 
HETATM   25  C16 UNL     1     -15.665  25.634 -18.853  1.00  0.00    -0.017 C 
BRANCH  25  26
HETATM   26  C17 UNL     1     -16.931  26.125 -19.389  1.00  0.00    -0.000 C 
HETATM   27  C18 UNL     1     -18.114  25.170 -18.969  1.00  0.00     0.013 C 
HETATM   28  C19 UNL     1     -16.875  25.839 -20.913  1.00  0.00     0.013 C 
ENDBRANCH  25  26
ENDBRANCH  14  24
ENDBRANCH   9  12
ENDBRANCH   1   8
BRANCH   2  29
HETATM   29  O4  UNL     1     -11.411  18.502 -19.883  1.00  0.00    -0.344 OA
ATOM     30  H4  UNL     1     -11.442  18.432 -20.830  1.00  0.00     0.219 HD
ENDBRANCH   2  29
BRANCH   2  31
HETATM   31  N3  UNL     1      -9.472  19.681 -20.166  1.00  0.00    -0.345 N 
HETATM   32  C21 UNL     1      -9.094  20.915 -20.998  1.00  0.00     0.126 C 
HETATM   33  C22 UNL     1      -8.587  20.175 -22.249  1.00  0.00     0.022 C 
HETATM   34  C23 UNL     1      -7.786  19.115 -21.674  1.00  0.00     0.038 C 
HETATM   35  C24 UNL     1      -8.351  18.898 -20.249  1.00  0.00     0.193 C 
BRANCH  35  36
HETATM   36  C25 UNL     1      -8.381  17.347 -20.084  1.00  0.00     0.310 C 
HETATM   37  O5  UNL     1      -8.308  16.643 -21.014  1.00  0.00    -0.255 OA
HETATM   38  N4  UNL     1      -8.526  17.183 -18.703  1.00  0.00    -0.399 NA
BRANCH  38  39
HETATM   39  C26 UNL     1      -8.662  17.008 -17.394  1.00  0.00     0.254 C 
HETATM   40  C27 UNL     1     -10.218  17.079 -17.080  1.00  0.00     0.058 C 
BRANCH  39  41
HETATM   41  C28 UNL     1      -8.197  15.801 -16.691  1.00  0.00     0.255 C 
HETATM   42  O6  UNL     1      -7.464  14.992 -17.365  1.00  0.00    -0.270 OA
HETATM   43  N5  UNL     1      -8.419  15.419 -15.362  1.00  0.00    -0.349 N 
HETATM   44  C29 UNL     1      -7.977  14.304 -14.566  1.00  0.00     0.126 C 
HETATM   45  C32 UNL     1      -9.311  16.202 -14.466  1.00  0.00     0.126 C 
HETATM   46  C30 UNL     1      -7.970  14.772 -13.150  1.00  0.00     0.021 C 
HETATM   47  C31 UNL     1      -8.770  16.017 -13.070  1.00  0.00     0.021 C 
ENDBRANCH  39  41
ENDBRANCH  38  39
ENDBRANCH  35  36
ENDBRANCH   2  31
TORSDOF 13
ENDMDL
MODEL 3
REMARK VINA RESULT: -10.218717044      1.983      3.570
REMARK  13 active torsions:
REMARK  status: ('A' for Active; 'I' for Inactive)
REMARK    1  A    between atoms: C3_3  and  O1_4 
REMARK    2  A    between atoms: C3_3  and  C4_6 
REMARK    3  A    between atoms: C4_6  and  N1_7 
REMARK       I    between atoms: N1_7  and  C5_9 
REMARK    4  A    between atoms: C5_9  and  C6_11 
REMARK    5  A    between atoms: C6_11  and  C7_12 
REMARK    6  A    between atoms: C7_12  and  C8_13 
REMARK       I    between atoms: N2_19  and  C14_21 
REMARK    7  A    between atoms: C14_21  and  C15_23 
REMARK    8  A    between atoms: C16_24  and  C17_25 
REMARK    9  A    between atoms: C20_28  and  O4_29 
REMARK   10  A    between atoms: C20_28  and  N3_31 
REMARK   11  A    between atoms: C24_35  and  C25_36 
REMARK       I    between atoms: C25_36  and  N4_38 
REMARK   12  A    between atoms: N4_38  and  C26_39 
REMARK   13  A    between atoms: C26_39  and  C28_41 
REMARK       I    between atoms: C28_41  and  N5_43 
ROOT
HETATM    1  C4  UNL     1     -10.432  20.973 -18.258  1.00  0.00     0.119 C 
HETATM    2  C20 UNL     1      -9.293  20.290 -17.721  1.00  0.00     0.169 C 
ENDROOT
BRANCH   1   3
HETATM    3  C3  UNL     1     -10.811  20.972 -19.642  1.00  0.00     0.092 C 
HETATM    4  C2  UNL     1     -10.872  21.138 -21.017  1.00  0.00     0.008 C 
HETATM    5  C1  UNL     1      -9.476  21.023 -21.605  1.00  0.00     0.039 C 
BRANCH   3   6
HETATM    6  O1  UNL     1     -12.207  20.235 -19.479  1.00  0.00    -0.359 OA
ATOM      7  H1  UNL     1     -12.134  20.057 -18.549  1.00  0.00     0.217 HD
ENDBRANCH   3   6
ENDBRANCH   1   3
BRANCH   1   8
HETATM    8  N1  UNL     1     -11.539  21.489 -17.531  1.00  0.00    -0.316 N 
HETATM    9  C5  UNL     1     -12.240  21.805 -16.404  1.00  0.00     0.268 C 
HETATM   10  O2  UNL     1     -12.100  21.528 -15.209  1.00  0.00    -0.266 OA
ATOM     11  H1  UNL     1     -12.164  21.799 -18.274  1.00  0.00     0.169 HD
BRANCH   9  12
HETATM   12  C6  UNL     1     -13.454  22.724 -16.661  1.00  0.00     0.081 C 
HETATM   13  N2  UNL     1     -14.365  22.880 -15.749  1.00  0.00    -0.322 N 
HETATM   14  C14 UNL     1     -14.839  22.817 -14.422  1.00  0.00     0.245 C 
ATOM     15  H2  UNL     1     -15.164  23.239 -16.271  1.00  0.00     0.169 HD
HETATM   16  O3  UNL     1     -14.358  22.727 -13.354  1.00  0.00    -0.268 OA
BRANCH  12  17
HETATM   17  C7  UNL     1     -13.180  23.653 -17.780  1.00  0.00     0.067 C 
BRANCH  17  18
HETATM   18  C8  UNL     1     -14.332  24.087 -18.619  1.00  0.00    -0.009 C 
HETATM   19  C9  UNL     1     -14.539  25.493 -18.884  1.00  0.00     0.005 C 
HETATM   20  C10 UNL     1     -16.113  25.725 -18.978  1.00  0.00     0.000 C 
HETATM   21  C11 UNL     1     -16.515  24.995 -20.211  1.00  0.00     0.000 C 
HETATM   22  C12 UNL     1     -15.597  23.963 -20.745  1.00  0.00     0.000 C 
HETATM   23  C13 UNL     1     -14.740  23.195 -19.787  1.00  0.00     0.005 C 
ENDBRANCH  17  18
ENDBRANCH  12  17
BRANCH  14  24
HETATM   24  C15 UNL     1     -16.345  22.850 -14.522  1.00  0.00     0.071 C 
HETATM   25  C16 UNL     1     -17.317  22.878 -15.483  1.00  0.00    -0.017 C 
BRANCH  25  26
HETATM   26  C17 UNL     1     -17.570  23.965 -16.425  1.00  0.00    -0.000 C 
HETATM   27  C18 UNL     1     -18.393  25.116 -15.729  1.00  0.00     0.013 C 
HETATM   28  C19 UNL     1     -18.637  23.421 -17.411  1.00  0.00     0.013 C 
ENDBRANCH  25  26
ENDBRANCH  14  24
ENDBRANCH   9  12
ENDBRANCH   1   8
BRANCH   2  29
HETATM   29  O4  UNL     1      -8.835  20.837 -16.613  1.00  0.00    -0.344 OA
ATOM     30  H4  UNL     1      -8.018  21.305 -16.739  1.00  0.00     0.219 HD
ENDBRANCH   2  29
BRANCH   2  31
HETATM   31  N3  UNL     1      -8.584  19.178 -18.166  1.00  0.00    -0.345 N 
HETATM   32  C21 UNL     1      -7.583  19.149 -19.329  1.00  0.00     0.126 C 
HETATM   33  C22 UNL     1      -8.109  17.882 -20.025  1.00  0.00     0.022 C 
HETATM   34  C23 UNL     1      -8.319  16.984 -18.910  1.00  0.00     0.038 C 
HETATM   35  C24 UNL     1      -8.526  17.899 -17.678  1.00  0.00     0.193 C 
BRANCH  35  36
HETATM   36  C25 UNL     1      -9.701  17.228 -16.901  1.00  0.00     0.310 C 
HETATM   37  O5  UNL     1     -10.800  17.301 -17.295  1.00  0.00    -0.255 OA
HETATM   38  N4  UNL     1      -9.060  16.665 -15.793  1.00  0.00    -0.399 NA
BRANCH  38  39
HETATM   39  C26 UNL     1      -8.470  16.123 -14.735  1.00  0.00     0.254 C 
HETATM   40  C27 UNL     1      -9.626  15.677 -13.740  1.00  0.00     0.058 C 
BRANCH  39  41
HETATM   41  C28 UNL     1      -7.582  14.951 -14.821  1.00  0.00     0.255 C 
HETATM   42  O6  UNL     1      -8.131  13.803 -14.657  1.00  0.00    -0.270 OA
HETATM   43  N5  UNL     1      -6.209  14.909 -15.089  1.00  0.00    -0.349 N 
HETATM   44  C29 UNL     1      -5.264  13.834 -15.245  1.00  0.00     0.126 C 
HETATM   45  C32 UNL     1      -5.403  16.151 -15.224  1.00  0.00     0.126 C 
HETATM   46  C30 UNL     1      -4.182  14.347 -16.134  1.00  0.00     0.021 C 
HETATM   47  C31 UNL     1      -4.286  15.824 -16.184  1.00  0.00     0.021 C 
ENDBRANCH  39  41
ENDBRANCH  38  39
ENDBRANCH  35  36
ENDBRANCH   2  31
TORSDOF 13
ENDMDL
MODEL 4
REMARK VINA RESULT: -10.154149989      3.635     11.518
REMARK  13 active torsions:
REMARK  status: ('A' for Active; 'I' for Inactive)
REMARK    1  A    between atoms: C3_3  and  O1_4 
REMARK    2  A    between atoms: C3_3  and  C4_6 
REMARK    3  A    between atoms: C4_6  and  N1_7 
REMARK       I    between atoms: N1_7  and  C5_9 
REMARK    4  A    between atoms: C5_9  and  C6_11 
REMARK    5  A    between atoms: C6_11  and  C7_12 
REMARK    6  A    between atoms: C7_12  and  C8_13 
REMARK       I    between atoms: N2_19  and  C14_21 
REMARK    7  A    between atoms: C14_21  and  C15_23 
REMARK    8  A    between atoms: C16_24  and  C17_25 
REMARK    9  A    between atoms: C20_28  and  O4_29 
REMARK   10  A    between atoms: C20_28  and  N3_31 
REMARK   11  A    between atoms: C24_35  and  C25_36 
REMARK       I    between atoms: C25_36  and  N4_38 
REMARK   12  A    between atoms: N4_38  and  C26_39 
REMARK   13  A    between atoms: C26_39  and  C28_41 
REMARK       I    between atoms: C28_41  and  N5_43 
ROOT
HETATM    1  C4  UNL     1     -13.851  22.111 -16.621  1.00  0.00     0.119 C 
HETATM    2  C20 UNL     1     -13.649  22.785 -17.869  1.00  0.00     0.169 C 
ENDROOT
BRANCH   1   3
HETATM    3  C3  UNL     1     -15.132  21.838 -16.035  1.00  0.00     0.092 C 
HETATM    4  C2  UNL     1     -16.303  21.248 -15.583  1.00  0.00     0.008 C 
HETATM    5  C1  UNL     1     -16.017  19.824 -15.138  1.00  0.00     0.039 C 
BRANCH   3   6
HETATM    6  O1  UNL     1     -15.453  23.307 -15.530  1.00  0.00    -0.359 OA
ATOM      7  H1  UNL     1     -14.903  23.764 -16.155  1.00  0.00     0.217 HD
ENDBRANCH   3   6
ENDBRANCH   1   3
BRANCH   1   8
HETATM    8  N1  UNL     1     -12.900  21.330 -15.909  1.00  0.00    -0.316 N 
HETATM    9  C5  UNL     1     -12.426  20.632 -14.837  1.00  0.00     0.268 C 
HETATM   10  O2  UNL     1     -12.795  20.521 -13.663  1.00  0.00    -0.266 OA
ATOM     11  H1  UNL     1     -12.141  21.239 -16.585  1.00  0.00     0.169 HD
BRANCH   9  12
HETATM   12  C6  UNL     1     -11.179  19.777 -15.150  1.00  0.00     0.081 C 
HETATM   13  N2  UNL     1     -10.389  20.100 -16.127  1.00  0.00    -0.322 N 
HETATM   14  C14 UNL     1      -9.861  21.007 -17.071  1.00  0.00     0.245 C 
ATOM     15  H2  UNL     1      -9.877  19.238 -16.313  1.00  0.00     0.169 HD
HETATM   16  O3  UNL     1      -9.850  22.173 -17.211  1.00  0.00    -0.268 OA
BRANCH  12  17
HETATM   17  C7  UNL     1     -10.821  18.929 -13.990  1.00  0.00     0.067 C 
BRANCH  17  18
HETATM   18  C8  UNL     1      -9.767  17.895 -14.186  1.00  0.00    -0.009 C 
HETATM   19  C9  UNL     1      -8.376  18.244 -14.008  1.00  0.00     0.005 C 
HETATM   20  C10 UNL     1      -7.537  17.368 -15.042  1.00  0.00     0.000 C 
HETATM   21  C11 UNL     1      -7.693  15.973 -14.546  1.00  0.00     0.000 C 
HETATM   22  C12 UNL     1      -8.814  15.678 -13.625  1.00  0.00     0.000 C 
HETATM   23  C13 UNL     1     -10.081  16.466 -13.756  1.00  0.00     0.005 C 
ENDBRANCH  17  18
ENDBRANCH  12  17
BRANCH  14  24
HETATM   24  C15 UNL     1      -9.197  20.159 -18.129  1.00  0.00     0.071 C 
HETATM   25  C16 UNL     1      -8.878  20.226 -19.457  1.00  0.00    -0.017 C 
BRANCH  25  26
HETATM   26  C17 UNL     1      -9.820  20.277 -20.572  1.00  0.00    -0.000 C 
HETATM   27  C18 UNL     1      -9.051  20.188 -21.946  1.00  0.00     0.013 C 
HETATM   28  C19 UNL     1     -10.317  21.745 -20.629  1.00  0.00     0.013 C 
ENDBRANCH  25  26
ENDBRANCH  14  24
ENDBRANCH   9  12
ENDBRANCH   1   8
BRANCH   2  29
HETATM   29  O4  UNL     1     -12.482  23.390 -17.949  1.00  0.00    -0.344 OA
ATOM     30  H4  UNL     1     -12.520  24.215 -18.418  1.00  0.00     0.219 HD
ENDBRANCH   2  29
BRANCH   2  31
HETATM   31  N3  UNL     1     -14.464  22.927 -18.988  1.00  0.00    -0.345 N 
HETATM   32  C21 UNL     1     -14.343  22.141 -20.301  1.00  0.00     0.126 C 
HETATM   33  C22 UNL     1     -14.460  23.332 -21.268  1.00  0.00     0.022 C 
HETATM   34  C23 UNL     1     -15.552  24.087 -20.693  1.00  0.00     0.038 C 
HETATM   35  C24 UNL     1     -15.577  23.700 -19.194  1.00  0.00     0.193 C 
BRANCH  35  36
HETATM   36  C25 UNL     1     -15.822  25.053 -18.456  1.00  0.00     0.310 C 
HETATM   37  O5  UNL     1     -15.022  25.904 -18.481  1.00  0.00    -0.255 OA
HETATM   38  N4  UNL     1     -17.079  24.864 -17.871  1.00  0.00    -0.399 NA
BRANCH  38  39
HETATM   39  C26 UNL     1     -18.270  24.703 -17.309  1.00  0.00     0.254 C 
HETATM   40  C27 UNL     1     -18.614  23.154 -17.392  1.00  0.00     0.058 C 
BRANCH  39  41
HETATM   41  C28 UNL     1     -18.557  25.072 -15.912  1.00  0.00     0.255 C 
HETATM   42  O6  UNL     1     -18.172  24.246 -15.010  1.00  0.00    -0.270 OA
HETATM   43  N5  UNL     1     -19.174  26.229 -15.419  1.00  0.00    -0.349 N 
HETATM   44  C29 UNL     1     -19.456  26.710 -14.092  1.00  0.00     0.126 C 
HETATM   45  C32 UNL     1     -19.752  27.251 -16.331  1.00  0.00     0.126 C 
HETATM   46  C30 UNL     1     -19.499  28.198 -14.182  1.00  0.00     0.021 C 
HETATM   47  C31 UNL     1     -19.629  28.571 -15.610  1.00  0.00     0.021 C 
ENDBRANCH  39  41
ENDBRANCH  38  39
ENDBRANCH  35  36
ENDBRANCH   2  31
TORSDOF 13
ENDMDL
MODEL 5
REMARK VINA RESULT: -10.133560889      1.800      2.699
REMARK  13 active torsions:
REMARK  status: ('A' for Active; 'I' for Inactive)
REMARK    1  A    between atoms: C3_3  and  O1_4 
REMARK    2  A    between atoms: C3_3  and  C4_6 
REMARK    3  A    between atoms: C4_6  and  N1_7 
REMARK       I    between atoms: N1_7  and  C5_9 
REMARK    4  A    between atoms: C5_9  and  C6_11 
REMARK    5  A    between atoms: C6_11  and  C7_12 
REMARK    6  A    between atoms: C7_12  and  C8_13 
REMARK       I    between atoms: N2_19  and  C14_21 
REMARK    7  A    between atoms: C14_21  and  C15_23 
REMARK    8  A    between atoms: C16_24  and  C17_25 
REMARK    9  A    between atoms: C20_28  and  O4_29 
REMARK   10  A    between atoms: C20_28  and  N3_31 
REMARK   11  A    between atoms: C24_35  and  C25_36 
REMARK       I    between atoms: C25_36  and  N4_38 
REMARK   12  A    between atoms: N4_38  and  C26_39 
REMARK   13  A    between atoms: C26_39  and  C28_41 
REMARK       I    between atoms: C28_41  and  N5_43 
ROOT
HETATM    1  C4  UNL     1     -10.140  19.931 -18.645  1.00  0.00     0.119 C 
HETATM    2  C20 UNL     1      -9.052  19.472 -17.833  1.00  0.00     0.169 C 
ENDROOT
BRANCH   1   3
HETATM    3  C3  UNL     1     -10.347  19.571 -20.019  1.00  0.00     0.092 C 
HETATM    4  C2  UNL     1     -10.365  19.518 -21.404  1.00  0.00     0.008 C 
HETATM    5  C1  UNL     1      -9.056  20.063 -21.951  1.00  0.00     0.039 C 
BRANCH   3   6
HETATM    6  O1  UNL     1     -11.191  18.251 -19.769  1.00  0.00    -0.359 OA
ATOM      7  H1  UNL     1     -12.026  18.677 -19.621  1.00  0.00     0.217 HD
ENDBRANCH   3   6
ENDBRANCH   1   3
BRANCH   1   8
HETATM    8  N1  UNL     1     -11.346  20.535 -18.195  1.00  0.00    -0.316 N 
HETATM    9  C5  UNL     1     -12.691  20.600 -17.978  1.00  0.00     0.268 C 
HETATM   10  O2  UNL     1     -13.649  19.918 -18.356  1.00  0.00    -0.266 OA
ATOM     11  H1  UNL     1     -11.019  21.427 -17.823  1.00  0.00     0.169 HD
BRANCH   9  12
HETATM   12  C6  UNL     1     -13.118  21.751 -17.041  1.00  0.00     0.081 C 
HETATM   13  N2  UNL     1     -13.115  21.586 -15.754  1.00  0.00    -0.322 N 
HETATM   14  C14 UNL     1     -12.720  20.925 -14.571  1.00  0.00     0.245 C 
ATOM     15  H2  UNL     1     -13.723  22.333 -15.418  1.00  0.00     0.169 HD
HETATM   16  O3  UNL     1     -11.872  20.173 -14.265  1.00  0.00    -0.268 OA
BRANCH  12  17
HETATM   17  C7  UNL     1     -13.064  23.050 -17.749  1.00  0.00     0.067 C 
BRANCH  17  18
HETATM   18  C8  UNL     1     -14.268  23.473 -18.516  1.00  0.00    -0.009 C 
HETATM   19  C9  UNL     1     -14.372  23.158 -19.922  1.00  0.00     0.005 C 
HETATM   20  C10 UNL     1     -15.166  24.355 -20.614  1.00  0.00     0.000 C 
HETATM   21  C11 UNL     1     -16.540  24.252 -20.051  1.00  0.00     0.000 C 
HETATM   22  C12 UNL     1     -16.729  23.484 -18.799  1.00  0.00     0.000 C 
HETATM   23  C13 UNL     1     -15.615  23.449 -17.800  1.00  0.00     0.005 C 
ENDBRANCH  17  18
ENDBRANCH  12  17
BRANCH  14  24
HETATM   24  C15 UNL     1     -13.722  21.333 -13.519  1.00  0.00     0.071 C 
HETATM   25  C16 UNL     1     -14.941  20.935 -13.041  1.00  0.00    -0.017 C 
BRANCH  25  26
HETATM   26  C17 UNL     1     -16.206  20.960 -13.770  1.00  0.00    -0.000 C 
HETATM   27  C18 UNL     1     -16.091  20.119 -15.100  1.00  0.00     0.013 C 
HETATM   28  C19 UNL     1     -16.317  22.391 -14.358  1.00  0.00     0.013 C 
ENDBRANCH  25  26
ENDBRANCH  14  24
ENDBRANCH   9  12
ENDBRANCH   1   8
BRANCH   2  29
HETATM   29  O4  UNL     1      -8.753  20.299 -16.852  1.00  0.00    -0.344 OA
ATOM     30  H4  UNL     1      -7.822  20.469 -16.777  1.00  0.00     0.219 HD
ENDBRANCH   2  29
BRANCH   2  31
HETATM   31  N3  UNL     1      -8.256  18.334 -17.909  1.00  0.00    -0.345 N 
HETATM   32  C21 UNL     1      -7.310  17.966 -19.060  1.00  0.00     0.126 C 
HETATM   33  C22 UNL     1      -7.736  16.495 -19.217  1.00  0.00     0.022 C 
HETATM   34  C23 UNL     1      -7.804  16.047 -17.843  1.00  0.00     0.038 C 
HETATM   35  C24 UNL     1      -8.047  17.326 -17.004  1.00  0.00     0.193 C 
BRANCH  35  36
HETATM   36  C25 UNL     1      -9.112  16.891 -15.950  1.00  0.00     0.310 C 
HETATM   37  O5  UNL     1     -10.243  17.144 -16.101  1.00  0.00    -0.255 OA
HETATM   38  N4  UNL     1      -8.341  16.254 -14.973  1.00  0.00    -0.399 NA
BRANCH  38  39
HETATM   39  C26 UNL     1      -7.626  15.644 -14.036  1.00  0.00     0.254 C 
HETATM   40  C27 UNL     1      -8.658  14.956 -13.043  1.00  0.00     0.058 C 
BRANCH  39  41
HETATM   41  C28 UNL     1      -6.638  14.593 -14.332  1.00  0.00     0.255 C 
HETATM   42  O6  UNL     1      -6.957  13.396 -13.996  1.00  0.00    -0.270 OA
HETATM   43  N5  UNL     1      -5.394  14.710 -14.964  1.00  0.00    -0.349 N 
HETATM   44  C29 UNL     1      -4.385  13.757 -15.346  1.00  0.00     0.126 C 
HETATM   45  C32 UNL     1      -4.837  16.035 -15.345  1.00  0.00     0.126 C 
HETATM   46  C30 UNL     1      -3.664  14.348 -16.510  1.00  0.00     0.021 C 
HETATM   47  C31 UNL     1      -3.983  15.794 -16.565  1.00  0.00     0.021 C 
ENDBRANCH  39  41
ENDBRANCH  38  39
ENDBRANCH  35  36
ENDBRANCH   2  31
TORSDOF 13
ENDMDL
