MODEL 1
REMARK VINA RESULT: -9.259609738      0.000      0.000
REMARK  20 active torsions:
REMARK  status: ('A' for Active; 'I' for Inactive)
REMARK    1  A    between atoms: C2_2  and  C3_3 
REMARK    2  A    between atoms: C3_3  and  C4_4 
REMARK    3  A    between atoms: C4_4  and  C24_36 
REMARK    4  A    between atoms: N1_5  and  C5_7 
REMARK    5  A    between atoms: C5_7  and  O1_8 
REMARK    6  A    between atoms: C5_7  and  C6_10 
REMARK    7  A    between atoms: C6_10  and  N2_11 
REMARK    8  A    between atoms: C6_10  and  C20_32 
REMARK    9  A    between atoms: N2_11  and  C7_14 
REMARK   10  A    between atoms: C7_14  and  C8_15 
REMARK   11  A    between atoms: C7_14  and  C12_19 
REMARK   12  A    between atoms: C8_15  and  C9_16 
REMARK       I    between atoms: C12_19  and  N3_21 
REMARK   13  A    between atoms: N3_21  and  C13_23 
REMARK   14  A    between atoms: C13_23  and  O3_24 
REMARK   15  A    between atoms: C13_23  and  C14_26 
REMARK   16  A    between atoms: C20_32  and  C22_34 
REMARK       I    between atoms: C24_36  and  N4_38 
REMARK   17  A    between atoms: N4_38  and  C25_40 
REMARK   18  A    between atoms: C25_40  and  C27_42 
REMARK   19  A    between atoms: C27_42  and  O5_43 
REMARK   20  A    between atoms: C27_42  and  N5_45 
ROOT
HETATM    1  C6  UNL     1     -11.395  19.202 -17.482  1.00  0.00     0.264 C 
ENDROOT
BRANCH   1   2
HETATM    2  C5  UNL     1     -12.812  19.507 -17.669  1.00  0.00     0.147 C 
BRANCH   2   3
HETATM    3  N1  UNL     1     -13.899  19.490 -16.830  1.00  0.00    -0.338 N 
HETATM    4  C4  UNL     1     -14.777  20.394 -16.532  1.00  0.00     0.079 C 
ATOM      5  H1  UNL     1     -14.041  18.600 -16.353  1.00  0.00     0.167 HD
BRANCH   4   6
HETATM    6  C3  UNL     1     -15.797  19.925 -15.531  1.00  0.00     0.062 C 
BRANCH   6   7
HETATM    7  C2  UNL     1     -16.152  20.865 -14.459  1.00  0.00     0.002 C 
HETATM    8  C1  UNL     1     -15.235  20.894 -13.270  1.00  0.00     0.005 C 
ENDBRANCH   6   7
ENDBRANCH   4   6
BRANCH   4   9
HETATM    9  C24 UNL     1     -14.852  21.729 -17.037  1.00  0.00     0.264 C 
HETATM   10  O4  UNL     1     -14.257  22.707 -16.477  1.00  0.00    -0.266 OA
HETATM   11  N4  UNL     1     -15.594  22.055 -18.181  1.00  0.00    -0.344 N 
ATOM     12  H4  UNL     1     -16.092  21.337 -18.706  1.00  0.00     0.163 HD
BRANCH  11  13
HETATM   13  C25 UNL     1     -15.632  23.463 -18.599  1.00  0.00     0.155 C 
HETATM   14  C26 UNL     1     -14.901  23.533 -19.950  1.00  0.00     0.041 C 
BRANCH  13  15
HETATM   15  C27 UNL     1     -16.994  23.965 -18.702  1.00  0.00     0.136 C 
BRANCH  15  16
HETATM   16  O5  UNL     1     -17.520  24.067 -19.891  1.00  0.00    -0.348 OA
ATOM     17  H5  UNL     1     -18.151  24.760 -20.041  1.00  0.00     0.219 HD
ENDBRANCH  15  16
BRANCH  15  18
HETATM   18  N5  UNL     1     -17.804  24.354 -17.629  1.00  0.00    -0.360 N 
HETATM   19  C28 UNL     1     -17.958  23.517 -16.468  1.00  0.00     0.151 C 
HETATM   20  C29 UNL     1     -17.964  24.403 -15.245  1.00  0.00     0.187 C 
HETATM   21  O6  UNL     1     -19.022  25.332 -15.405  1.00  0.00    -0.388 OA
HETATM   22  C30 UNL     1     -18.547  26.275 -16.320  1.00  0.00     0.187 C 
HETATM   23  C31 UNL     1     -18.473  25.670 -17.708  1.00  0.00     0.151 C 
ENDBRANCH  15  18
ENDBRANCH  13  15
ENDBRANCH  11  13
ENDBRANCH   4   9
ENDBRANCH   2   3
BRANCH   2  24
HETATM   24  O1  UNL     1     -13.160  19.898 -18.896  1.00  0.00    -0.348 OA
ATOM     25  H1  UNL     1     -12.399  19.972 -19.460  1.00  0.00     0.219 HD
ENDBRANCH   2  24
ENDBRANCH   1   2
BRANCH   1  26
HETATM   26  N2  UNL     1     -11.105  17.967 -18.260  1.00  0.00    -0.050 N 
ATOM     27  H22 UNL     1     -10.949  17.162 -17.653  1.00  0.00     0.279 HD
ATOM     28  H21 UNL     1     -11.930  17.625 -18.753  1.00  0.00     0.279 HD
BRANCH  26  29
HETATM   29  C7  UNL     1      -9.956  18.196 -19.189  1.00  0.00     0.278 C 
BRANCH  29  30
HETATM   30  C8  UNL     1     -10.010  19.616 -19.525  1.00  0.00     0.046 C 
BRANCH  30  31
HETATM   31  C9  UNL     1     -10.169  20.120 -20.905  1.00  0.00    -0.020 C 
HETATM   32  C10 UNL     1     -10.275  21.675 -20.772  1.00  0.00     0.009 C 
HETATM   33  C11 UNL     1      -8.847  19.989 -21.707  1.00  0.00     0.009 C 
ENDBRANCH  30  31
ENDBRANCH  29  30
BRANCH  29  34
HETATM   34  C12 UNL     1      -8.785  17.599 -18.587  1.00  0.00     0.254 C 
HETATM   35  O2  UNL     1      -7.746  18.336 -18.548  1.00  0.00    -0.271 OA
HETATM   36  N3  UNL     1      -8.710  16.308 -18.040  1.00  0.00    -0.309 N 
ATOM     37  H3  UNL     1      -9.553  15.757 -18.200  1.00  0.00     0.170 HD
BRANCH  36  38
HETATM   38  C13 UNL     1      -7.736  15.621 -17.329  1.00  0.00     0.122 C 
BRANCH  38  39
HETATM   39  O3  UNL     1      -6.752  15.202 -18.132  1.00  0.00    -0.349 OA
ATOM     40  H3  UNL     1      -6.752  14.256 -18.213  1.00  0.00     0.219 HD
ENDBRANCH  38  39
BRANCH  38  41
HETATM   41  C14 UNL     1      -7.525  15.241 -15.964  1.00  0.00     0.060 C 
HETATM   42  C15 UNL     1      -7.716  16.365 -14.949  1.00  0.00     0.013 C 
HETATM   43  C16 UNL     1      -8.047  15.689 -13.623  1.00  0.00     0.001 C 
HETATM   44  C17 UNL     1      -7.659  14.254 -13.559  1.00  0.00     0.000 C 
HETATM   45  C18 UNL     1      -6.397  13.865 -14.250  1.00  0.00     0.001 C 
HETATM   46  C19 UNL     1      -6.284  14.484 -15.661  1.00  0.00     0.013 C 
ENDBRANCH  38  41
ENDBRANCH  36  38
ENDBRANCH  29  34
ENDBRANCH  26  29
ENDBRANCH   1  26
BRANCH   1  47
HETATM   47  C20 UNL     1     -10.958  19.021 -16.087  1.00  0.00     0.020 C 
HETATM   48  C21 UNL     1     -11.102  17.595 -15.634  1.00  0.00     0.012 C 
BRANCH  47  49
HETATM   49  C22 UNL     1      -9.689  19.695 -15.657  1.00  0.00     0.002 C 
HETATM   50  C23 UNL     1      -9.616  21.117 -16.235  1.00  0.00     0.005 C 
ENDBRANCH  47  49
ENDBRANCH   1  47
TORSDOF 20
ENDMDL
MODEL 2
REMARK VINA RESULT: -9.228687608      1.833      2.384
REMARK  20 active torsions:
REMARK  status: ('A' for Active; 'I' for Inactive)
REMARK    1  A    between atoms: C2_2  and  C3_3 
REMARK    2  A    between atoms: C3_3  and  C4_4 
REMARK    3  A    between atoms: C4_4  and  C24_36 
REMARK    4  A    between atoms: N1_5  and  C5_7 
REMARK    5  A    between atoms: C5_7  and  O1_8 
REMARK    6  A    between atoms: C5_7  and  C6_10 
REMARK    7  A    between atoms: C6_10  and  N2_11 
REMARK    8  A    between atoms: C6_10  and  C20_32 
REMARK    9  A    between atoms: N2_11  and  C7_14 
REMARK   10  A    between atoms: C7_14  and  C8_15 
REMARK   11  A    between atoms: C7_14  and  C12_19 
REMARK   12  A    between atoms: C8_15  and  C9_16 
REMARK       I    between atoms: C12_19  and  N3_21 
REMARK   13  A    between atoms: N3_21  and  C13_23 
REMARK   14  A    between atoms: C13_23  and  O3_24 
REMARK   15  A    between atoms: C13_23  and  C14_26 
REMARK   16  A    between atoms: C20_32  and  C22_34 
REMARK       I    between atoms: C24_36  and  N4_38 
REMARK   17  A    between atoms: N4_38  and  C25_40 
REMARK   18  A    between atoms: C25_40  and  C27_42 
REMARK   19  A    between atoms: C27_42  and  O5_43 
REMARK   20  A    between atoms: C27_42  and  N5_45 
ROOT
HETATM    1  C6  UNL     1     -10.527  18.596 -16.733  1.00  0.00     0.264 C 
ENDROOT
BRANCH   1   2
HETATM    2  C5  UNL     1     -11.909  19.022 -16.519  1.00  0.00     0.147 C 
BRANCH   2   3
HETATM    3  N1  UNL     1     -12.504  19.873 -15.623  1.00  0.00    -0.338 N 
HETATM    4  C4  UNL     1     -12.902  21.101 -15.727  1.00  0.00     0.079 C 
ATOM      5  H1  UNL     1     -12.663  19.462 -14.703  1.00  0.00     0.167 HD
BRANCH   4   6
HETATM    6  C3  UNL     1     -13.493  21.646 -14.455  1.00  0.00     0.062 C 
BRANCH   6   7
HETATM    7  C2  UNL     1     -13.260  20.867 -13.231  1.00  0.00     0.002 C 
HETATM    8  C1  UNL     1     -14.373  20.866 -12.222  1.00  0.00     0.005 C 
ENDBRANCH   6   7
ENDBRANCH   4   6
BRANCH   4   9
HETATM    9  C24 UNL     1     -12.826  21.941 -16.880  1.00  0.00     0.264 C 
HETATM   10  O4  UNL     1     -11.898  22.800 -17.042  1.00  0.00    -0.266 OA
HETATM   11  N4  UNL     1     -13.773  21.883 -17.912  1.00  0.00    -0.344 N 
ATOM     12  H4  UNL     1     -14.544  21.217 -17.880  1.00  0.00     0.163 HD
BRANCH  11  13
HETATM   13  C25 UNL     1     -13.621  22.813 -19.040  1.00  0.00     0.155 C 
HETATM   14  C26 UNL     1     -13.973  22.016 -20.308  1.00  0.00     0.041 C 
BRANCH  13  15
HETATM   15  C27 UNL     1     -14.467  23.988 -18.896  1.00  0.00     0.136 C 
BRANCH  15  16
HETATM   16  O5  UNL     1     -14.030  24.969 -18.155  1.00  0.00    -0.348 OA
ATOM     17  H5  UNL     1     -14.596  25.291 -17.464  1.00  0.00     0.219 HD
ENDBRANCH  15  16
BRANCH  15  18
HETATM   18  N5  UNL     1     -15.723  24.167 -19.486  1.00  0.00    -0.360 N 
HETATM   19  C28 UNL     1     -16.934  23.825 -18.786  1.00  0.00     0.151 C 
HETATM   20  C29 UNL     1     -17.966  24.887 -19.081  1.00  0.00     0.187 C 
HETATM   21  O6  UNL     1     -18.132  24.931 -20.487  1.00  0.00    -0.388 OA
HETATM   22  C30 UNL     1     -17.013  25.616 -20.968  1.00  0.00     0.187 C 
HETATM   23  C31 UNL     1     -15.773  24.752 -20.844  1.00  0.00     0.151 C 
ENDBRANCH  15  18
ENDBRANCH  13  15
ENDBRANCH  11  13
ENDBRANCH   4   9
ENDBRANCH   2   3
BRANCH   2  24
HETATM   24  O1  UNL     1     -12.806  18.505 -17.359  1.00  0.00    -0.348 OA
ATOM     25  H1  UNL     1     -13.281  17.788 -16.954  1.00  0.00     0.219 HD
ENDBRANCH   2  24
ENDBRANCH   1   2
BRANCH   1  26
HETATM   26  N2  UNL     1     -10.540  17.600 -17.838  1.00  0.00    -0.050 N 
ATOM     27  H22 UNL     1     -10.374  16.652 -17.499  1.00  0.00     0.279 HD
ATOM     28  H21 UNL     1     -11.477  17.462 -18.216  1.00  0.00     0.279 HD
BRANCH  26  29
HETATM   29  C7  UNL     1      -9.562  17.991 -18.901  1.00  0.00     0.278 C 
BRANCH  29  30
HETATM   30  C8  UNL     1      -9.710  19.436 -19.046  1.00  0.00     0.046 C 
BRANCH  30  31
HETATM   31  C9  UNL     1     -10.232  20.082 -20.268  1.00  0.00    -0.020 C 
HETATM   32  C10 UNL     1     -10.208  21.618 -19.971  1.00  0.00     0.009 C 
HETATM   33  C11 UNL     1      -9.207  19.998 -21.430  1.00  0.00     0.009 C 
ENDBRANCH  30  31
ENDBRANCH  29  30
BRANCH  29  34
HETATM   34  C12 UNL     1      -8.294  17.382 -18.570  1.00  0.00     0.254 C 
HETATM   35  O2  UNL     1      -7.259  18.067 -18.863  1.00  0.00    -0.271 OA
HETATM   36  N3  UNL     1      -8.117  16.135 -17.950  1.00  0.00    -0.309 N 
ATOM     37  H3  UNL     1      -8.988  15.617 -17.840  1.00  0.00     0.170 HD
BRANCH  36  38
HETATM   38  C13 UNL     1      -7.013  15.455 -17.455  1.00  0.00     0.122 C 
BRANCH  38  39
HETATM   39  O3  UNL     1      -6.100  15.250 -18.411  1.00  0.00    -0.349 OA
ATOM     40  H3  UNL     1      -5.385  14.711 -18.095  1.00  0.00     0.219 HD
ENDBRANCH  38  39
BRANCH  38  41
HETATM   41  C14 UNL     1      -6.611  14.914 -16.192  1.00  0.00     0.060 C 
HETATM   42  C15 UNL     1      -7.190  15.630 -14.974  1.00  0.00     0.013 C 
HETATM   43  C16 UNL     1      -7.169  14.616 -13.836  1.00  0.00     0.001 C 
HETATM   44  C17 UNL     1      -6.239  13.475 -14.055  1.00  0.00     0.000 C 
HETATM   45  C18 UNL     1      -4.957  13.775 -14.752  1.00  0.00     0.001 C 
HETATM   46  C19 UNL     1      -5.159  14.669 -15.997  1.00  0.00     0.013 C 
ENDBRANCH  38  41
ENDBRANCH  36  38
ENDBRANCH  29  34
ENDBRANCH  26  29
ENDBRANCH   1  26
BRANCH   1  47
HETATM   47  C20 UNL     1      -9.845  18.022 -15.559  1.00  0.00     0.020 C 
HETATM   48  C21 UNL     1      -9.037  19.051 -14.821  1.00  0.00     0.012 C 
BRANCH  47  49
HETATM   49  C22 UNL     1     -10.624  17.084 -14.685  1.00  0.00     0.002 C 
HETATM   50  C23 UNL     1     -10.055  17.088 -13.257  1.00  0.00     0.005 C 
ENDBRANCH  47  49
ENDBRANCH   1  47
TORSDOF 20
ENDMDL
MODEL 3
REMARK VINA RESULT: -9.217160537      1.668      3.579
REMARK  20 active torsions:
REMARK  status: ('A' for Active; 'I' for Inactive)
REMARK    1  A    between atoms: C2_2  and  C3_3 
REMARK    2  A    between atoms: C3_3  and  C4_4 
REMARK    3  A    between atoms: C4_4  and  C24_36 
REMARK    4  A    between atoms: N1_5  and  C5_7 
REMARK    5  A    between atoms: C5_7  and  O1_8 
REMARK    6  A    between atoms: C5_7  and  C6_10 
REMARK    7  A    between atoms: C6_10  and  N2_11 
REMARK    8  A    between atoms: C6_10  and  C20_32 
REMARK    9  A    between atoms: N2_11  and  C7_14 
REMARK   10  A    between atoms: C7_14  and  C8_15 
REMARK   11  A    between atoms: C7_14  and  C12_19 
REMARK   12  A    between atoms: C8_15  and  C9_16 
REMARK       I    between atoms: C12_19  and  N3_21 
REMARK   13  A    between atoms: N3_21  and  C13_23 
REMARK   14  A    between atoms: C13_23  and  O3_24 
REMARK   15  A    between atoms: C13_23  and  C14_26 
REMARK   16  A    between atoms: C20_32  and  C22_34 
REMARK       I    between atoms: C24_36  and  N4_38 
REMARK   17  A    between atoms: N4_38  and  C25_40 
REMARK   18  A    between atoms: C25_40  and  C27_42 
REMARK   19  A    between atoms: C27_42  and  O5_43 
REMARK   20  A    between atoms: C27_42  and  N5_45 
ROOT
HETATM    1  C6  UNL     1     -11.346  19.427 -18.114  1.00  0.00     0.264 C 
ENDROOT
BRANCH   1   2
HETATM    2  C5  UNL     1     -12.654  19.872 -18.590  1.00  0.00     0.147 C 
BRANCH   2   3
HETATM    3  N1  UNL     1     -13.057  20.856 -19.458  1.00  0.00    -0.338 N 
HETATM    4  C4  UNL     1     -13.754  21.933 -19.283  1.00  0.00     0.079 C 
ATOM      5  H1  UNL     1     -12.750  20.712 -20.420  1.00  0.00     0.167 HD
BRANCH   4   6
HETATM    6  C3  UNL     1     -13.967  22.717 -20.548  1.00  0.00     0.062 C 
BRANCH   6   7
HETATM    7  C2  UNL     1     -15.189  23.529 -20.627  1.00  0.00     0.002 C 
HETATM    8  C1  UNL     1     -15.027  25.001 -20.377  1.00  0.00     0.005 C 
ENDBRANCH   6   7
ENDBRANCH   4   6
BRANCH   4   9
HETATM    9  C24 UNL     1     -14.316  22.412 -18.059  1.00  0.00     0.264 C 
HETATM   10  O4  UNL     1     -13.742  23.296 -17.342  1.00  0.00    -0.266 OA
HETATM   11  N4  UNL     1     -15.535  21.936 -17.558  1.00  0.00    -0.344 N 
ATOM     12  H4  UNL     1     -16.077  21.239 -18.069  1.00  0.00     0.163 HD
BRANCH  11  13
HETATM   13  C25 UNL     1     -16.010  22.471 -16.274  1.00  0.00     0.155 C 
HETATM   14  C26 UNL     1     -17.316  23.224 -16.576  1.00  0.00     0.041 C 
BRANCH  13  15
HETATM   15  C27 UNL     1     -16.213  21.421 -15.287  1.00  0.00     0.136 C 
BRANCH  15  16
HETATM   16  O5  UNL     1     -17.406  20.904 -15.182  1.00  0.00    -0.348 OA
ATOM     17  H5  UNL     1     -17.810  20.886 -14.323  1.00  0.00     0.219 HD
ENDBRANCH  15  16
BRANCH  15  18
HETATM   18  N5  UNL     1     -15.235  20.907 -14.429  1.00  0.00    -0.360 N 
HETATM   19  C28 UNL     1     -13.876  20.726 -14.868  1.00  0.00     0.151 C 
HETATM   20  C29 UNL     1     -12.958  21.128 -13.738  1.00  0.00     0.187 C 
HETATM   21  O6  UNL     1     -13.292  20.325 -12.620  1.00  0.00    -0.388 OA
HETATM   22  C30 UNL     1     -14.470  20.876 -12.111  1.00  0.00     0.187 C 
HETATM   23  C31 UNL     1     -15.632  20.585 -13.041  1.00  0.00     0.151 C 
ENDBRANCH  15  18
ENDBRANCH  13  15
ENDBRANCH  11  13
ENDBRANCH   4   9
ENDBRANCH   2   3
BRANCH   2  24
HETATM   24  O1  UNL     1     -13.700  19.198 -18.110  1.00  0.00    -0.348 OA
ATOM     25  H1  UNL     1     -13.424  18.393 -17.688  1.00  0.00     0.219 HD
ENDBRANCH   2  24
ENDBRANCH   1   2
BRANCH   1  26
HETATM   26  N2  UNL     1     -11.007  18.185 -18.859  1.00  0.00    -0.050 N 
ATOM     27  H22 UNL     1     -11.061  17.357 -18.265  1.00  0.00     0.279 HD
ATOM     28  H21 UNL     1     -11.731  17.935 -19.532  1.00  0.00     0.279 HD
BRANCH  26  29
HETATM   29  C7  UNL     1      -9.665  18.318 -19.508  1.00  0.00     0.278 C 
BRANCH  29  30
HETATM   30  C8  UNL     1      -9.551  19.728 -19.868  1.00  0.00     0.046 C 
BRANCH  30  31
HETATM   31  C9  UNL     1      -9.928  20.263 -21.193  1.00  0.00    -0.020 C 
HETATM   32  C10 UNL     1     -10.040  21.811 -21.002  1.00  0.00     0.009 C 
HETATM   33  C11 UNL     1      -8.742  20.181 -22.191  1.00  0.00     0.009 C 
ENDBRANCH  30  31
ENDBRANCH  29  30
BRANCH  29  34
HETATM   34  C12 UNL     1      -8.701  17.669 -18.649  1.00  0.00     0.254 C 
HETATM   35  O2  UNL     1      -7.707  18.384 -18.294  1.00  0.00    -0.271 OA
HETATM   36  N3  UNL     1      -8.780  16.351 -18.173  1.00  0.00    -0.309 N 
ATOM     37  H3  UNL     1      -9.552  15.824 -18.581  1.00  0.00     0.170 HD
BRANCH  36  38
HETATM   38  C13 UNL     1      -8.035  15.610 -17.266  1.00  0.00     0.122 C 
BRANCH  38  39
HETATM   39  O3  UNL     1      -7.154  14.822 -17.890  1.00  0.00    -0.349 OA
ATOM     40  H3  UNL     1      -7.493  13.942 -17.999  1.00  0.00     0.219 HD
ENDBRANCH  38  39
BRANCH  38  41
HETATM   41  C14 UNL     1      -7.978  15.470 -15.842  1.00  0.00     0.060 C 
HETATM   42  C15 UNL     1      -7.990  16.787 -15.068  1.00  0.00     0.013 C 
HETATM   43  C16 UNL     1      -8.522  16.456 -13.677  1.00  0.00     0.001 C 
HETATM   44  C17 UNL     1      -8.436  15.014 -13.320  1.00  0.00     0.000 C 
HETATM   45  C18 UNL     1      -7.244  14.267 -13.812  1.00  0.00     0.001 C 
HETATM   46  C19 UNL     1      -6.933  14.567 -15.296  1.00  0.00     0.013 C 
ENDBRANCH  38  41
ENDBRANCH  36  38
ENDBRANCH  29  34
ENDBRANCH  26  29
ENDBRANCH   1  26
BRANCH   1  47
HETATM   47  C20 UNL     1     -11.241  19.178 -16.666  1.00  0.00     0.020 C 
HETATM   48  C21 UNL     1     -11.464  17.731 -16.328  1.00  0.00     0.012 C 
BRANCH  47  49
HETATM   49  C22 UNL     1     -10.118  19.835 -15.920  1.00  0.00     0.002 C 
HETATM   50  C23 UNL     1      -9.830  21.227 -16.505  1.00  0.00     0.005 C 
ENDBRANCH  47  49
ENDBRANCH   1  47
TORSDOF 20
ENDMDL
MODEL 4
REMARK VINA RESULT: -9.156836043      2.210      5.246
REMARK  20 active torsions:
REMARK  status: ('A' for Active; 'I' for Inactive)
REMARK    1  A    between atoms: C2_2  and  C3_3 
REMARK    2  A    between atoms: C3_3  and  C4_4 
REMARK    3  A    between atoms: C4_4  and  C24_36 
REMARK    4  A    between atoms: N1_5  and  C5_7 
REMARK    5  A    between atoms: C5_7  and  O1_8 
REMARK    6  A    between atoms: C5_7  and  C6_10 
REMARK    7  A    between atoms: C6_10  and  N2_11 
REMARK    8  A    between atoms: C6_10  and  C20_32 
REMARK    9  A    between atoms: N2_11  and  C7_14 
REMARK   10  A    between atoms: C7_14  and  C8_15 
REMARK   11  A    between atoms: C7_14  and  C12_19 
REMARK   12  A    between atoms: C8_15  and  C9_16 
REMARK       I    between atoms: C12_19  and  N3_21 
REMARK   13  A    between atoms: N3_21  and  C13_23 
REMARK   14  A    between atoms: C13_23  and  O3_24 
REMARK   15  A    between atoms: C13_23  and  C14_26 
REMARK   16  A    between atoms: C20_32  and  C22_34 
REMARK       I    between atoms: C24_36  and  N4_38 
REMARK   17  A    between atoms: N4_38  and  C25_40 
REMARK   18  A    between atoms: C25_40  and  C27_42 
REMARK   19  A    between atoms: C27_42  and  O5_43 
REMARK   20  A    between atoms: C27_42  and  N5_45 
ROOT
HETATM    1  C6  UNL     1     -11.175  20.466 -15.631  1.00  0.00     0.264 C 
ENDROOT
BRANCH   1   2
HETATM    2  C5  UNL     1     -10.687  21.506 -16.535  1.00  0.00     0.147 C 
BRANCH   2   3
HETATM    3  N1  UNL     1      -9.978  21.476 -17.710  1.00  0.00    -0.338 N 
HETATM    4  C4  UNL     1     -10.353  21.505 -18.949  1.00  0.00     0.079 C 
ATOM      5  H1  UNL     1      -8.967  21.420 -17.584  1.00  0.00     0.167 HD
BRANCH   4   6
HETATM    6  C3  UNL     1      -9.207  21.431 -19.920  1.00  0.00     0.062 C 
BRANCH   6   7
HETATM    7  C2  UNL     1      -9.072  20.187 -20.691  1.00  0.00     0.002 C 
HETATM    8  C1  UNL     1      -8.800  20.341 -22.160  1.00  0.00     0.005 C 
ENDBRANCH   6   7
ENDBRANCH   4   6
BRANCH   4   9
HETATM    9  C24 UNL     1     -11.690  21.589 -19.448  1.00  0.00     0.264 C 
HETATM   10  O4  UNL     1     -12.032  21.103 -20.576  1.00  0.00    -0.266 OA
HETATM   11  N4  UNL     1     -12.717  22.219 -18.732  1.00  0.00    -0.344 N 
ATOM     12  H4  UNL     1     -12.544  22.624 -17.812  1.00  0.00     0.163 HD
BRANCH  11  13
HETATM   13  C25 UNL     1     -14.050  22.279 -19.348  1.00  0.00     0.155 C 
HETATM   14  C26 UNL     1     -14.817  21.047 -18.839  1.00  0.00     0.041 C 
BRANCH  13  15
HETATM   15  C27 UNL     1     -14.746  23.515 -19.021  1.00  0.00     0.136 C 
BRANCH  15  16
HETATM   16  O5  UNL     1     -14.200  24.311 -18.144  1.00  0.00    -0.348 OA
ATOM     17  H5  UNL     1     -14.769  24.898 -17.661  1.00  0.00     0.219 HD
ENDBRANCH  15  16
BRANCH  15  18
HETATM   18  N5  UNL     1     -15.963  23.934 -19.569  1.00  0.00    -0.360 N 
HETATM   19  C28 UNL     1     -17.159  24.003 -18.770  1.00  0.00     0.151 C 
HETATM   20  C29 UNL     1     -17.918  25.248 -19.161  1.00  0.00     0.187 C 
HETATM   21  O6  UNL     1     -18.183  25.159 -20.549  1.00  0.00    -0.388 OA
HETATM   22  C30 UNL     1     -16.973  25.470 -21.175  1.00  0.00     0.187 C 
HETATM   23  C31 UNL     1     -15.980  24.340 -20.991  1.00  0.00     0.151 C 
ENDBRANCH  15  18
ENDBRANCH  13  15
ENDBRANCH  11  13
ENDBRANCH   4   9
ENDBRANCH   2   3
BRANCH   2  24
HETATM   24  O1  UNL     1     -10.982  22.758 -16.185  1.00  0.00    -0.348 OA
ATOM     25  H1  UNL     1     -11.346  22.791 -15.308  1.00  0.00     0.219 HD
ENDBRANCH   2  24
ENDBRANCH   1   2
BRANCH   1  26
HETATM   26  N2  UNL     1     -11.284  19.211 -16.422  1.00  0.00    -0.050 N 
ATOM     27  H22 UNL     1     -12.190  18.759 -16.296  1.00  0.00     0.279 HD
ATOM     28  H21 UNL     1     -11.346  19.397 -17.423  1.00  0.00     0.279 HD
BRANCH  26  29
HETATM   29  C7  UNL     1     -10.151  18.290 -16.095  1.00  0.00     0.278 C 
BRANCH  29  30
HETATM   30  C8  UNL     1     -10.628  17.477 -14.980  1.00  0.00     0.046 C 
BRANCH  30  31
HETATM   31  C9  UNL     1      -9.825  17.204 -13.770  1.00  0.00    -0.020 C 
HETATM   32  C10 UNL     1      -9.463  15.684 -13.842  1.00  0.00     0.009 C 
HETATM   33  C11 UNL     1      -8.413  17.841 -13.877  1.00  0.00     0.009 C 
ENDBRANCH  30  31
ENDBRANCH  29  30
BRANCH  29  34
HETATM   34  C12 UNL     1      -9.701  17.699 -17.334  1.00  0.00     0.254 C 
HETATM   35  O2  UNL     1     -10.380  18.001 -18.370  1.00  0.00    -0.271 OA
HETATM   36  N3  UNL     1      -8.591  16.853 -17.486  1.00  0.00    -0.309 N 
ATOM     37  H3  UNL     1      -8.166  16.588 -16.598  1.00  0.00     0.170 HD
BRANCH  36  38
HETATM   38  C13 UNL     1      -7.948  16.298 -18.583  1.00  0.00     0.122 C 
BRANCH  38  39
HETATM   39  O3  UNL     1      -8.042  14.964 -18.580  1.00  0.00    -0.349 OA
ATOM     40  H3  UNL     1      -8.831  14.673 -19.021  1.00  0.00     0.219 HD
ENDBRANCH  38  39
BRANCH  38  41
HETATM   41  C14 UNL     1      -7.207  16.789 -19.706  1.00  0.00     0.060 C 
HETATM   42  C15 UNL     1      -6.406  18.061 -19.439  1.00  0.00     0.013 C 
HETATM   43  C16 UNL     1      -5.278  18.076 -20.465  1.00  0.00     0.001 C 
HETATM   44  C17 UNL     1      -5.516  17.197 -21.643  1.00  0.00     0.000 C 
HETATM   45  C18 UNL     1      -6.917  17.101 -22.140  1.00  0.00     0.001 C 
HETATM   46  C19 UNL     1      -7.936  16.905 -20.994  1.00  0.00     0.013 C 
ENDBRANCH  38  41
ENDBRANCH  36  38
ENDBRANCH  29  34
ENDBRANCH  26  29
ENDBRANCH   1  26
BRANCH   1  47
HETATM   47  C20 UNL     1     -12.461  20.746 -14.969  1.00  0.00     0.020 C 
HETATM   48  C21 UNL     1     -13.627  20.237 -15.769  1.00  0.00     0.012 C 
BRANCH  47  49
HETATM   49  C22 UNL     1     -12.556  20.505 -13.491  1.00  0.00     0.002 C 
HETATM   50  C23 UNL     1     -13.780  21.230 -12.909  1.00  0.00     0.005 C 
ENDBRANCH  47  49
ENDBRANCH   1  47
TORSDOF 20
ENDMDL
MODEL 5
REMARK VINA RESULT: -9.135358592      2.379     10.445
REMARK  20 active torsions:
REMARK  status: ('A' for Active; 'I' for Inactive)
REMARK    1  A    between atoms: C2_2  and  C3_3 
REMARK    2  A    between atoms: C3_3  and  C4_4 
REMARK    3  A    between atoms: C4_4  and  C24_36 
REMARK    4  A    between atoms: N1_5  and  C5_7 
REMARK    5  A    between atoms: C5_7  and  O1_8 
REMARK    6  A    between atoms: C5_7  and  C6_10 
REMARK    7  A    between atoms: C6_10  and  N2_11 
REMARK    8  A    between atoms: C6_10  and  C20_32 
REMARK    9  A    between atoms: N2_11  and  C7_14 
REMARK   10  A    between atoms: C7_14  and  C8_15 
REMARK   11  A    between atoms: C7_14  and  C12_19 
REMARK   12  A    between atoms: C8_15  and  C9_16 
REMARK       I    between atoms: C12_19  and  N3_21 
REMARK   13  A    between atoms: N3_21  and  C13_23 
REMARK   14  A    between atoms: C13_23  and  O3_24 
REMARK   15  A    between atoms: C13_23  and  C14_26 
REMARK   16  A    between atoms: C20_32  and  C22_34 
REMARK       I    between atoms: C24_36  and  N4_38 
REMARK   17  A    between atoms: N4_38  and  C25_40 
REMARK   18  A    between atoms: C25_40  and  C27_42 
REMARK   19  A    between atoms: C27_42  and  O5_43 
REMARK   20  A    between atoms: C27_42  and  N5_45 
ROOT
HETATM    1  C6  UNL     1     -11.193  18.894 -16.132  1.00  0.00     0.264 C 
ENDROOT
BRANCH   1   2
HETATM    2  C5  UNL     1     -10.680  18.510 -17.446  1.00  0.00     0.147 C 
BRANCH   2   3
HETATM    3  N1  UNL     1     -10.046  19.201 -18.448  1.00  0.00    -0.338 N 
HETATM    4  C4  UNL     1      -8.916  19.010 -19.052  1.00  0.00     0.079 C 
ATOM      5  H1  UNL     1     -10.560  20.018 -18.780  1.00  0.00     0.167 HD
BRANCH   4   6
HETATM    6  C3  UNL     1      -8.614  20.051 -20.095  1.00  0.00     0.062 C 
BRANCH   6   7
HETATM    7  C2  UNL     1      -9.676  20.339 -21.069  1.00  0.00     0.002 C 
HETATM    8  C1  UNL     1     -10.148  21.763 -21.136  1.00  0.00     0.005 C 
ENDBRANCH   6   7
ENDBRANCH   4   6
BRANCH   4   9
HETATM    9  C24 UNL     1      -7.978  17.956 -18.821  1.00  0.00     0.264 C 
HETATM   10  O4  UNL     1      -8.214  16.747 -19.148  1.00  0.00    -0.266 OA
HETATM   11  N4  UNL     1      -6.736  18.181 -18.212  1.00  0.00    -0.344 N 
ATOM     12  H4  UNL     1      -6.451  19.118 -17.929  1.00  0.00     0.163 HD
BRANCH  11  13
HETATM   13  C25 UNL     1      -5.858  17.023 -17.991  1.00  0.00     0.155 C 
HETATM   14  C26 UNL     1      -4.467  17.433 -18.503  1.00  0.00     0.041 C 
BRANCH  13  15
HETATM   15  C27 UNL     1      -5.817  16.628 -16.591  1.00  0.00     0.136 C 
BRANCH  15  16
HETATM   16  O5  UNL     1      -5.184  17.405 -15.755  1.00  0.00    -0.348 OA
ATOM     17  H5  UNL     1      -5.287  17.236 -14.826  1.00  0.00     0.219 HD
ENDBRANCH  15  16
BRANCH  15  18
HETATM   18  N5  UNL     1      -6.401  15.478 -16.050  1.00  0.00    -0.360 N 
HETATM   19  C28 UNL     1      -5.597  14.371 -15.602  1.00  0.00     0.151 C 
HETATM   20  C29 UNL     1      -6.202  13.834 -14.326  1.00  0.00     0.187 C 
HETATM   21  O6  UNL     1      -7.538  13.466 -14.619  1.00  0.00    -0.388 OA
HETATM   22  C30 UNL     1      -8.247  14.670 -14.673  1.00  0.00     0.187 C 
HETATM   23  C31 UNL     1      -7.874  15.444 -15.921  1.00  0.00     0.151 C 
ENDBRANCH  15  18
ENDBRANCH  13  15
ENDBRANCH  11  13
ENDBRANCH   4   9
ENDBRANCH   2   3
BRANCH   2  24
HETATM   24  O1  UNL     1     -10.830  17.225 -17.770  1.00  0.00    -0.348 OA
ATOM     25  H1  UNL     1     -10.168  16.688 -17.352  1.00  0.00     0.219 HD
ENDBRANCH   2  24
ENDBRANCH   1   2
BRANCH   1  26
HETATM   26  N2  UNL     1     -11.606  20.320 -16.221  1.00  0.00    -0.050 N 
ATOM     27  H22 UNL     1     -11.404  20.829 -15.360  1.00  0.00     0.279 HD
ATOM     28  H21 UNL     1     -11.007  20.851 -16.853  1.00  0.00     0.279 HD
BRANCH  26  29
HETATM   29  C7  UNL     1     -13.048  20.421 -16.604  1.00  0.00     0.278 C 
BRANCH  29  30
HETATM   30  C8  UNL     1     -13.765  20.626 -15.349  1.00  0.00     0.046 C 
BRANCH  30  31
HETATM   31  C9  UNL     1     -13.289  21.524 -14.277  1.00  0.00    -0.020 C 
HETATM   32  C10 UNL     1     -14.424  22.584 -14.084  1.00  0.00     0.009 C 
HETATM   33  C11 UNL     1     -13.319  20.817 -12.895  1.00  0.00     0.009 C 
ENDBRANCH  30  31
ENDBRANCH  29  30
BRANCH  29  34
HETATM   34  C12 UNL     1     -13.143  21.360 -17.698  1.00  0.00     0.254 C 
HETATM   35  O2  UNL     1     -12.035  21.699 -18.233  1.00  0.00    -0.271 OA
HETATM   36  N3  UNL     1     -14.329  21.901 -18.218  1.00  0.00    -0.309 N 
ATOM     37  H3  UNL     1     -15.154  21.652 -17.673  1.00  0.00     0.170 HD
BRANCH  36  38
HETATM   38  C13 UNL     1     -14.622  22.701 -19.314  1.00  0.00     0.122 C 
BRANCH  38  39
HETATM   39  O3  UNL     1     -13.985  22.277 -20.410  1.00  0.00    -0.349 OA
ATOM     40  H3  UNL     1     -14.245  22.776 -21.175  1.00  0.00     0.219 HD
ENDBRANCH  38  39
BRANCH  38  41
HETATM   41  C14 UNL     1     -15.421  23.862 -19.563  1.00  0.00     0.060 C 
HETATM   42  C15 UNL     1     -15.568  24.236 -21.036  1.00  0.00     0.013 C 
HETATM   43  C16 UNL     1     -16.857  25.044 -21.143  1.00  0.00     0.001 C 
HETATM   44  C17 UNL     1     -17.327  25.613 -19.851  1.00  0.00     0.000 C 
HETATM   45  C18 UNL     1     -16.280  26.083 -18.901  1.00  0.00     0.001 C 
HETATM   46  C19 UNL     1     -15.119  25.073 -18.757  1.00  0.00     0.013 C 
ENDBRANCH  38  41
ENDBRANCH  36  38
ENDBRANCH  29  34
ENDBRANCH  26  29
ENDBRANCH   1  26
BRANCH   1  47
HETATM   47  C20 UNL     1     -10.261  18.719 -15.005  1.00  0.00     0.020 C 
HETATM   48  C21 UNL     1     -10.545  17.462 -14.231  1.00  0.00     0.012 C 
BRANCH  47  49
HETATM   49  C22 UNL     1      -8.806  18.995 -15.248  1.00  0.00     0.002 C 
HETATM   50  C23 UNL     1      -7.969  18.560 -14.035  1.00  0.00     0.005 C 
ENDBRANCH  47  49
ENDBRANCH   1  47
TORSDOF 20
ENDMDL
