MODEL 1
REMARK VINA RESULT: -10.405309670      0.000      0.000
REMARK  15 active torsions:
REMARK  status: ('A' for Active; 'I' for Inactive)
REMARK    1  A    between atoms: C2_2  and  C3_3 
REMARK    2  A    between atoms: C3_3  and  C4_4 
REMARK    3  A    between atoms: C4_4  and  N1_5 
REMARK    4  A    between atoms: C4_4  and  C25_40 
REMARK       I    between atoms: N1_5  and  C5_7 
REMARK    5  A    between atoms: C5_7  and  C6_9 
REMARK    6  A    between atoms: C6_9  and  C7_10 
REMARK    7  A    between atoms: C6_9  and  N2_17 
REMARK    8  A    between atoms: C7_10  and  C8_11 
REMARK       I    between atoms: N2_17  and  C14_19 
REMARK    9  A    between atoms: C14_19  and  C15_21 
REMARK       I    between atoms: N3_25  and  C19_26 
REMARK   10  A    between atoms: C19_26  and  C20_28 
REMARK   11  A    between atoms: C20_28  and  C21_29 
REMARK   12  A    between atoms: C20_28  and  N4_33 
REMARK   13  A    between atoms: C21_29  and  C22_30 
REMARK   14  A    between atoms: N4_33  and  N5_35 
REMARK       I    between atoms: C25_40  and  N7_42 
REMARK   15  A    between atoms: C29_46  and  C30_47 
ROOT
HETATM    1  C6  UNL     1     -13.719  22.908 -17.753  1.00  0.00     0.177 C 
ENDROOT
BRANCH   1   2
HETATM    2  C5  UNL     1     -14.180  22.747 -16.290  1.00  0.00     0.241 C 
HETATM    3  N1  UNL     1     -15.542  22.894 -16.027  1.00  0.00    -0.346 N 
ATOM      4  H1  UNL     1     -16.175  23.105 -16.798  1.00  0.00     0.163 HD
HETATM    5  O1  UNL     1     -13.350  22.502 -15.424  1.00  0.00    -0.271 OA
BRANCH   3   6
HETATM    6  C4  UNL     1     -16.094  22.754 -14.669  1.00  0.00     0.176 C 
BRANCH   6   7
HETATM    7  C3  UNL     1     -16.633  21.380 -14.515  1.00  0.00     0.034 C 
BRANCH   7   8
HETATM    8  C2  UNL     1     -15.758  20.504 -13.684  1.00  0.00    -0.002 C 
HETATM    9  C1  UNL     1     -14.938  21.279 -12.664  1.00  0.00     0.005 C 
ENDBRANCH   7   8
ENDBRANCH   6   7
BRANCH   6  10
HETATM   10  C25 UNL     1     -17.144  23.828 -14.528  1.00  0.00     0.243 C 
HETATM   11  O4  UNL     1     -18.107  23.871 -15.332  1.00  0.00    -0.271 OA
HETATM   12  N7  UNL     1     -17.083  24.811 -13.508  1.00  0.00    -0.337 N 
HETATM   13  C26 UNL     1     -16.010  24.859 -12.518  1.00  0.00     0.127 C 
HETATM   14  C29 UNL     1     -17.991  25.912 -13.265  1.00  0.00     0.176 C 
HETATM   15  C27 UNL     1     -15.937  26.333 -12.148  1.00  0.00     0.022 C 
HETATM   16  C28 UNL     1     -17.389  26.691 -12.133  1.00  0.00     0.036 C 
BRANCH  14  17
HETATM   17  C30 UNL     1     -19.374  25.502 -12.992  1.00  0.00     0.254 C 
HETATM   18  N8  UNL     1     -19.639  24.462 -12.072  1.00  0.00    -0.060 NA
HETATM   19  O5  UNL     1     -20.329  26.061 -13.563  1.00  0.00    -0.275 OA
ENDBRANCH  14  17
ENDBRANCH   6  10
ENDBRANCH   3   6
ENDBRANCH   1   2
BRANCH   1  20
HETATM   20  C7  UNL     1     -14.064  24.237 -18.225  1.00  0.00     0.039 C 
BRANCH  20  21
HETATM   21  C8  UNL     1     -15.263  24.400 -19.080  1.00  0.00    -0.012 C 
HETATM   22  C9  UNL     1     -15.898  25.780 -18.787  1.00  0.00     0.005 C 
HETATM   23  C10 UNL     1     -17.205  25.833 -19.516  1.00  0.00     0.000 C 
HETATM   24  C11 UNL     1     -16.970  25.730 -21.027  1.00  0.00     0.000 C 
HETATM   25  C12 UNL     1     -16.314  24.442 -21.333  1.00  0.00     0.000 C 
HETATM   26  C13 UNL     1     -15.023  24.292 -20.542  1.00  0.00     0.005 C 
ENDBRANCH  20  21
ENDBRANCH   1  20
BRANCH   1  27
HETATM   27  N2  UNL     1     -12.271  22.666 -17.699  1.00  0.00    -0.346 N 
HETATM   28  C14 UNL     1     -11.708  21.702 -18.588  1.00  0.00     0.241 C 
HETATM   29  O2  UNL     1     -12.394  21.083 -19.393  1.00  0.00    -0.271 OA
ATOM     30  H2  UNL     1     -11.681  23.175 -17.041  1.00  0.00     0.163 HD
BRANCH  28  31
HETATM   31  C15 UNL     1     -10.230  21.504 -18.458  1.00  0.00     0.179 C 
HETATM   32  C16 UNL     1      -9.535  21.740 -19.757  1.00  0.00     0.037 C 
HETATM   33  C17 UNL     1      -9.054  20.369 -20.182  1.00  0.00     0.022 C 
HETATM   34  C18 UNL     1      -8.788  19.694 -18.846  1.00  0.00     0.127 C 
HETATM   35  N3  UNL     1      -9.852  20.208 -17.999  1.00  0.00    -0.337 N 
HETATM   36  C19 UNL     1     -10.422  19.533 -16.866  1.00  0.00     0.244 C 
HETATM   37  O3  UNL     1     -11.322  20.095 -16.201  1.00  0.00    -0.271 OA
BRANCH  36  38
HETATM   38  C20 UNL     1      -9.989  18.171 -16.437  1.00  0.00     0.193 C 
BRANCH  38  39
HETATM   39  C21 UNL     1     -10.461  17.935 -15.021  1.00  0.00     0.040 C 
BRANCH  39  40
HETATM   40  C22 UNL     1      -9.357  17.610 -14.052  1.00  0.00    -0.020 C 
HETATM   41  C23 UNL     1      -8.048  18.300 -14.332  1.00  0.00     0.009 C 
HETATM   42  C24 UNL     1      -9.092  16.117 -14.024  1.00  0.00     0.009 C 
ENDBRANCH  39  40
ENDBRANCH  38  39
BRANCH  38  43
HETATM   43  N4  UNL     1     -10.640  17.171 -17.297  1.00  0.00    -0.309 N 
ATOM     44  H4  UNL     1     -10.159  16.306 -17.541  1.00  0.00     0.182 HD
BRANCH  43  45
HETATM   45  N5  UNL     1     -11.797  17.398 -17.725  1.00  0.00    -0.253 N 
HETATM   46  N6  UNL     1     -12.708  17.922 -18.404  1.00  0.00    -0.331 N 
ATOM     47  H62 UNL     1     -12.123  18.566 -18.937  1.00  0.00     0.178 HD
ATOM     48  H61 UNL     1     -13.648  18.106 -18.753  1.00  0.00     0.178 HD
ATOM     49  H5  UNL     1     -12.336  16.736 -17.166  1.00  0.00     0.207 HD
ENDBRANCH  43  45
ENDBRANCH  38  43
ENDBRANCH  36  38
ENDBRANCH  28  31
ENDBRANCH   1  27
TORSDOF 15
ENDMDL
MODEL 2
REMARK VINA RESULT: -9.713437952      3.086     10.655
REMARK  15 active torsions:
REMARK  status: ('A' for Active; 'I' for Inactive)
REMARK    1  A    between atoms: C2_2  and  C3_3 
REMARK    2  A    between atoms: C3_3  and  C4_4 
REMARK    3  A    between atoms: C4_4  and  N1_5 
REMARK    4  A    between atoms: C4_4  and  C25_40 
REMARK       I    between atoms: N1_5  and  C5_7 
REMARK    5  A    between atoms: C5_7  and  C6_9 
REMARK    6  A    between atoms: C6_9  and  C7_10 
REMARK    7  A    between atoms: C6_9  and  N2_17 
REMARK    8  A    between atoms: C7_10  and  C8_11 
REMARK       I    between atoms: N2_17  and  C14_19 
REMARK    9  A    between atoms: C14_19  and  C15_21 
REMARK       I    between atoms: N3_25  and  C19_26 
REMARK   10  A    between atoms: C19_26  and  C20_28 
REMARK   11  A    between atoms: C20_28  and  C21_29 
REMARK   12  A    between atoms: C20_28  and  N4_33 
REMARK   13  A    between atoms: C21_29  and  C22_30 
REMARK   14  A    between atoms: N4_33  and  N5_35 
REMARK       I    between atoms: C25_40  and  N7_42 
REMARK   15  A    between atoms: C29_46  and  C30_47 
ROOT
HETATM    1  C6  UNL     1      -9.851  19.439 -15.674  1.00  0.00     0.177 C 
ENDROOT
BRANCH   1   2
HETATM    2  C5  UNL     1      -9.540  20.003 -17.075  1.00  0.00     0.241 C 
HETATM    3  N1  UNL     1      -9.596  19.116 -18.151  1.00  0.00    -0.346 N 
ATOM      4  H1  UNL     1      -9.833  18.140 -17.975  1.00  0.00     0.163 HD
HETATM    5  O1  UNL     1      -9.257  21.188 -17.195  1.00  0.00    -0.271 OA
BRANCH   3   6
HETATM    6  C4  UNL     1      -9.325  19.546 -19.532  1.00  0.00     0.176 C 
BRANCH   6   7
HETATM    7  C3  UNL     1     -10.616  19.855 -20.195  1.00  0.00     0.034 C 
BRANCH   7   8
HETATM    8  C2  UNL     1     -10.889  21.319 -20.282  1.00  0.00    -0.002 C 
HETATM    9  C1  UNL     1     -12.374  21.643 -20.346  1.00  0.00     0.005 C 
ENDBRANCH   7   8
ENDBRANCH   6   7
BRANCH   6  10
HETATM   10  C25 UNL     1      -8.571  18.415 -20.186  1.00  0.00     0.243 C 
HETATM   11  O4  UNL     1      -9.196  17.533 -20.824  1.00  0.00    -0.271 OA
HETATM   12  N7  UNL     1      -7.160  18.304 -20.104  1.00  0.00    -0.337 N 
HETATM   13  C26 UNL     1      -6.330  19.271 -19.390  1.00  0.00     0.127 C 
HETATM   14  C29 UNL     1      -6.306  17.270 -20.649  1.00  0.00     0.176 C 
HETATM   15  C27 UNL     1      -5.122  18.451 -18.961  1.00  0.00     0.022 C 
HETATM   16  C28 UNL     1      -4.922  17.594 -20.171  1.00  0.00     0.036 C 
BRANCH  14  17
HETATM   17  C30 UNL     1      -6.380  17.137 -22.110  1.00  0.00     0.254 C 
HETATM   18  N8  UNL     1      -7.112  16.076 -22.690  1.00  0.00    -0.060 NA
HETATM   19  O5  UNL     1      -5.804  17.952 -22.854  1.00  0.00    -0.275 OA
ENDBRANCH  14  17
ENDBRANCH   6  10
ENDBRANCH   3   6
ENDBRANCH   1   2
BRANCH   1  20
HETATM   20  C7  UNL     1      -8.609  19.211 -14.957  1.00  0.00     0.039 C 
BRANCH  20  21
HETATM   21  C8  UNL     1      -8.363  17.873 -14.369  1.00  0.00    -0.012 C 
HETATM   22  C9  UNL     1      -9.698  17.092 -14.338  1.00  0.00     0.005 C 
HETATM   23  C10 UNL     1      -9.458  15.831 -13.567  1.00  0.00     0.000 C 
HETATM   24  C11 UNL     1      -8.417  14.965 -14.284  1.00  0.00     0.000 C 
HETATM   25  C12 UNL     1      -7.144  15.706 -14.377  1.00  0.00     0.000 C 
HETATM   26  C13 UNL     1      -7.349  17.046 -15.070  1.00  0.00     0.005 C 
ENDBRANCH  20  21
ENDBRANCH   1  20
BRANCH   1  27
HETATM   27  N2  UNL     1     -10.700  20.467 -15.057  1.00  0.00    -0.346 N 
HETATM   28  C14 UNL     1     -12.109  20.243 -15.001  1.00  0.00     0.241 C 
HETATM   29  O2  UNL     1     -12.622  19.221 -15.443  1.00  0.00    -0.271 OA
ATOM     30  H2  UNL     1     -10.293  21.321 -14.678  1.00  0.00     0.163 HD
BRANCH  28  31
HETATM   31  C15 UNL     1     -12.903  21.345 -14.371  1.00  0.00     0.179 C 
HETATM   32  C16 UNL     1     -13.511  20.907 -13.081  1.00  0.00     0.037 C 
HETATM   33  C17 UNL     1     -14.996  20.842 -13.368  1.00  0.00     0.022 C 
HETATM   34  C18 UNL     1     -15.172  21.941 -14.402  1.00  0.00     0.127 C 
HETATM   35  N3  UNL     1     -13.954  21.850 -15.192  1.00  0.00    -0.337 N 
HETATM   36  C19 UNL     1     -13.819  22.225 -16.571  1.00  0.00     0.244 C 
HETATM   37  O3  UNL     1     -12.705  22.120 -17.134  1.00  0.00    -0.271 OA
BRANCH  36  38
HETATM   38  C20 UNL     1     -14.960  22.743 -17.382  1.00  0.00     0.193 C 
BRANCH  38  39
HETATM   39  C21 UNL     1     -14.443  23.799 -18.331  1.00  0.00     0.040 C 
BRANCH  39  40
HETATM   40  C22 UNL     1     -15.459  24.273 -19.335  1.00  0.00    -0.020 C 
HETATM   41  C23 UNL     1     -15.027  24.156 -20.773  1.00  0.00     0.009 C 
HETATM   42  C24 UNL     1     -15.824  25.723 -19.082  1.00  0.00     0.009 C 
ENDBRANCH  39  40
ENDBRANCH  38  39
BRANCH  38  43
HETATM   43  N4  UNL     1     -15.505  21.643 -18.194  1.00  0.00    -0.309 N 
ATOM     44  H4  UNL     1     -16.227  21.823 -18.891  1.00  0.00     0.182 HD
BRANCH  43  45
HETATM   45  N5  UNL     1     -15.068  20.482 -18.015  1.00  0.00    -0.253 N 
HETATM   46  N6  UNL     1     -14.366  19.460 -18.187  1.00  0.00    -0.331 N 
ATOM     47  H62 UNL     1     -13.804  19.812 -18.961  1.00  0.00     0.178 HD
ATOM     48  H61 UNL     1     -14.010  18.515 -18.042  1.00  0.00     0.178 HD
ATOM     49  H5  UNL     1     -15.656  20.177 -17.240  1.00  0.00     0.207 HD
ENDBRANCH  43  45
ENDBRANCH  38  43
ENDBRANCH  36  38
ENDBRANCH  28  31
ENDBRANCH   1  27
TORSDOF 15
ENDMDL
MODEL 3
REMARK VINA RESULT: -9.479763116      2.298      5.705
REMARK  15 active torsions:
REMARK  status: ('A' for Active; 'I' for Inactive)
REMARK    1  A    between atoms: C2_2  and  C3_3 
REMARK    2  A    between atoms: C3_3  and  C4_4 
REMARK    3  A    between atoms: C4_4  and  N1_5 
REMARK    4  A    between atoms: C4_4  and  C25_40 
REMARK       I    between atoms: N1_5  and  C5_7 
REMARK    5  A    between atoms: C5_7  and  C6_9 
REMARK    6  A    between atoms: C6_9  and  C7_10 
REMARK    7  A    between atoms: C6_9  and  N2_17 
REMARK    8  A    between atoms: C7_10  and  C8_11 
REMARK       I    between atoms: N2_17  and  C14_19 
REMARK    9  A    between atoms: C14_19  and  C15_21 
REMARK       I    between atoms: N3_25  and  C19_26 
REMARK   10  A    between atoms: C19_26  and  C20_28 
REMARK   11  A    between atoms: C20_28  and  C21_29 
REMARK   12  A    between atoms: C20_28  and  N4_33 
REMARK   13  A    between atoms: C21_29  and  C22_30 
REMARK   14  A    between atoms: N4_33  and  N5_35 
REMARK       I    between atoms: C25_40  and  N7_42 
REMARK   15  A    between atoms: C29_46  and  C30_47 
ROOT
HETATM    1  C6  UNL     1     -11.675  20.528 -14.950  1.00  0.00     0.177 C 
ENDROOT
BRANCH   1   2
HETATM    2  C5  UNL     1     -12.919  21.028 -14.191  1.00  0.00     0.241 C 
HETATM    3  N1  UNL     1     -13.873  21.739 -14.919  1.00  0.00    -0.346 N 
ATOM      4  H1  UNL     1     -13.713  21.905 -15.913  1.00  0.00     0.163 HD
HETATM    5  O1  UNL     1     -13.027  20.792 -12.994  1.00  0.00    -0.271 OA
BRANCH   3   6
HETATM    6  C4  UNL     1     -15.104  22.257 -14.299  1.00  0.00     0.176 C 
BRANCH   6   7
HETATM    7  C3  UNL     1     -15.852  21.120 -13.708  1.00  0.00     0.034 C 
BRANCH   7   8
HETATM    8  C2  UNL     1     -16.714  20.414 -14.700  1.00  0.00    -0.002 C 
HETATM    9  C1  UNL     1     -15.944  19.414 -15.550  1.00  0.00     0.005 C 
ENDBRANCH   7   8
ENDBRANCH   6   7
BRANCH   6  10
HETATM   10  C25 UNL     1     -15.861  22.969 -15.393  1.00  0.00     0.243 C 
HETATM   11  O4  UNL     1     -15.539  22.792 -16.593  1.00  0.00    -0.271 OA
HETATM   12  N7  UNL     1     -16.938  23.847 -15.114  1.00  0.00    -0.337 N 
HETATM   13  C26 UNL     1     -17.400  24.128 -13.758  1.00  0.00     0.127 C 
HETATM   14  C29 UNL     1     -17.734  24.617 -16.047  1.00  0.00     0.176 C 
HETATM   15  C27 UNL     1     -17.985  25.529 -13.867  1.00  0.00     0.022 C 
HETATM   16  C28 UNL     1     -18.654  25.450 -15.203  1.00  0.00     0.036 C 
BRANCH  14  17
HETATM   17  C30 UNL     1     -18.457  23.806 -17.034  1.00  0.00     0.254 C 
HETATM   18  N8  UNL     1     -18.352  24.103 -18.412  1.00  0.00    -0.060 NA
HETATM   19  O5  UNL     1     -19.168  22.849 -16.674  1.00  0.00    -0.275 OA
ENDBRANCH  14  17
ENDBRANCH   6  10
ENDBRANCH   3   6
ENDBRANCH   1   2
BRANCH   1  20
HETATM   20  C7  UNL     1     -11.585  19.083 -14.835  1.00  0.00     0.039 C 
BRANCH  20  21
HETATM   21  C8  UNL     1     -10.351  18.490 -14.268  1.00  0.00    -0.012 C 
HETATM   22  C9  UNL     1     -10.457  16.949 -14.356  1.00  0.00     0.005 C 
HETATM   23  C10 UNL     1      -9.293  16.380 -13.605  1.00  0.00     0.000 C 
HETATM   24  C11 UNL     1      -7.979  16.805 -14.268  1.00  0.00     0.000 C 
HETATM   25  C12 UNL     1      -7.874  18.278 -14.247  1.00  0.00     0.000 C 
HETATM   26  C13 UNL     1      -9.084  18.914 -14.916  1.00  0.00     0.005 C 
ENDBRANCH  20  21
ENDBRANCH   1  20
BRANCH   1  27
HETATM   27  N2  UNL     1     -11.889  20.991 -16.329  1.00  0.00    -0.346 N 
HETATM   28  C14 UNL     1     -10.982  21.949 -16.874  1.00  0.00     0.241 C 
HETATM   29  O2  UNL     1     -10.034  22.386 -16.231  1.00  0.00    -0.271 OA
ATOM     30  H2  UNL     1     -12.668  20.636 -16.883  1.00  0.00     0.163 HD
BRANCH  28  31
HETATM   31  C15 UNL     1     -11.280  22.380 -18.277  1.00  0.00     0.179 C 
HETATM   32  C16 UNL     1     -12.631  23.005 -18.376  1.00  0.00     0.037 C 
HETATM   33  C17 UNL     1     -13.450  22.009 -19.170  1.00  0.00     0.022 C 
HETATM   34  C18 UNL     1     -12.404  21.389 -20.081  1.00  0.00     0.127 C 
HETATM   35  N3  UNL     1     -11.222  21.327 -19.236  1.00  0.00    -0.337 N 
HETATM   36  C19 UNL     1     -10.154  20.374 -19.355  1.00  0.00     0.244 C 
HETATM   37  O3  UNL     1      -9.177  20.441 -18.576  1.00  0.00    -0.271 OA
BRANCH  36  38
HETATM   38  C20 UNL     1     -10.153  19.288 -20.378  1.00  0.00     0.193 C 
BRANCH  38  39
HETATM   39  C21 UNL     1      -8.763  19.167 -20.958  1.00  0.00     0.040 C 
BRANCH  39  40
HETATM   40  C22 UNL     1      -8.039  17.909 -20.561  1.00  0.00    -0.020 C 
HETATM   41  C23 UNL     1      -6.827  18.125 -19.694  1.00  0.00     0.009 C 
HETATM   42  C24 UNL     1      -7.593  17.140 -21.790  1.00  0.00     0.009 C 
ENDBRANCH  39  40
ENDBRANCH  38  39
BRANCH  38  43
HETATM   43  N4  UNL     1     -10.472  18.012 -19.718  1.00  0.00    -0.309 N 
ATOM     44  H4  UNL     1      -9.935  17.171 -19.929  1.00  0.00     0.182 HD
BRANCH  43  45
HETATM   45  N5  UNL     1     -11.414  17.974 -18.891  1.00  0.00    -0.253 N 
HETATM   46  N6  UNL     1     -12.577  17.833 -18.453  1.00  0.00    -0.331 N 
ATOM     47  H62 UNL     1     -13.027  17.608 -19.340  1.00  0.00     0.178 HD
ATOM     48  H61 UNL     1     -13.343  17.801 -17.780  1.00  0.00     0.178 HD
ATOM     49  H5  UNL     1     -10.916  18.204 -18.030  1.00  0.00     0.207 HD
ENDBRANCH  43  45
ENDBRANCH  38  43
ENDBRANCH  36  38
ENDBRANCH  28  31
ENDBRANCH   1  27
TORSDOF 15
ENDMDL
MODEL 4
REMARK VINA RESULT: -9.326702573      1.365      1.910
REMARK  15 active torsions:
REMARK  status: ('A' for Active; 'I' for Inactive)
REMARK    1  A    between atoms: C2_2  and  C3_3 
REMARK    2  A    between atoms: C3_3  and  C4_4 
REMARK    3  A    between atoms: C4_4  and  N1_5 
REMARK    4  A    between atoms: C4_4  and  C25_40 
REMARK       I    between atoms: N1_5  and  C5_7 
REMARK    5  A    between atoms: C5_7  and  C6_9 
REMARK    6  A    between atoms: C6_9  and  C7_10 
REMARK    7  A    between atoms: C6_9  and  N2_17 
REMARK    8  A    between atoms: C7_10  and  C8_11 
REMARK       I    between atoms: N2_17  and  C14_19 
REMARK    9  A    between atoms: C14_19  and  C15_21 
REMARK       I    between atoms: N3_25  and  C19_26 
REMARK   10  A    between atoms: C19_26  and  C20_28 
REMARK   11  A    between atoms: C20_28  and  C21_29 
REMARK   12  A    between atoms: C20_28  and  N4_33 
REMARK   13  A    between atoms: C21_29  and  C22_30 
REMARK   14  A    between atoms: N4_33  and  N5_35 
REMARK       I    between atoms: C25_40  and  N7_42 
REMARK   15  A    between atoms: C29_46  and  C30_47 
ROOT
HETATM    1  C6  UNL     1     -13.379  22.799 -17.839  1.00  0.00     0.177 C 
ENDROOT
BRANCH   1   2
HETATM    2  C5  UNL     1     -13.608  22.599 -16.328  1.00  0.00     0.241 C 
HETATM    3  N1  UNL     1     -14.900  22.802 -15.843  1.00  0.00    -0.346 N 
ATOM      4  H1  UNL     1     -15.635  23.078 -16.494  1.00  0.00     0.163 HD
HETATM    5  O1  UNL     1     -12.666  22.276 -15.616  1.00  0.00    -0.271 OA
BRANCH   3   6
HETATM    6  C4  UNL     1     -15.236  22.632 -14.419  1.00  0.00     0.176 C 
BRANCH   6   7
HETATM    7  C3  UNL     1     -15.591  21.211 -14.182  1.00  0.00     0.034 C 
BRANCH   7   8
HETATM    8  C2  UNL     1     -15.175  20.726 -12.835  1.00  0.00    -0.002 C 
HETATM    9  C1  UNL     1     -13.704  20.978 -12.541  1.00  0.00     0.005 C 
ENDBRANCH   7   8
ENDBRANCH   6   7
BRANCH   6  10
HETATM   10  C25 UNL     1     -16.368  23.589 -14.136  1.00  0.00     0.243 C 
HETATM   11  O4  UNL     1     -16.514  24.061 -12.982  1.00  0.00    -0.271 OA
HETATM   12  N7  UNL     1     -17.293  23.979 -15.138  1.00  0.00    -0.337 N 
HETATM   13  C26 UNL     1     -17.221  23.494 -16.514  1.00  0.00     0.127 C 
HETATM   14  C29 UNL     1     -18.436  24.857 -15.012  1.00  0.00     0.176 C 
HETATM   15  C27 UNL     1     -18.667  23.552 -16.984  1.00  0.00     0.022 C 
HETATM   16  C28 UNL     1     -19.117  24.829 -16.348  1.00  0.00     0.036 C 
BRANCH  14  17
HETATM   17  C30 UNL     1     -18.104  26.220 -14.579  1.00  0.00     0.254 C 
HETATM   18  N8  UNL     1     -18.076  27.277 -15.517  1.00  0.00    -0.060 NA
HETATM   19  O5  UNL     1     -17.845  26.464 -13.385  1.00  0.00    -0.275 OA
ENDBRANCH  14  17
ENDBRANCH   6  10
ENDBRANCH   3   6
ENDBRANCH   1   2
BRANCH   1  20
HETATM   20  C7  UNL     1     -13.790  24.139 -18.218  1.00  0.00     0.039 C 
BRANCH  20  21
HETATM   21  C8  UNL     1     -15.004  24.302 -19.052  1.00  0.00    -0.012 C 
HETATM   22  C9  UNL     1     -15.514  25.755 -18.908  1.00  0.00     0.005 C 
HETATM   23  C10 UNL     1     -16.839  25.833 -19.601  1.00  0.00     0.000 C 
HETATM   24  C11 UNL     1     -16.670  25.535 -21.095  1.00  0.00     0.000 C 
HETATM   25  C12 UNL     1     -16.133  24.170 -21.264  1.00  0.00     0.000 C 
HETATM   26  C13 UNL     1     -14.829  24.005 -20.496  1.00  0.00     0.005 C 
ENDBRANCH  20  21
ENDBRANCH   1  20
BRANCH   1  27
HETATM   27  N2  UNL     1     -11.939  22.560 -18.015  1.00  0.00    -0.346 N 
HETATM   28  C14 UNL     1     -11.524  21.597 -18.983  1.00  0.00     0.241 C 
HETATM   29  O2  UNL     1     -12.327  20.976 -19.669  1.00  0.00    -0.271 OA
ATOM     30  H2  UNL     1     -11.254  23.070 -17.459  1.00  0.00     0.163 HD
BRANCH  28  31
HETATM   31  C15 UNL     1     -10.043  21.401 -19.089  1.00  0.00     0.179 C 
HETATM   32  C16 UNL     1      -9.562  21.647 -20.480  1.00  0.00     0.037 C 
HETATM   33  C17 UNL     1      -9.152  20.279 -20.984  1.00  0.00     0.022 C 
HETATM   34  C18 UNL     1      -8.678  19.597 -19.711  1.00  0.00     0.127 C 
HETATM   35  N3  UNL     1      -9.596  20.104 -18.703  1.00  0.00    -0.337 N 
HETATM   36  C19 UNL     1      -9.979  19.421 -17.499  1.00  0.00     0.244 C 
HETATM   37  O3  UNL     1     -10.764  19.977 -16.697  1.00  0.00    -0.271 OA
BRANCH  36  38
HETATM   38  C20 UNL     1      -9.482  18.058 -17.151  1.00  0.00     0.193 C 
BRANCH  38  39
HETATM   39  C21 UNL     1      -9.147  18.023 -15.678  1.00  0.00     0.040 C 
BRANCH  39  40
HETATM   40  C22 UNL     1      -9.663  16.805 -14.960  1.00  0.00    -0.020 C 
HETATM   41  C23 UNL     1     -10.559  17.097 -13.786  1.00  0.00     0.009 C 
HETATM   42  C24 UNL     1      -8.513  15.953 -14.459  1.00  0.00     0.009 C 
ENDBRANCH  39  40
ENDBRANCH  38  39
BRANCH  38  43
HETATM   43  N4  UNL     1     -10.559  17.083 -17.387  1.00  0.00    -0.309 N 
ATOM     44  H4  UNL     1     -10.380  16.083 -17.298  1.00  0.00     0.182 HD
BRANCH  43  45
HETATM   45  N5  UNL     1     -11.699  17.501 -17.698  1.00  0.00    -0.253 N 
HETATM   46  N6  UNL     1     -12.641  17.891 -18.423  1.00  0.00    -0.331 N 
ATOM     47  H62 UNL     1     -12.160  17.816 -19.319  1.00  0.00     0.178 HD
ATOM     48  H61 UNL     1     -13.569  18.231 -18.677  1.00  0.00     0.178 HD
ATOM     49  H5  UNL     1     -12.134  17.559 -16.778  1.00  0.00     0.207 HD
ENDBRANCH  43  45
ENDBRANCH  38  43
ENDBRANCH  36  38
ENDBRANCH  28  31
ENDBRANCH   1  27
TORSDOF 15
ENDMDL
MODEL 5
REMARK VINA RESULT: -9.278769780      3.515     11.290
REMARK  15 active torsions:
REMARK  status: ('A' for Active; 'I' for Inactive)
REMARK    1  A    between atoms: C2_2  and  C3_3 
REMARK    2  A    between atoms: C3_3  and  C4_4 
REMARK    3  A    between atoms: C4_4  and  N1_5 
REMARK    4  A    between atoms: C4_4  and  C25_40 
REMARK       I    between atoms: N1_5  and  C5_7 
REMARK    5  A    between atoms: C5_7  and  C6_9 
REMARK    6  A    between atoms: C6_9  and  C7_10 
REMARK    7  A    between atoms: C6_9  and  N2_17 
REMARK    8  A    between atoms: C7_10  and  C8_11 
REMARK       I    between atoms: N2_17  and  C14_19 
REMARK    9  A    between atoms: C14_19  and  C15_21 
REMARK       I    between atoms: N3_25  and  C19_26 
REMARK   10  A    between atoms: C19_26  and  C20_28 
REMARK   11  A    between atoms: C20_28  and  C21_29 
REMARK   12  A    between atoms: C20_28  and  N4_33 
REMARK   13  A    between atoms: C21_29  and  C22_30 
REMARK   14  A    between atoms: N4_33  and  N5_35 
REMARK       I    between atoms: C25_40  and  N7_42 
REMARK   15  A    between atoms: C29_46  and  C30_47 
ROOT
HETATM    1  C6  UNL     1      -9.534  19.079 -15.707  1.00  0.00     0.177 C 
ENDROOT
BRANCH   1   2
HETATM    2  C5  UNL     1      -8.900  19.354 -17.085  1.00  0.00     0.241 C 
HETATM    3  N1  UNL     1      -8.170  18.321 -17.673  1.00  0.00    -0.346 N 
ATOM      4  H1  UNL     1      -8.078  17.435 -17.176  1.00  0.00     0.163 HD
HETATM    5  O1  UNL     1      -9.054  20.450 -17.608  1.00  0.00    -0.271 OA
BRANCH   3   6
HETATM    6  C4  UNL     1      -7.528  18.470 -18.990  1.00  0.00     0.176 C 
BRANCH   6   7
HETATM    7  C3  UNL     1      -8.506  18.094 -20.040  1.00  0.00     0.034 C 
BRANCH   7   8
HETATM    8  C2  UNL     1      -8.152  18.636 -21.384  1.00  0.00    -0.002 C 
HETATM    9  C1  UNL     1      -8.819  19.971 -21.680  1.00  0.00     0.005 C 
ENDBRANCH   7   8
ENDBRANCH   6   7
BRANCH   6  10
HETATM   10  C25 UNL     1      -6.305  17.585 -18.965  1.00  0.00     0.243 C 
HETATM   11  O4  UNL     1      -6.435  16.343 -18.846  1.00  0.00    -0.271 OA
HETATM   12  N7  UNL     1      -4.993  18.112 -19.069  1.00  0.00    -0.337 N 
HETATM   13  C26 UNL     1      -4.722  19.540 -19.213  1.00  0.00     0.127 C 
HETATM   14  C29 UNL     1      -3.733  17.400 -19.033  1.00  0.00     0.176 C 
HETATM   15  C27 UNL     1      -3.342  19.702 -18.591  1.00  0.00     0.022 C 
HETATM   16  C28 UNL     1      -2.669  18.456 -19.076  1.00  0.00     0.036 C 
BRANCH  14  17
HETATM   17  C30 UNL     1      -3.576  16.400 -20.097  1.00  0.00     0.254 C 
HETATM   18  N8  UNL     1      -2.591  15.393 -19.985  1.00  0.00    -0.060 NA
HETATM   19  O5  UNL     1      -4.305  16.423 -21.106  1.00  0.00    -0.275 OA
ENDBRANCH  14  17
ENDBRANCH   6  10
ENDBRANCH   3   6
ENDBRANCH   1   2
BRANCH   1  20
HETATM   20  C7  UNL     1      -8.487  18.945 -14.711  1.00  0.00     0.039 C 
BRANCH  20  21
HETATM   21  C8  UNL     1      -8.177  17.596 -14.181  1.00  0.00    -0.012 C 
HETATM   22  C9  UNL     1      -9.494  16.790 -14.077  1.00  0.00     0.005 C 
HETATM   23  C10 UNL     1      -9.179  15.513 -13.362  1.00  0.00     0.000 C 
HETATM   24  C11 UNL     1      -8.179  14.686 -14.177  1.00  0.00     0.000 C 
HETATM   25  C12 UNL     1      -6.927  15.452 -14.340  1.00  0.00     0.000 C 
HETATM   26  C13 UNL     1      -7.204  16.807 -14.977  1.00  0.00     0.005 C 
ENDBRANCH  20  21
ENDBRANCH   1  20
BRANCH   1  27
HETATM   27  N2  UNL     1     -10.410  20.237 -15.481  1.00  0.00    -0.346 N 
HETATM   28  C14 UNL     1     -11.724  20.007 -14.972  1.00  0.00     0.241 C 
HETATM   29  O2  UNL     1     -12.134  18.881 -14.716  1.00  0.00    -0.271 OA
ATOM     30  H2  UNL     1     -10.087  21.183 -15.682  1.00  0.00     0.163 HD
BRANCH  28  31
HETATM   31  C15 UNL     1     -12.557  21.238 -14.785  1.00  0.00     0.179 C 
HETATM   32  C16 UNL     1     -13.234  21.236 -13.456  1.00  0.00     0.037 C 
HETATM   33  C17 UNL     1     -14.701  21.047 -13.781  1.00  0.00     0.022 C 
HETATM   34  C18 UNL     1     -14.823  21.738 -15.128  1.00  0.00     0.127 C 
HETATM   35  N3  UNL     1     -13.562  21.419 -15.779  1.00  0.00    -0.337 N 
HETATM   36  C19 UNL     1     -13.351  21.321 -17.197  1.00  0.00     0.244 C 
HETATM   37  O3  UNL     1     -12.208  21.060 -17.635  1.00  0.00    -0.271 OA
BRANCH  36  38
HETATM   38  C20 UNL     1     -14.448  21.516 -18.191  1.00  0.00     0.193 C 
BRANCH  38  39
HETATM   39  C21 UNL     1     -13.971  22.473 -19.258  1.00  0.00     0.040 C 
BRANCH  39  40
HETATM   40  C22 UNL     1     -14.954  23.563 -19.588  1.00  0.00    -0.020 C 
HETATM   41  C23 UNL     1     -15.022  23.931 -21.047  1.00  0.00     0.009 C 
HETATM   42  C24 UNL     1     -14.633  24.825 -18.811  1.00  0.00     0.009 C 
ENDBRANCH  39  40
ENDBRANCH  38  39
BRANCH  38  43
HETATM   43  N4  UNL     1     -14.734  20.228 -18.842  1.00  0.00    -0.309 N 
ATOM     44  H4  UNL     1     -15.398  20.175 -19.615  1.00  0.00     0.182 HD
BRANCH  43  45
HETATM   45  N5  UNL     1     -14.150  19.197 -18.434  1.00  0.00    -0.253 N 
HETATM   46  N6  UNL     1     -13.299  18.280 -18.383  1.00  0.00    -0.331 N 
ATOM     47  H62 UNL     1     -12.740  18.572 -19.184  1.00  0.00     0.178 HD
ATOM     48  H61 UNL     1     -12.824  17.441 -18.051  1.00  0.00     0.178 HD
ATOM     49  H5  UNL     1     -14.742  18.947 -17.642  1.00  0.00     0.207 HD
ENDBRANCH  43  45
ENDBRANCH  38  43
ENDBRANCH  36  38
ENDBRANCH  28  31
ENDBRANCH   1  27
TORSDOF 15
ENDMDL
