MODEL 1
REMARK VINA RESULT: -8.197581955      0.000      0.000
REMARK  4 active torsions:
REMARK  status: ('A' for Active; 'I' for Inactive)
REMARK    1  A    between atoms: C3_3  and  O1_4 
REMARK    2  A    between atoms: C5_9  and  C6_10 
REMARK    3  A    between atoms: N1_11  and  N2_13 
REMARK    4  A    between atoms: C7_15  and  C8_16 
ROOT
HETATM    1  C6  UNL     1     -18.995  36.784  -1.170  1.00  0.00     0.126 C 
HETATM    2  N1  UNL     1     -18.503  37.404  -2.163  1.00  0.00    -0.311 N 
ATOM      3  H1  UNL     1     -17.505  37.613  -2.176  1.00  0.00     0.186 HD
ENDROOT
BRANCH   2   4
HETATM    4  N2  UNL     1     -19.298  37.803  -3.236  1.00  0.00    -0.311 N 
HETATM    5  C7  UNL     1     -20.450  38.362  -3.013  1.00  0.00     0.120 C 
ATOM      6  H2  UNL     1     -18.978  37.656  -4.193  1.00  0.00     0.186 HD
BRANCH   5   7
HETATM    7  C8  UNL     1     -21.321  38.798  -4.087  1.00  0.00     0.003 A 
HETATM    8  C9  UNL     1     -21.159  38.199  -5.333  1.00  0.00     0.016 A 
HETATM    9  C10 UNL     1     -21.996  38.626  -6.343  1.00  0.00     0.025 A 
HETATM   10  C11 UNL     1     -22.948  39.602  -6.123  1.00  0.00     0.035 A 
HETATM   11 CL1  UNL     1     -23.974  40.091  -7.453  1.00  0.00    -0.084 Cl
HETATM   12  C12 UNL     1     -23.086  40.177  -4.880  1.00  0.00     0.048 A 
HETATM   13  C13 UNL     1     -22.255  39.758  -3.859  1.00  0.00     0.047 A 
HETATM   14 CL2  UNL     1     -22.409  40.479  -2.255  1.00  0.00    -0.083 Cl
ENDBRANCH   5   7
ENDBRANCH   2   4
BRANCH   1  15
HETATM   15  C5  UNL     1     -18.194  36.353  -0.032  1.00  0.00     0.079 A 
HETATM   16  C4  UNL     1     -17.378  35.271  -0.103  1.00  0.00     0.303 A 
HETATM   17  O2  UNL     1     -16.634  34.839   0.892  1.00  0.00    -0.251 OA
HETATM   18  O3  UNL     1     -17.338  34.640  -1.210  1.00  0.00    -0.259 OA
HETATM   19  C3  UNL     1     -16.646  35.459   2.048  1.00  0.00     0.194 A 
HETATM   20  C2  UNL     1     -17.456  36.572   2.188  1.00  0.00     0.019 A 
HETATM   21  C1  UNL     1     -17.479  37.283   3.491  1.00  0.00     0.055 C 
HETATM   22  C14 UNL     1     -18.249  37.050   1.163  1.00  0.00     0.062 A 
HETATM   23 CL3  UNL     1     -19.273  38.448   1.326  1.00  0.00    -0.082 Cl
BRANCH  19  24
HETATM   24  O1  UNL     1     -15.881  35.045   3.128  1.00  0.00    -0.340 OA
ATOM     25  H1  UNL     1     -15.935  34.139   3.410  1.00  0.00     0.220 HD
ENDBRANCH  19  24
ENDBRANCH   1  15
TORSDOF 4
ENDMDL
MODEL 2
REMARK VINA RESULT: -8.183799425      4.302      4.984
REMARK  4 active torsions:
REMARK  status: ('A' for Active; 'I' for Inactive)
REMARK    1  A    between atoms: C3_3  and  O1_4 
REMARK    2  A    between atoms: C5_9  and  C6_10 
REMARK    3  A    between atoms: N1_11  and  N2_13 
REMARK    4  A    between atoms: C7_15  and  C8_16 
ROOT
HETATM    1  C6  UNL     1     -17.729  35.553  -1.418  1.00  0.00     0.126 C 
HETATM    2  N1  UNL     1     -16.865  35.558  -2.348  1.00  0.00    -0.311 N 
ATOM      3  H1  UNL     1     -15.878  35.665  -2.113  1.00  0.00     0.186 HD
ENDROOT
BRANCH   2   4
HETATM    4  N2  UNL     1     -17.237  35.421  -3.685  1.00  0.00    -0.311 N 
HETATM    5  C7  UNL     1     -16.349  35.569  -4.621  1.00  0.00     0.120 C 
ATOM      6  H2  UNL     1     -18.204  35.204  -3.927  1.00  0.00     0.186 HD
BRANCH   5   7
HETATM    7  C8  UNL     1     -16.675  35.439  -6.028  1.00  0.00     0.003 A 
HETATM    8  C9  UNL     1     -18.020  35.474  -6.384  1.00  0.00     0.016 A 
HETATM    9  C10 UNL     1     -18.313  35.348  -7.727  1.00  0.00     0.025 A 
HETATM   10  C11 UNL     1     -17.313  35.194  -8.668  1.00  0.00     0.035 A 
HETATM   11 CL1  UNL     1     -17.762  35.041 -10.352  1.00  0.00    -0.084 Cl
HETATM   12  C12 UNL     1     -15.992  35.163  -8.287  1.00  0.00     0.048 A 
HETATM   13  C13 UNL     1     -15.685  35.288  -6.946  1.00  0.00     0.047 A 
HETATM   14 CL2  UNL     1     -13.997  35.251  -6.428  1.00  0.00    -0.083 Cl
ENDBRANCH   5   7
ENDBRANCH   2   4
BRANCH   1  15
HETATM   15  C5  UNL     1     -17.375  35.695  -0.012  1.00  0.00     0.079 A 
HETATM   16  C4  UNL     1     -16.462  34.884   0.579  1.00  0.00     0.303 A 
HETATM   17  O2  UNL     1     -16.106  34.968   1.843  1.00  0.00    -0.251 OA
HETATM   18  O3  UNL     1     -15.920  33.986  -0.145  1.00  0.00    -0.259 OA
HETATM   19  C3  UNL     1     -16.639  35.878   2.624  1.00  0.00     0.194 A 
HETATM   20  C2  UNL     1     -17.578  36.739   2.084  1.00  0.00     0.019 A 
HETATM   21  C1  UNL     1     -18.189  37.773   2.956  1.00  0.00     0.055 C 
HETATM   22  C14 UNL     1     -17.973  36.676   0.762  1.00  0.00     0.062 A 
HETATM   23 CL3  UNL     1     -19.152  37.752   0.070  1.00  0.00    -0.082 Cl
BRANCH  19  24
HETATM   24  O1  UNL     1     -16.299  36.009   3.963  1.00  0.00    -0.340 OA
ATOM     25  H1  UNL     1     -16.165  35.225   4.482  1.00  0.00     0.220 HD
ENDBRANCH  19  24
ENDBRANCH   1  15
TORSDOF 4
ENDMDL
MODEL 3
REMARK VINA RESULT: -8.038951046      1.523      1.922
REMARK  4 active torsions:
REMARK  status: ('A' for Active; 'I' for Inactive)
REMARK    1  A    between atoms: C3_3  and  O1_4 
REMARK    2  A    between atoms: C5_9  and  C6_10 
REMARK    3  A    between atoms: N1_11  and  N2_13 
REMARK    4  A    between atoms: C7_15  and  C8_16 
ROOT
HETATM    1  C6  UNL     1     -19.833  37.910  -0.686  1.00  0.00     0.126 C 
HETATM    2  N1  UNL     1     -19.508  38.769  -1.563  1.00  0.00    -0.311 N 
ATOM      3  H1  UNL     1     -18.521  38.964  -1.729  1.00  0.00     0.186 HD
ENDROOT
BRANCH   2   4
HETATM    4  N2  UNL     1     -20.473  39.449  -2.304  1.00  0.00    -0.311 N 
HETATM    5  C7  UNL     1     -21.064  38.854  -3.296  1.00  0.00     0.120 C 
ATOM      6  H2  UNL     1     -20.714  40.412  -2.068  1.00  0.00     0.186 HD
BRANCH   5   7
HETATM    7  C8  UNL     1     -22.075  39.509  -4.103  1.00  0.00     0.003 A 
HETATM    8  C9  UNL     1     -22.893  40.446  -3.478  1.00  0.00     0.016 A 
HETATM    9  C10 UNL     1     -23.849  41.059  -4.261  1.00  0.00     0.025 A 
HETATM   10  C11 UNL     1     -23.984  40.754  -5.601  1.00  0.00     0.035 A 
HETATM   11 CL1  UNL     1     -25.219  41.574  -6.529  1.00  0.00    -0.084 Cl
HETATM   12  C12 UNL     1     -23.160  39.824  -6.193  1.00  0.00     0.048 A 
HETATM   13  C13 UNL     1     -22.198  39.202  -5.421  1.00  0.00     0.047 A 
HETATM   14 CL2  UNL     1     -21.128  38.004  -6.154  1.00  0.00    -0.083 Cl
ENDBRANCH   5   7
ENDBRANCH   2   4
BRANCH   1  15
HETATM   15  C5  UNL     1     -18.851  37.182   0.106  1.00  0.00     0.079 A 
HETATM   16  C4  UNL     1     -18.167  36.125  -0.401  1.00  0.00     0.303 A 
HETATM   17  O2  UNL     1     -17.271  35.433   0.269  1.00  0.00    -0.251 OA
HETATM   18  O3  UNL     1     -18.416  35.790  -1.605  1.00  0.00    -0.259 OA
HETATM   19  C3  UNL     1     -16.985  35.744   1.511  1.00  0.00     0.194 A 
HETATM   20  C2  UNL     1     -17.646  36.812   2.091  1.00  0.00     0.019 A 
HETATM   21  C1  UNL     1     -17.332  37.175   3.495  1.00  0.00     0.055 C 
HETATM   22  C14 UNL     1     -18.592  37.558   1.414  1.00  0.00     0.062 A 
HETATM   23 CL3  UNL     1     -19.431  38.904   2.130  1.00  0.00    -0.082 Cl
BRANCH  19  24
HETATM   24  O1  UNL     1     -16.049  35.047   2.262  1.00  0.00    -0.340 OA
ATOM     25  H1  UNL     1     -15.230  34.791   1.853  1.00  0.00     0.220 HD
ENDBRANCH  19  24
ENDBRANCH   1  15
TORSDOF 4
ENDMDL
MODEL 4
REMARK VINA RESULT: -7.952543412      5.152      5.906
REMARK  4 active torsions:
REMARK  status: ('A' for Active; 'I' for Inactive)
REMARK    1  A    between atoms: C3_3  and  O1_4 
REMARK    2  A    between atoms: C5_9  and  C6_10 
REMARK    3  A    between atoms: N1_11  and  N2_13 
REMARK    4  A    between atoms: C7_15  and  C8_16 
ROOT
HETATM    1  C6  UNL     1     -17.967  35.879  -1.555  1.00  0.00     0.126 C 
HETATM    2  N1  UNL     1     -17.396  36.440  -2.540  1.00  0.00    -0.311 N 
ATOM      3  H1  UNL     1     -17.285  37.454  -2.543  1.00  0.00     0.186 HD
ENDROOT
BRANCH   2   4
HETATM    4  N2  UNL     1     -16.916  35.698  -3.619  1.00  0.00    -0.311 N 
HETATM    5  C7  UNL     1     -16.461  36.309  -4.671  1.00  0.00     0.120 C 
ATOM      6  H2  UNL     1     -16.924  34.679  -3.582  1.00  0.00     0.186 HD
BRANCH   5   7
HETATM    7  C8  UNL     1     -15.950  35.593  -5.824  1.00  0.00     0.003 A 
HETATM    8  C9  UNL     1     -14.573  35.403  -5.907  1.00  0.00     0.016 A 
HETATM    9  C10 UNL     1     -14.105  34.720  -7.011  1.00  0.00     0.025 A 
HETATM   10  C11 UNL     1     -14.966  34.249  -7.983  1.00  0.00     0.035 A 
HETATM   11 CL1  UNL     1     -14.296  33.391  -9.353  1.00  0.00    -0.084 Cl
HETATM   12  C12 UNL     1     -16.322  34.452  -7.874  1.00  0.00     0.048 A 
HETATM   13  C13 UNL     1     -16.805  35.134  -6.774  1.00  0.00     0.047 A 
HETATM   14 CL2  UNL     1     -18.541  35.409  -6.609  1.00  0.00    -0.083 Cl
ENDBRANCH   5   7
ENDBRANCH   2   4
BRANCH   1  15
HETATM   15  C5  UNL     1     -18.479  36.624  -0.412  1.00  0.00     0.079 A 
HETATM   16  C4  UNL     1     -19.610  37.369  -0.495  1.00  0.00     0.303 A 
HETATM   17  O2  UNL     1     -20.117  38.059   0.503  1.00  0.00    -0.251 OA
HETATM   18  O3  UNL     1     -20.213  37.395  -1.618  1.00  0.00    -0.259 OA
HETATM   19  C3  UNL     1     -19.528  38.060   1.676  1.00  0.00     0.194 A 
HETATM   20  C2  UNL     1     -18.369  37.320   1.830  1.00  0.00     0.019 A 
HETATM   21  C1  UNL     1     -17.692  37.312   3.151  1.00  0.00     0.055 C 
HETATM   22  C14 UNL     1     -17.812  36.585   0.801  1.00  0.00     0.062 A 
HETATM   23 CL3  UNL     1     -16.356  35.651   0.981  1.00  0.00    -0.082 Cl
BRANCH  19  24
HETATM   24  O1  UNL     1     -20.020  38.771   2.762  1.00  0.00    -0.340 OA
ATOM     25  H1  UNL     1     -20.902  38.593   3.066  1.00  0.00     0.220 HD
ENDBRANCH  19  24
ENDBRANCH   1  15
TORSDOF 4
ENDMDL
MODEL 5
REMARK VINA RESULT: -7.939497138      3.820      4.275
REMARK  4 active torsions:
REMARK  status: ('A' for Active; 'I' for Inactive)
REMARK    1  A    between atoms: C3_3  and  O1_4 
REMARK    2  A    between atoms: C5_9  and  C6_10 
REMARK    3  A    between atoms: N1_11  and  N2_13 
REMARK    4  A    between atoms: C7_15  and  C8_16 
ROOT
HETATM    1  C6  UNL     1     -17.275  35.803  -2.142  1.00  0.00     0.126 C 
HETATM    2  N1  UNL     1     -16.286  36.153  -2.856  1.00  0.00    -0.311 N 
ATOM      3  H1  UNL     1     -15.398  36.377  -2.405  1.00  0.00     0.186 HD
ENDROOT
BRANCH   2   4
HETATM    4  N2  UNL     1     -16.387  36.237  -4.244  1.00  0.00    -0.311 N 
HETATM    5  C7  UNL     1     -16.457  37.402  -4.817  1.00  0.00     0.120 C 
ATOM      6  H2  UNL     1     -16.406  35.388  -4.808  1.00  0.00     0.186 HD
BRANCH   5   7
HETATM    7  C8  UNL     1     -16.563  37.554  -6.254  1.00  0.00     0.003 A 
HETATM    8  C9  UNL     1     -15.396  37.820  -6.964  1.00  0.00     0.016 A 
HETATM    9  C10 UNL     1     -15.516  37.962  -8.331  1.00  0.00     0.025 A 
HETATM   10  C11 UNL     1     -16.740  37.844  -8.960  1.00  0.00     0.035 A 
HETATM   11 CL1  UNL     1     -16.813  38.036 -10.698  1.00  0.00    -0.084 Cl
HETATM   12  C12 UNL     1     -17.878  37.580  -8.233  1.00  0.00     0.048 A 
HETATM   13  C13 UNL     1     -17.772  37.435  -6.864  1.00  0.00     0.047 A 
HETATM   14 CL2  UNL     1     -19.216  37.096  -5.906  1.00  0.00    -0.083 Cl
ENDBRANCH   5   7
ENDBRANCH   2   4
BRANCH   1  15
HETATM   15  C5  UNL     1     -17.204  35.705  -0.690  1.00  0.00     0.079 A 
HETATM   16  C4  UNL     1     -16.426  34.780  -0.074  1.00  0.00     0.303 A 
HETATM   17  O2  UNL     1     -16.325  34.647   1.231  1.00  0.00    -0.251 OA
HETATM   18  O3  UNL     1     -15.752  33.993  -0.817  1.00  0.00    -0.259 OA
HETATM   19  C3  UNL     1     -17.001  35.437   2.032  1.00  0.00     0.194 A 
HETATM   20  C2  UNL     1     -17.816  36.403   1.470  1.00  0.00     0.019 A 
HETATM   21  C1  UNL     1     -18.586  37.303   2.365  1.00  0.00     0.055 C 
HETATM   22  C14 UNL     1     -17.943  36.567   0.104  1.00  0.00     0.062 A 
HETATM   23 CL3  UNL     1     -18.963  37.778  -0.617  1.00  0.00    -0.082 Cl
BRANCH  19  24
HETATM   24  O1  UNL     1     -16.931  35.340   3.415  1.00  0.00    -0.340 OA
ATOM     25  H1  UNL     1     -17.577  34.813   3.872  1.00  0.00     0.220 HD
ENDBRANCH  19  24
ENDBRANCH   1  15
TORSDOF 4
ENDMDL
