MODEL 1
REMARK VINA RESULT: -7.418473654      0.000      0.000
REMARK  5 active torsions:
REMARK  status: ('A' for Active; 'I' for Inactive)
REMARK    1  A    between atoms: O1_2  and  N1_3 
REMARK    2  A    between atoms: N1_3  and  O2_4 
REMARK    3  A    between atoms: N1_3  and  C2_6 
REMARK    4  A    between atoms: C4_9  and  N2_10 
REMARK       I    between atoms: N2_10  and  C5_12 
REMARK    5  A    between atoms: C5_12  and  C6_14 
ROOT
HETATM    1  N2  UNL     1     -15.669  36.151  -3.143  1.00  0.00    -0.317 N 
ATOM      2  H2  UNL     1     -15.172  36.763  -2.496  1.00  0.00     0.169 HD
HETATM    3  C5  UNL     1     -16.958  35.745  -2.796  1.00  0.00     0.260 C 
HETATM    4  O3  UNL     1     -17.636  34.959  -3.559  1.00  0.00    -0.267 OA
ENDROOT
BRANCH   1   5
HETATM    5  C4  UNL     1     -15.004  35.770  -4.339  1.00  0.00     0.079 A 
HETATM    6  S1  UNL     1     -15.465  36.158  -5.969  1.00  0.00    -0.082 SA
HETATM    7  C3  UNL     1     -14.219  35.369  -6.807  1.00  0.00     0.086 A 
HETATM    8  C2  UNL     1     -13.468  34.818  -5.808  1.00  0.00     0.097 A 
HETATM    9  C12 UNL     1     -13.887  35.033  -4.529  1.00  0.00     0.072 A 
BRANCH   8  10
HETATM   10  N1  UNL     1     -12.273  34.034  -6.126  1.00  0.00    -0.127 N 
BRANCH  10  11
HETATM   11  O1  UNL     1     -11.516  33.446  -5.146  1.00  0.00    -0.258 OA
HETATM   12  C1  UNL     1     -11.267  32.056  -5.308  1.00  0.00     0.240 C 
ENDBRANCH  10  11
BRANCH  10  13
HETATM   13  O2  UNL     1     -11.912  33.880  -7.303  1.00  0.00    -0.263 OA
ATOM     14  H2  UNL     1     -11.664  34.656  -7.793  1.00  0.00     0.247 HD
ENDBRANCH  10  13
ENDBRANCH   8  10
ENDBRANCH   1   5
BRANCH   3  15
HETATM   15  C6  UNL     1     -17.698  36.116  -1.581  1.00  0.00     0.075 A 
HETATM   16  C7  UNL     1     -18.543  37.185  -1.463  1.00  0.00     0.053 A 
HETATM   17 CL1  UNL     1     -18.960  38.197  -2.823  1.00  0.00    -0.083 Cl
HETATM   18  C8  UNL     1     -19.165  37.503  -0.248  1.00  0.00     0.048 A 
HETATM   19  C9  UNL     1     -18.916  36.717   0.845  1.00  0.00     0.037 A 
HETATM   20 CL2  UNL     1     -19.694  37.117   2.361  1.00  0.00    -0.084 Cl
HETATM   21  C10 UNL     1     -18.077  35.628   0.791  1.00  0.00     0.048 A 
HETATM   22  C11 UNL     1     -17.491  35.356  -0.422  1.00  0.00     0.053 A 
HETATM   23 CL3  UNL     1     -16.409  33.966  -0.517  1.00  0.00    -0.083 Cl
ENDBRANCH   3  15
TORSDOF 5
ENDMDL
MODEL 2
REMARK VINA RESULT: -7.308663254      3.255      4.195
REMARK  5 active torsions:
REMARK  status: ('A' for Active; 'I' for Inactive)
REMARK    1  A    between atoms: O1_2  and  N1_3 
REMARK    2  A    between atoms: N1_3  and  O2_4 
REMARK    3  A    between atoms: N1_3  and  C2_6 
REMARK    4  A    between atoms: C4_9  and  N2_10 
REMARK       I    between atoms: N2_10  and  C5_12 
REMARK    5  A    between atoms: C5_12  and  C6_14 
ROOT
HETATM    1  N2  UNL     1     -16.349  36.882  -4.123  1.00  0.00    -0.317 N 
ATOM      2  H2  UNL     1     -15.871  37.553  -3.522  1.00  0.00     0.169 HD
HETATM    3  C5  UNL     1     -17.179  35.939  -3.515  1.00  0.00     0.260 C 
HETATM    4  O3  UNL     1     -17.800  35.052  -4.213  1.00  0.00    -0.267 OA
ENDROOT
BRANCH   1   5
HETATM    5  C4  UNL     1     -16.125  36.968  -5.522  1.00  0.00     0.079 A 
HETATM    6  S1  UNL     1     -14.853  36.211  -6.433  1.00  0.00    -0.082 SA
HETATM    7  C3  UNL     1     -15.245  36.776  -7.985  1.00  0.00     0.086 A 
HETATM    8  C2  UNL     1     -16.356  37.541  -7.768  1.00  0.00     0.097 A 
HETATM    9  C12 UNL     1     -16.802  37.633  -6.484  1.00  0.00     0.072 A 
BRANCH   8  10
HETATM   10  N1  UNL     1     -17.015  38.222  -8.884  1.00  0.00    -0.127 N 
BRANCH  10  11
HETATM   11  O1  UNL     1     -18.327  37.982  -9.201  1.00  0.00    -0.258 OA
HETATM   12  C1  UNL     1     -18.584  37.646 -10.558  1.00  0.00     0.240 C 
ENDBRANCH  10  11
BRANCH  10  13
HETATM   13  O2  UNL     1     -16.395  39.042  -9.579  1.00  0.00    -0.263 OA
ATOM     14  H2  UNL     1     -16.286  39.920  -9.233  1.00  0.00     0.247 HD
ENDBRANCH  10  13
ENDBRANCH   8  10
ENDBRANCH   1   5
BRANCH   3  15
HETATM   15  C6  UNL     1     -17.457  35.811  -2.078  1.00  0.00     0.075 A 
HETATM   16  C7  UNL     1     -18.556  36.310  -1.434  1.00  0.00     0.053 A 
HETATM   17 CL1  UNL     1     -19.871  37.073  -2.292  1.00  0.00    -0.083 Cl
HETATM   18  C8  UNL     1     -18.714  36.194  -0.046  1.00  0.00     0.048 A 
HETATM   19  C9  UNL     1     -17.739  35.562   0.678  1.00  0.00     0.037 A 
HETATM   20 CL2  UNL     1     -17.939  35.419   2.410  1.00  0.00    -0.084 Cl
HETATM   21  C10 UNL     1     -16.611  35.038   0.089  1.00  0.00     0.048 A 
HETATM   22  C11 UNL     1     -16.500  35.176  -1.273  1.00  0.00     0.053 A 
HETATM   23 CL3  UNL     1     -15.061  34.515  -2.051  1.00  0.00    -0.083 Cl
ENDBRANCH   3  15
TORSDOF 5
ENDMDL
MODEL 3
REMARK VINA RESULT: -7.276840069      3.179      4.449
REMARK  5 active torsions:
REMARK  status: ('A' for Active; 'I' for Inactive)
REMARK    1  A    between atoms: O1_2  and  N1_3 
REMARK    2  A    between atoms: N1_3  and  O2_4 
REMARK    3  A    between atoms: N1_3  and  C2_6 
REMARK    4  A    between atoms: C4_9  and  N2_10 
REMARK       I    between atoms: N2_10  and  C5_12 
REMARK    5  A    between atoms: C5_12  and  C6_14 
ROOT
HETATM    1  N2  UNL     1     -16.480  37.027  -4.061  1.00  0.00    -0.317 N 
ATOM      2  H2  UNL     1     -16.028  37.716  -3.461  1.00  0.00     0.169 HD
HETATM    3  C5  UNL     1     -17.317  36.087  -3.457  1.00  0.00     0.260 C 
HETATM    4  O3  UNL     1     -17.908  35.179  -4.154  1.00  0.00    -0.267 OA
ENDROOT
BRANCH   1   5
HETATM    5  C4  UNL     1     -16.217  37.087  -5.455  1.00  0.00     0.079 A 
HETATM    6  S1  UNL     1     -14.887  36.363  -6.307  1.00  0.00    -0.082 SA
HETATM    7  C3  UNL     1     -15.255  36.870  -7.884  1.00  0.00     0.086 A 
HETATM    8  C2  UNL     1     -16.404  37.591  -7.721  1.00  0.00     0.097 A 
HETATM    9  C12 UNL     1     -16.893  37.697  -6.454  1.00  0.00     0.072 A 
BRANCH   8  10
HETATM   10  N1  UNL     1     -17.056  38.214  -8.874  1.00  0.00    -0.127 N 
BRANCH  10  11
HETATM   11  O1  UNL     1     -18.366  37.956  -9.187  1.00  0.00    -0.258 OA
HETATM   12  C1  UNL     1     -18.635  36.656  -9.695  1.00  0.00     0.240 C 
ENDBRANCH  10  11
BRANCH  10  13
HETATM   13  O2  UNL     1     -16.434  39.000  -9.605  1.00  0.00    -0.263 OA
ATOM     14  H2  UNL     1     -15.625  38.692  -9.996  1.00  0.00     0.247 HD
ENDBRANCH  10  13
ENDBRANCH   8  10
ENDBRANCH   1   5
BRANCH   3  15
HETATM   15  C6  UNL     1     -17.634  35.985  -2.026  1.00  0.00     0.075 A 
HETATM   16  C7  UNL     1     -16.963  35.211  -1.118  1.00  0.00     0.053 A 
HETATM   17 CL1  UNL     1     -15.521  34.322  -1.537  1.00  0.00    -0.083 Cl
HETATM   18  C8  UNL     1     -17.370  35.126   0.221  1.00  0.00     0.048 A 
HETATM   19  C9  UNL     1     -18.467  35.839   0.623  1.00  0.00     0.037 A 
HETATM   20 CL2  UNL     1     -18.971  35.731   2.296  1.00  0.00    -0.084 Cl
HETATM   21  C10 UNL     1     -19.182  36.636  -0.240  1.00  0.00     0.048 A 
HETATM   22  C11 UNL     1     -18.746  36.688  -1.542  1.00  0.00     0.053 A 
HETATM   23 CL3  UNL     1     -19.649  37.700  -2.670  1.00  0.00    -0.083 Cl
ENDBRANCH   3  15
TORSDOF 5
ENDMDL
MODEL 4
REMARK VINA RESULT: -7.187950868      6.254      8.512
REMARK  5 active torsions:
REMARK  status: ('A' for Active; 'I' for Inactive)
REMARK    1  A    between atoms: O1_2  and  N1_3 
REMARK    2  A    between atoms: N1_3  and  O2_4 
REMARK    3  A    between atoms: N1_3  and  C2_6 
REMARK    4  A    between atoms: C4_9  and  N2_10 
REMARK       I    between atoms: N2_10  and  C5_12 
REMARK    5  A    between atoms: C5_12  and  C6_14 
ROOT
HETATM    1  N2  UNL     1     -19.862  38.887  -1.781  1.00  0.00    -0.317 N 
ATOM      2  H2  UNL     1     -18.936  39.311  -1.830  1.00  0.00     0.169 HD
HETATM    3  C5  UNL     1     -20.118  38.004  -0.732  1.00  0.00     0.260 C 
HETATM    4  O3  UNL     1     -21.262  37.421  -0.619  1.00  0.00    -0.267 OA
ENDROOT
BRANCH   1   5
HETATM    5  C4  UNL     1     -20.805  39.236  -2.784  1.00  0.00     0.079 A 
HETATM    6  S1  UNL     1     -20.812  38.725  -4.444  1.00  0.00    -0.082 SA
HETATM    7  C3  UNL     1     -22.202  39.538  -4.981  1.00  0.00     0.086 A 
HETATM    8  C2  UNL     1     -22.634  40.191  -3.862  1.00  0.00     0.097 A 
HETATM    9  C12 UNL     1     -21.899  40.027  -2.727  1.00  0.00     0.072 A 
BRANCH   8  10
HETATM   10  N1  UNL     1     -23.836  41.026  -3.911  1.00  0.00    -0.127 N 
BRANCH  10  11
HETATM   11  O1  UNL     1     -24.733  41.059  -2.876  1.00  0.00    -0.258 OA
HETATM   12  C1  UNL     1     -26.105  41.035  -3.245  1.00  0.00     0.240 C 
ENDBRANCH  10  11
BRANCH  10  13
HETATM   13  O2  UNL     1     -24.075  41.734  -4.903  1.00  0.00    -0.263 OA
ATOM     14  H2  UNL     1     -24.899  41.596  -5.355  1.00  0.00     0.247 HD
ENDBRANCH  10  13
ENDBRANCH   8  10
ENDBRANCH   1   5
BRANCH   3  15
HETATM   15  C6  UNL     1     -19.187  37.616   0.337  1.00  0.00     0.075 A 
HETATM   16  C7  UNL     1     -18.240  36.632   0.246  1.00  0.00     0.053 A 
HETATM   17 CL1  UNL     1     -17.924  35.778  -1.243  1.00  0.00    -0.083 Cl
HETATM   18  C8  UNL     1     -17.431  36.285   1.337  1.00  0.00     0.048 A 
HETATM   19  C9  UNL     1     -17.598  36.953   2.520  1.00  0.00     0.037 A 
HETATM   20 CL2  UNL     1     -16.585  36.517   3.880  1.00  0.00    -0.084 Cl
HETATM   21  C10 UNL     1     -18.531  37.952   2.674  1.00  0.00     0.048 A 
HETATM   22  C11 UNL     1     -19.301  38.257   1.578  1.00  0.00     0.053 A 
HETATM   23 CL3  UNL     1     -20.507  39.532   1.752  1.00  0.00    -0.083 Cl
ENDBRANCH   3  15
TORSDOF 5
ENDMDL
MODEL 5
REMARK VINA RESULT: -7.177754169      0.628      2.086
REMARK  5 active torsions:
REMARK  status: ('A' for Active; 'I' for Inactive)
REMARK    1  A    between atoms: O1_2  and  N1_3 
REMARK    2  A    between atoms: N1_3  and  O2_4 
REMARK    3  A    between atoms: N1_3  and  C2_6 
REMARK    4  A    between atoms: C4_9  and  N2_10 
REMARK       I    between atoms: N2_10  and  C5_12 
REMARK    5  A    between atoms: C5_12  and  C6_14 
ROOT
HETATM    1  N2  UNL     1     -15.775  36.190  -3.311  1.00  0.00    -0.317 N 
ATOM      2  H2  UNL     1     -15.198  36.719  -2.658  1.00  0.00     0.169 HD
HETATM    3  C5  UNL     1     -17.016  35.735  -2.865  1.00  0.00     0.260 C 
HETATM    4  O3  UNL     1     -17.788  35.048  -3.634  1.00  0.00    -0.267 OA
ENDROOT
BRANCH   1   5
HETATM    5  C4  UNL     1     -15.261  35.966  -4.616  1.00  0.00     0.079 A 
HETATM    6  S1  UNL     1     -15.719  36.780  -6.081  1.00  0.00    -0.082 SA
HETATM    7  C3  UNL     1     -14.700  35.979  -7.177  1.00  0.00     0.086 A 
HETATM    8  C2  UNL     1     -14.024  35.094  -6.386  1.00  0.00     0.097 A 
HETATM    9  C12 UNL     1     -14.325  35.096  -5.058  1.00  0.00     0.072 A 
BRANCH   8  10
HETATM   10  N1  UNL     1     -13.027  34.193  -6.969  1.00  0.00    -0.127 N 
BRANCH  10  11
HETATM   11  O1  UNL     1     -11.893  33.837  -6.287  1.00  0.00    -0.258 OA
HETATM   12  C1  UNL     1     -11.756  32.452  -5.996  1.00  0.00     0.240 C 
ENDBRANCH  10  11
BRANCH  10  13
HETATM   13  O2  UNL     1     -13.187  33.724  -8.107  1.00  0.00    -0.263 OA
ATOM     14  H2  UNL     1     -12.461  33.249  -8.494  1.00  0.00     0.247 HD
ENDBRANCH  10  13
ENDBRANCH   8  10
ENDBRANCH   1   5
BRANCH   3  15
HETATM   15  C6  UNL     1     -17.601  35.947  -1.533  1.00  0.00     0.075 A 
HETATM   16  C7  UNL     1     -17.386  35.156  -0.437  1.00  0.00     0.053 A 
HETATM   17 CL1  UNL     1     -16.250  33.832  -0.453  1.00  0.00    -0.083 Cl
HETATM   18  C8  UNL     1     -18.033  35.396   0.783  1.00  0.00     0.048 A 
HETATM   19  C9  UNL     1     -18.900  36.451   0.873  1.00  0.00     0.037 A 
HETATM   20 CL2  UNL     1     -19.706  36.748   2.398  1.00  0.00    -0.084 Cl
HETATM   21  C10 UNL     1     -19.158  37.283  -0.192  1.00  0.00     0.048 A 
HETATM   22  C11 UNL     1     -18.501  37.009  -1.367  1.00  0.00     0.053 A 
HETATM   23 CL3  UNL     1     -18.817  38.059  -2.749  1.00  0.00    -0.083 Cl
ENDBRANCH   3  15
TORSDOF 5
ENDMDL
