MODEL 1
REMARK VINA RESULT: -8.972918432      0.000      0.000
REMARK  3 active torsions:
REMARK  status: ('A' for Active; 'I' for Inactive)
REMARK    1  A    between atoms: C5_10  and  O2_11 
REMARK    2  A    between atoms: O2_11  and  C6_12 
REMARK    3  A    between atoms: C13_22  and  C14_23 
ROOT
HETATM    1  C1  UNL     1     -16.549  36.450   3.912  1.00  0.00     0.078 C 
HETATM    2  C2  UNL     1     -17.568  37.056   2.994  1.00  0.00     0.069 A 
HETATM    3  O1  UNL     1     -18.451  37.978   3.275  1.00  0.00    -0.296 OA
HETATM    4  C3  UNL     1     -19.194  38.284   2.235  1.00  0.00     0.164 A 
HETATM    5  N1  UNL     1     -20.209  39.152   2.038  1.00  0.00    -0.332 N 
ATOM      6  H1  UNL     1     -20.532  39.736   2.809  1.00  0.00     0.168 HD
HETATM    7  C4  UNL     1     -20.798  39.256   0.835  1.00  0.00     0.184 A 
HETATM    8  N2  UNL     1     -20.417  38.514  -0.219  1.00  0.00    -0.332 N 
ATOM      9  H2  UNL     1     -20.886  38.617  -1.119  1.00  0.00     0.168 HD
HETATM   10  C5  UNL     1     -19.407  37.632  -0.070  1.00  0.00     0.165 A 
HETATM   11  C12 UNL     1     -18.785  37.516   1.182  1.00  0.00     0.086 A 
HETATM   12  C13 UNL     1     -17.753  36.738   1.665  1.00  0.00     0.088 A 
ENDROOT
BRANCH  10  13
HETATM   13  O2  UNL     1     -18.913  36.814  -1.044  1.00  0.00    -0.291 OA
BRANCH  13  14
HETATM   14  C6  UNL     1     -18.432  37.156  -2.280  1.00  0.00     0.104 A 
HETATM   15  C7  UNL     1     -18.708  38.402  -2.784  1.00  0.00     0.081 A 
HETATM   16  C8  UNL     1     -18.258  38.801  -4.006  1.00  0.00     0.120 A 
HETATM   17  F1  UNL     1     -18.570  40.054  -4.444  1.00  0.00    -0.206 F 
HETATM   18  C9  UNL     1     -17.507  37.924  -4.744  1.00  0.00     0.068 A 
HETATM   19  C10 UNL     1     -17.193  36.652  -4.295  1.00  0.00     0.061 A 
HETATM   20 CL1  UNL     1     -16.237  35.542  -5.242  1.00  0.00    -0.082 Cl
HETATM   21  C11 UNL     1     -17.680  36.292  -3.033  1.00  0.00     0.089 A 
HETATM   22 CL2  UNL     1     -17.261  34.683  -2.472  1.00  0.00    -0.080 Cl
ENDBRANCH  13  14
ENDBRANCH  10  13
BRANCH  12  23
HETATM   23  C14 UNL     1     -17.020  35.763   0.868  1.00  0.00     0.213 C 
HETATM   24  O3  UNL     1     -17.527  34.624   0.712  1.00  0.00    -0.644 OA
HETATM   25  O4  UNL     1     -15.809  36.033   0.287  1.00  0.00    -0.644 OA
ENDBRANCH  12  23
TORSDOF 3
ENDMDL
MODEL 2
REMARK VINA RESULT: -8.918521227      3.561      6.299
REMARK  3 active torsions:
REMARK  status: ('A' for Active; 'I' for Inactive)
REMARK    1  A    between atoms: C5_10  and  O2_11 
REMARK    2  A    between atoms: O2_11  and  C6_12 
REMARK    3  A    between atoms: C13_22  and  C14_23 
ROOT
HETATM    1  C1  UNL     1     -15.921  36.941  -5.769  1.00  0.00     0.078 C 
HETATM    2  C2  UNL     1     -16.065  36.294  -4.423  1.00  0.00     0.069 A 
HETATM    3  O1  UNL     1     -15.274  35.414  -3.870  1.00  0.00    -0.296 OA
HETATM    4  C3  UNL     1     -15.693  35.052  -2.678  1.00  0.00     0.164 A 
HETATM    5  N1  UNL     1     -15.226  34.194  -1.746  1.00  0.00    -0.332 N 
ATOM      6  H1  UNL     1     -14.368  33.673  -1.924  1.00  0.00     0.168 HD
HETATM    7  C4  UNL     1     -15.881  34.020  -0.585  1.00  0.00     0.184 A 
HETATM    8  N2  UNL     1     -17.015  34.679  -0.294  1.00  0.00    -0.332 N 
ATOM      9  H2  UNL     1     -17.488  34.524   0.597  1.00  0.00     0.168 HD
HETATM   10  C5  UNL     1     -17.521  35.547  -1.194  1.00  0.00     0.165 A 
HETATM   11  C12 UNL     1     -16.846  35.736  -2.410  1.00  0.00     0.086 A 
HETATM   12  C13 UNL     1     -17.080  36.523  -3.517  1.00  0.00     0.088 A 
ENDROOT
BRANCH  10  13
HETATM   13  O2  UNL     1     -18.659  36.284  -1.040  1.00  0.00    -0.291 OA
BRANCH  13  14
HETATM   14  C6  UNL     1     -19.002  37.115  -0.006  1.00  0.00     0.104 A 
HETATM   15  C7  UNL     1     -18.268  37.077   1.153  1.00  0.00     0.081 A 
HETATM   16  C8  UNL     1     -18.559  37.878   2.215  1.00  0.00     0.120 A 
HETATM   17  F1  UNL     1     -17.787  37.789   3.336  1.00  0.00    -0.206 F 
HETATM   18  C9  UNL     1     -19.617  38.743   2.112  1.00  0.00     0.068 A 
HETATM   19  C10 UNL     1     -20.399  38.829   0.971  1.00  0.00     0.061 A 
HETATM   20 CL1  UNL     1     -21.745  39.932   0.849  1.00  0.00    -0.082 Cl
HETATM   21  C11 UNL     1     -20.057  37.984  -0.092  1.00  0.00     0.089 A 
HETATM   22 CL2  UNL     1     -21.048  38.117  -1.534  1.00  0.00    -0.080 Cl
ENDBRANCH  13  14
ENDBRANCH  10  13
BRANCH  12  23
HETATM   23  C14 UNL     1     -18.217  37.424  -3.657  1.00  0.00     0.213 C 
HETATM   24  O3  UNL     1     -18.092  38.604  -3.245  1.00  0.00    -0.644 OA
HETATM   25  O4  UNL     1     -19.409  37.040  -4.214  1.00  0.00    -0.644 OA
ENDBRANCH  12  23
TORSDOF 3
ENDMDL
MODEL 3
REMARK VINA RESULT: -8.822202237      2.976      4.064
REMARK  3 active torsions:
REMARK  status: ('A' for Active; 'I' for Inactive)
REMARK    1  A    between atoms: C5_10  and  O2_11 
REMARK    2  A    between atoms: O2_11  and  C6_12 
REMARK    3  A    between atoms: C13_22  and  C14_23 
ROOT
HETATM    1  C1  UNL     1     -16.647  36.029   3.609  1.00  0.00     0.078 C 
HETATM    2  C2  UNL     1     -16.757  35.764   2.137  1.00  0.00     0.069 A 
HETATM    3  O1  UNL     1     -15.963  35.041   1.393  1.00  0.00    -0.296 OA
HETATM    4  C3  UNL     1     -16.349  35.016   0.137  1.00  0.00     0.164 A 
HETATM    5  N1  UNL     1     -15.865  34.423  -0.976  1.00  0.00    -0.332 N 
ATOM      6  H1  UNL     1     -15.021  33.853  -0.919  1.00  0.00     0.168 HD
HETATM    7  C4  UNL     1     -16.485  34.576  -2.158  1.00  0.00     0.184 A 
HETATM    8  N2  UNL     1     -17.599  35.314  -2.296  1.00  0.00    -0.332 N 
ATOM      9  H2  UNL     1     -18.045  35.410  -3.209  1.00  0.00     0.168 HD
HETATM   10  C5  UNL     1     -18.120  35.926  -1.213  1.00  0.00     0.165 A 
HETATM   11  C12 UNL     1     -17.481  35.773   0.027  1.00  0.00     0.086 A 
HETATM   12  C13 UNL     1     -17.739  36.246   1.297  1.00  0.00     0.088 A 
ENDROOT
BRANCH  10  13
HETATM   13  O2  UNL     1     -19.241  36.704  -1.198  1.00  0.00    -0.291 OA
BRANCH  13  14
HETATM   14  C6  UNL     1     -19.533  37.791  -1.978  1.00  0.00     0.104 A 
HETATM   15  C7  UNL     1     -18.710  38.098  -3.032  1.00  0.00     0.081 A 
HETATM   16  C8  UNL     1     -18.948  39.166  -3.844  1.00  0.00     0.120 A 
HETATM   17  F1  UNL     1     -18.088  39.412  -4.873  1.00  0.00    -0.206 F 
HETATM   18  C9  UNL     1     -20.043  39.949  -3.591  1.00  0.00     0.068 A 
HETATM   19  C10 UNL     1     -20.914  39.695  -2.543  1.00  0.00     0.061 A 
HETATM   20 CL1  UNL     1     -22.306  40.696  -2.228  1.00  0.00    -0.082 Cl
HETATM   21  C11 UNL     1     -20.624  38.585  -1.739  1.00  0.00     0.089 A 
HETATM   22 CL2  UNL     1     -21.744  38.270  -0.425  1.00  0.00    -0.080 Cl
ENDBRANCH  13  14
ENDBRANCH  10  13
BRANCH  12  23
HETATM   23  C14 UNL     1     -18.866  37.105   1.638  1.00  0.00     0.213 C 
HETATM   24  O3  UNL     1     -19.925  36.560   2.038  1.00  0.00    -0.644 OA
HETATM   25  O4  UNL     1     -18.820  38.471   1.541  1.00  0.00    -0.644 OA
ENDBRANCH  12  23
TORSDOF 3
ENDMDL
MODEL 4
REMARK VINA RESULT: -8.777998815      2.052      2.358
REMARK  3 active torsions:
REMARK  status: ('A' for Active; 'I' for Inactive)
REMARK    1  A    between atoms: C5_10  and  O2_11 
REMARK    2  A    between atoms: O2_11  and  C6_12 
REMARK    3  A    between atoms: C13_22  and  C14_23 
ROOT
HETATM    1  C1  UNL     1     -17.277  37.140   3.463  1.00  0.00     0.078 C 
HETATM    2  C2  UNL     1     -18.060  37.358   2.203  1.00  0.00     0.069 A 
HETATM    3  O1  UNL     1     -18.982  38.256   1.979  1.00  0.00    -0.296 OA
HETATM    4  C3  UNL     1     -19.468  38.172   0.761  1.00  0.00     0.164 A 
HETATM    5  N1  UNL     1     -20.411  38.863   0.084  1.00  0.00    -0.332 N 
ATOM      6  H1  UNL     1     -20.900  39.632   0.542  1.00  0.00     0.168 HD
HETATM    7  C4  UNL     1     -20.711  38.547  -1.187  1.00  0.00     0.184 A 
HETATM    8  N2  UNL     1     -20.101  37.546  -1.843  1.00  0.00    -0.332 N 
ATOM      9  H2  UNL     1     -20.352  37.331  -2.808  1.00  0.00     0.168 HD
HETATM   10  C5  UNL     1     -19.152  36.827  -1.207  1.00  0.00     0.165 A 
HETATM   11  C12 UNL     1     -18.831  37.147   0.120  1.00  0.00     0.086 A 
HETATM   12  C13 UNL     1     -17.938  36.632   1.036  1.00  0.00     0.088 A 
ENDROOT
BRANCH  10  13
HETATM   13  O2  UNL     1     -18.450  35.786  -1.741  1.00  0.00    -0.291 OA
BRANCH  13  14
HETATM   14  C6  UNL     1     -17.778  35.733  -2.933  1.00  0.00     0.104 A 
HETATM   15  C7  UNL     1     -16.427  35.972  -2.950  1.00  0.00     0.081 A 
HETATM   16  C8  UNL     1     -15.703  35.933  -4.103  1.00  0.00     0.120 A 
HETATM   17  F1  UNL     1     -14.364  36.181  -4.046  1.00  0.00    -0.206 F 
HETATM   18  C9  UNL     1     -16.354  35.646  -5.274  1.00  0.00     0.068 A 
HETATM   19  C10 UNL     1     -17.716  35.396  -5.327  1.00  0.00     0.061 A 
HETATM   20 CL1  UNL     1     -18.536  35.032  -6.822  1.00  0.00    -0.082 Cl
HETATM   21  C11 UNL     1     -18.413  35.448  -4.114  1.00  0.00     0.089 A 
HETATM   22 CL2  UNL     1     -20.134  35.115  -4.196  1.00  0.00    -0.080 Cl
ENDBRANCH  13  14
ENDBRANCH  10  13
BRANCH  12  23
HETATM   23  C14 UNL     1     -17.043  35.514   0.768  1.00  0.00     0.213 C 
HETATM   24  O3  UNL     1     -15.840  35.767   0.508  1.00  0.00    -0.644 OA
HETATM   25  O4  UNL     1     -17.455  34.207   0.786  1.00  0.00    -0.644 OA
ENDBRANCH  12  23
TORSDOF 3
ENDMDL
MODEL 5
REMARK VINA RESULT: -8.752763874      2.805      3.819
REMARK  3 active torsions:
REMARK  status: ('A' for Active; 'I' for Inactive)
REMARK    1  A    between atoms: C5_10  and  O2_11 
REMARK    2  A    between atoms: O2_11  and  C6_12 
REMARK    3  A    between atoms: C13_22  and  C14_23 
ROOT
HETATM    1  C1  UNL     1     -16.933  35.422   3.496  1.00  0.00     0.078 C 
HETATM    2  C2  UNL     1     -16.947  35.456   1.997  1.00  0.00     0.069 A 
HETATM    3  O1  UNL     1     -16.006  35.065   1.179  1.00  0.00    -0.296 OA
HETATM    4  C3  UNL     1     -16.344  35.233  -0.080  1.00  0.00     0.164 A 
HETATM    5  N1  UNL     1     -15.723  34.987  -1.253  1.00  0.00    -0.332 N 
ATOM      6  H1  UNL     1     -14.786  34.583  -1.254  1.00  0.00     0.168 HD
HETATM    7  C4  UNL     1     -16.327  35.267  -2.421  1.00  0.00     0.184 A 
HETATM    8  N2  UNL     1     -17.559  35.799  -2.484  1.00  0.00    -0.332 N 
ATOM      9  H2  UNL     1     -17.989  36.001  -3.386  1.00  0.00     0.168 HD
HETATM   10  C5  UNL     1     -18.220  36.063  -1.337  1.00  0.00     0.165 A 
HETATM   11  C12 UNL     1     -17.599  35.774  -0.113  1.00  0.00     0.086 A 
HETATM   12  C13 UNL     1     -17.980  35.914   1.205  1.00  0.00     0.088 A 
ENDROOT
BRANCH  10  13
HETATM   13  O2  UNL     1     -19.470  36.600  -1.243  1.00  0.00    -0.291 OA
BRANCH  13  14
HETATM   14  C6  UNL     1     -20.031  37.591  -2.004  1.00  0.00     0.104 A 
HETATM   15  C7  UNL     1     -20.127  38.858  -1.485  1.00  0.00     0.081 A 
HETATM   16  C8  UNL     1     -20.674  39.886  -2.193  1.00  0.00     0.120 A 
HETATM   17  F1  UNL     1     -20.736  41.120  -1.615  1.00  0.00    -0.206 F 
HETATM   18  C9  UNL     1     -21.138  39.636  -3.457  1.00  0.00     0.068 A 
HETATM   19  C10 UNL     1     -21.072  38.380  -4.039  1.00  0.00     0.061 A 
HETATM   20 CL1  UNL     1     -21.665  38.071  -5.650  1.00  0.00    -0.082 Cl
HETATM   21  C11 UNL     1     -20.501  37.359  -3.270  1.00  0.00     0.089 A 
HETATM   22 CL2  UNL     1     -20.412  35.779  -4.027  1.00  0.00    -0.080 Cl
ENDBRANCH  13  14
ENDBRANCH  10  13
BRANCH  12  23
HETATM   23  C14 UNL     1     -19.261  36.459   1.635  1.00  0.00     0.213 C 
HETATM   24  O3  UNL     1     -20.193  35.654   1.886  1.00  0.00    -0.644 OA
HETATM   25  O4  UNL     1     -19.492  37.803   1.774  1.00  0.00    -0.644 OA
ENDBRANCH  12  23
TORSDOF 3
ENDMDL
