MODEL 1
REMARK VINA RESULT: -8.066222423      0.000      0.000
REMARK  4 active torsions:
REMARK  status: ('A' for Active; 'I' for Inactive)
REMARK    1  A    between atoms: C2_2  and  C4_5 
REMARK    2  A    between atoms: C4_5  and  C5_6 
REMARK    3  A    between atoms: C5_6  and  C6_7 
REMARK       I    between atoms: N1_8  and  C7_10 
REMARK    4  A    between atoms: C7_10  and  C8_12 
ROOT
HETATM    1  C8  UNL     1     -19.608  39.137  -3.089  1.00  0.00     0.142 A 
HETATM    2  C9  UNL     1     -19.785  40.134  -4.067  1.00  0.00     0.127 A 
HETATM    3  N2  UNL     1     -18.895  39.875  -5.017  1.00  0.00    -0.343 N 
ATOM      4  H2  UNL     1     -18.781  40.430  -5.865  1.00  0.00     0.167 HD
HETATM    5  C10 UNL     1     -18.168  38.795  -4.720  1.00  0.00     0.172 A 
HETATM    6  N3  UNL     1     -18.599  38.341  -3.544  1.00  0.00    -0.226 N 
HETATM    7  N4  UNL     1     -18.065  37.220  -2.920  1.00  0.00    -0.279 N 
ATOM      8  H4  UNL     1     -18.466  36.956  -2.020  1.00  0.00     0.188 HD
HETATM    9  C11 UNL     1     -17.032  36.422  -3.410  1.00  0.00     0.147 A 
HETATM   10 CL2  UNL     1     -16.492  35.024  -2.451  1.00  0.00    -0.061 Cl
HETATM   11  C12 UNL     1     -16.374  36.582  -4.546  1.00  0.00     0.117 A 
HETATM   12 CL3  UNL     1     -15.106  35.523  -5.048  1.00  0.00    -0.073 Cl
HETATM   13  S1  UNL     1     -16.849  37.963  -5.575  1.00  0.00    -0.037 SA
ENDROOT
BRANCH   1  14
HETATM   14  C7  UNL     1     -20.383  39.045  -1.867  1.00  0.00     0.275 C 
HETATM   15  N1  UNL     1     -19.750  38.636  -0.671  1.00  0.00    -0.335 N 
HETATM   16  C6  UNL     1     -20.349  38.214   0.366  1.00  0.00     0.064 C 
ATOM     17  H1  UNL     1     -18.731  38.683  -0.638  1.00  0.00     0.168 HD
HETATM   18  O1  UNL     1     -21.591  39.309  -1.818  1.00  0.00    -0.266 OA
BRANCH  16  19
HETATM   19  C5  UNL     1     -19.583  37.817   1.555  1.00  0.00     0.046 C 
BRANCH  19  20
HETATM   20  C4  UNL     1     -18.148  37.502   1.202  1.00  0.00     0.030 C 
BRANCH  20  21
HETATM   21  C2  UNL     1     -17.655  36.346   2.044  1.00  0.00     0.030 C 
HETATM   22  C1  UNL     1     -16.587  35.637   1.237  1.00  0.00     0.032 C 
HETATM   23  C3  UNL     1     -18.752  35.361   2.322  1.00  0.00     0.032 C 
HETATM   24 CL1  UNL     1     -16.951  36.927   3.569  1.00  0.00    -0.120 Cl
ENDBRANCH  20  21
ENDBRANCH  19  20
ENDBRANCH  16  19
ENDBRANCH   1  14
TORSDOF 4
ENDMDL
MODEL 2
REMARK VINA RESULT: -7.998038928      3.493      4.564
REMARK  4 active torsions:
REMARK  status: ('A' for Active; 'I' for Inactive)
REMARK    1  A    between atoms: C2_2  and  C4_5 
REMARK    2  A    between atoms: C4_5  and  C5_6 
REMARK    3  A    between atoms: C5_6  and  C6_7 
REMARK       I    between atoms: N1_8  and  C7_10 
REMARK    4  A    between atoms: C7_10  and  C8_12 
ROOT
HETATM    1  C8  UNL     1     -15.643  34.826  -2.148  1.00  0.00     0.142 A 
HETATM    2  C9  UNL     1     -14.322  34.950  -2.621  1.00  0.00     0.127 A 
HETATM    3  N2  UNL     1     -14.423  35.288  -3.901  1.00  0.00    -0.343 N 
ATOM      4  H2  UNL     1     -13.626  35.450  -4.517  1.00  0.00     0.167 HD
HETATM    5  C10 UNL     1     -15.700  35.389  -4.277  1.00  0.00     0.172 A 
HETATM    6  N3  UNL     1     -16.449  35.107  -3.211  1.00  0.00    -0.226 N 
HETATM    7  N4  UNL     1     -17.838  35.114  -3.236  1.00  0.00    -0.279 N 
ATOM      8  H4  UNL     1     -18.317  34.884  -2.365  1.00  0.00     0.188 HD
HETATM    9  C11 UNL     1     -18.638  35.406  -4.340  1.00  0.00     0.147 A 
HETATM   10 CL2  UNL     1     -20.407  35.359  -4.160  1.00  0.00    -0.061 Cl
HETATM   11  C12 UNL     1     -18.229  35.727  -5.556  1.00  0.00     0.117 A 
HETATM   12 CL3  UNL     1     -19.322  36.069  -6.849  1.00  0.00    -0.073 Cl
HETATM   13  S1  UNL     1     -16.465  35.798  -5.830  1.00  0.00    -0.037 SA
ENDROOT
BRANCH   1  14
HETATM   14  C7  UNL     1     -15.993  34.467  -0.788  1.00  0.00     0.275 C 
HETATM   15  N1  UNL     1     -16.557  35.443   0.066  1.00  0.00    -0.335 N 
HETATM   16  C6  UNL     1     -16.612  35.362   1.331  1.00  0.00     0.064 C 
ATOM     17  H1  UNL     1     -16.949  36.278  -0.369  1.00  0.00     0.168 HD
HETATM   18  O1  UNL     1     -15.821  33.331  -0.330  1.00  0.00    -0.266 OA
BRANCH  16  19
HETATM   19  C5  UNL     1     -17.224  36.442   2.117  1.00  0.00     0.046 C 
BRANCH  19  20
HETATM   20  C4  UNL     1     -17.994  37.395   1.232  1.00  0.00     0.030 C 
BRANCH  20  21
HETATM   21  C2  UNL     1     -19.464  37.350   1.588  1.00  0.00     0.030 C 
HETATM   22  C1  UNL     1     -20.235  37.551   0.299  1.00  0.00     0.032 C 
HETATM   23  C3  UNL     1     -19.837  38.459   2.526  1.00  0.00     0.032 C 
HETATM   24 CL1  UNL     1     -19.898  35.778   2.293  1.00  0.00    -0.120 Cl
ENDBRANCH  20  21
ENDBRANCH  19  20
ENDBRANCH  16  19
ENDBRANCH   1  14
TORSDOF 4
ENDMDL
MODEL 3
REMARK VINA RESULT: -7.893222369      1.913      2.261
REMARK  4 active torsions:
REMARK  status: ('A' for Active; 'I' for Inactive)
REMARK    1  A    between atoms: C2_2  and  C4_5 
REMARK    2  A    between atoms: C4_5  and  C5_6 
REMARK    3  A    between atoms: C5_6  and  C6_7 
REMARK       I    between atoms: N1_8  and  C7_10 
REMARK    4  A    between atoms: C7_10  and  C8_12 
ROOT
HETATM    1  C8  UNL     1     -18.484  37.628  -4.536  1.00  0.00     0.142 A 
HETATM    2  C9  UNL     1     -18.714  38.307  -5.748  1.00  0.00     0.127 A 
HETATM    3  N2  UNL     1     -17.646  38.077  -6.503  1.00  0.00    -0.343 N 
ATOM      4  H2  UNL     1     -17.520  38.442  -7.447  1.00  0.00     0.167 HD
HETATM    5  C10 UNL     1     -16.758  37.308  -5.867  1.00  0.00     0.172 A 
HETATM    6  N3  UNL     1     -17.265  37.031  -4.666  1.00  0.00    -0.226 N 
HETATM    7  N4  UNL     1     -16.606  36.247  -3.727  1.00  0.00    -0.279 N 
ATOM      8  H4  UNL     1     -17.081  36.095  -2.836  1.00  0.00     0.188 HD
HETATM    9  C11 UNL     1     -15.358  35.648  -3.887  1.00  0.00     0.147 A 
HETATM   10 CL2  UNL     1     -14.688  34.678  -2.554  1.00  0.00    -0.061 Cl
HETATM   11  C12 UNL     1     -14.576  35.714  -4.951  1.00  0.00     0.117 A 
HETATM   12 CL3  UNL     1     -13.041  34.925  -5.032  1.00  0.00    -0.073 Cl
HETATM   13  S1  UNL     1     -15.168  36.669  -6.340  1.00  0.00    -0.037 SA
ENDROOT
BRANCH   1  14
HETATM   14  C7  UNL     1     -19.408  37.614  -3.419  1.00  0.00     0.275 C 
HETATM   15  N1  UNL     1     -18.951  37.983  -2.133  1.00  0.00    -0.335 N 
HETATM   16  C6  UNL     1     -19.544  37.718  -1.043  1.00  0.00     0.064 C 
ATOM     17  H1  UNL     1     -18.075  38.503  -2.077  1.00  0.00     0.168 HD
HETATM   18  O1  UNL     1     -20.597  37.290  -3.537  1.00  0.00    -0.266 OA
BRANCH  16  19
HETATM   19  C5  UNL     1     -18.972  38.155   0.238  1.00  0.00     0.046 C 
BRANCH  19  20
HETATM   20  C4  UNL     1     -18.049  37.106   0.812  1.00  0.00     0.030 C 
BRANCH  20  21
HETATM   21  C2  UNL     1     -18.413  36.839   2.256  1.00  0.00     0.030 C 
HETATM   22  C1  UNL     1     -19.203  38.038   2.740  1.00  0.00     0.032 C 
HETATM   23  C3  UNL     1     -17.192  36.714   3.118  1.00  0.00     0.032 C 
HETATM   24 CL1  UNL     1     -19.416  35.378   2.398  1.00  0.00    -0.120 Cl
ENDBRANCH  20  21
ENDBRANCH  19  20
ENDBRANCH  16  19
ENDBRANCH   1  14
TORSDOF 4
ENDMDL
MODEL 4
REMARK VINA RESULT: -7.872886876      3.835      7.172
REMARK  4 active torsions:
REMARK  status: ('A' for Active; 'I' for Inactive)
REMARK    1  A    between atoms: C2_2  and  C4_5 
REMARK    2  A    between atoms: C4_5  and  C5_6 
REMARK    3  A    between atoms: C5_6  and  C6_7 
REMARK       I    between atoms: N1_8  and  C7_10 
REMARK    4  A    between atoms: C7_10  and  C8_12 
ROOT
HETATM    1  C8  UNL     1     -17.036  35.680   0.785  1.00  0.00     0.142 A 
HETATM    2  C9  UNL     1     -16.518  35.737   2.092  1.00  0.00     0.127 A 
HETATM    3  N2  UNL     1     -17.243  36.648   2.733  1.00  0.00    -0.343 N 
ATOM      4  H2  UNL     1     -17.103  36.913   3.708  1.00  0.00     0.167 HD
HETATM    5  C10 UNL     1     -18.178  37.171   1.936  1.00  0.00     0.172 A 
HETATM    6  N3  UNL     1     -18.056  36.584   0.746  1.00  0.00    -0.226 N 
HETATM    7  N4  UNL     1     -18.872  36.887  -0.338  1.00  0.00    -0.279 N 
ATOM      8  H4  UNL     1     -18.695  36.380  -1.206  1.00  0.00     0.188 HD
HETATM    9  C11 UNL     1     -19.909  37.818  -0.349  1.00  0.00     0.147 A 
HETATM   10 CL2  UNL     1     -20.839  38.056  -1.848  1.00  0.00    -0.061 Cl
HETATM   11  C12 UNL     1     -20.305  38.579   0.657  1.00  0.00     0.117 A 
HETATM   12 CL3  UNL     1     -21.611  39.702   0.521  1.00  0.00    -0.073 Cl
HETATM   13  S1  UNL     1     -19.428  38.407   2.204  1.00  0.00    -0.037 SA
ENDROOT
BRANCH   1  14
HETATM   14  C7  UNL     1     -16.531  34.807  -0.256  1.00  0.00     0.275 C 
HETATM   15  N1  UNL     1     -15.845  35.365  -1.360  1.00  0.00    -0.335 N 
HETATM   16  C6  UNL     1     -15.638  34.776  -2.465  1.00  0.00     0.064 C 
ATOM     17  H1  UNL     1     -15.490  36.316  -1.261  1.00  0.00     0.168 HD
HETATM   18  O1  UNL     1     -16.672  33.578  -0.228  1.00  0.00    -0.266 OA
BRANCH  16  19
HETATM   19  C5  UNL     1     -14.910  35.458  -3.544  1.00  0.00     0.046 C 
BRANCH  19  20
HETATM   20  C4  UNL     1     -15.830  36.348  -4.347  1.00  0.00     0.030 C 
BRANCH  20  21
HETATM   21  C2  UNL     1     -15.535  36.189  -5.823  1.00  0.00     0.030 C 
HETATM   22  C1  UNL     1     -16.668  35.373  -6.413  1.00  0.00     0.032 C 
HETATM   23  C3  UNL     1     -14.258  35.437  -6.052  1.00  0.00     0.032 C 
HETATM   24 CL1  UNL     1     -15.469  37.771  -6.630  1.00  0.00    -0.120 Cl
ENDBRANCH  20  21
ENDBRANCH  19  20
ENDBRANCH  16  19
ENDBRANCH   1  14
TORSDOF 4
ENDMDL
MODEL 5
REMARK VINA RESULT: -7.846386985      3.397      5.738
REMARK  4 active torsions:
REMARK  status: ('A' for Active; 'I' for Inactive)
REMARK    1  A    between atoms: C2_2  and  C4_5 
REMARK    2  A    between atoms: C4_5  and  C5_6 
REMARK    3  A    between atoms: C5_6  and  C6_7 
REMARK       I    between atoms: N1_8  and  C7_10 
REMARK    4  A    between atoms: C7_10  and  C8_12 
ROOT
HETATM    1  C8  UNL     1     -18.577  35.938  -2.425  1.00  0.00     0.142 A 
HETATM    2  C9  UNL     1     -17.633  34.991  -2.864  1.00  0.00     0.127 A 
HETATM    3  N2  UNL     1     -16.840  34.756  -1.825  1.00  0.00    -0.343 N 
ATOM      4  H2  UNL     1     -16.053  34.107  -1.837  1.00  0.00     0.167 HD
HETATM    5  C10 UNL     1     -17.206  35.478  -0.763  1.00  0.00     0.172 A 
HETATM    6  N3  UNL     1     -18.265  36.202  -1.124  1.00  0.00    -0.226 N 
HETATM    7  N4  UNL     1     -18.915  37.078  -0.263  1.00  0.00    -0.279 N 
ATOM      8  H4  UNL     1     -19.717  37.586  -0.639  1.00  0.00     0.188 HD
HETATM    9  C11 UNL     1     -18.574  37.329   1.065  1.00  0.00     0.147 A 
HETATM   10 CL2  UNL     1     -19.541  38.494   1.999  1.00  0.00    -0.061 Cl
HETATM   11  C12 UNL     1     -17.579  36.786   1.746  1.00  0.00     0.117 A 
HETATM   12 CL3  UNL     1     -17.254  37.178   3.397  1.00  0.00    -0.073 Cl
HETATM   13  S1  UNL     1     -16.553  35.603   0.887  1.00  0.00    -0.037 SA
ENDROOT
BRANCH   1  14
HETATM   14  C7  UNL     1     -19.638  36.478  -3.252  1.00  0.00     0.275 C 
HETATM   15  N1  UNL     1     -19.975  37.847  -3.145  1.00  0.00    -0.335 N 
HETATM   16  C6  UNL     1     -21.057  38.367  -3.557  1.00  0.00     0.064 C 
ATOM     17  H1  UNL     1     -19.295  38.466  -2.703  1.00  0.00     0.168 HD
HETATM   18  O1  UNL     1     -20.275  35.789  -4.058  1.00  0.00    -0.266 OA
BRANCH  16  19
HETATM   19  C5  UNL     1     -21.297  39.807  -3.392  1.00  0.00     0.046 C 
BRANCH  19  20
HETATM   20  C4  UNL     1     -20.850  40.285  -2.030  1.00  0.00     0.030 C 
BRANCH  20  21
HETATM   21  C2  UNL     1     -22.054  40.479  -1.134  1.00  0.00     0.030 C 
HETATM   22  C1  UNL     1     -22.216  39.203  -0.332  1.00  0.00     0.032 C 
HETATM   23  C3  UNL     1     -23.307  40.683  -1.933  1.00  0.00     0.032 C 
HETATM   24 CL1  UNL     1     -21.805  41.844  -0.024  1.00  0.00    -0.120 Cl
ENDBRANCH  20  21
ENDBRANCH  19  20
ENDBRANCH  16  19
ENDBRANCH   1  14
TORSDOF 4
ENDMDL
