MODEL 1
REMARK VINA RESULT: -7.726702779      0.000      0.000
REMARK  4 active torsions:
REMARK  status: ('A' for Active; 'I' for Inactive)
REMARK    1  A    between atoms: C5_6  and  N1_7 
REMARK       I    between atoms: N1_7  and  C6_9 
REMARK    2  A    between atoms: C6_9  and  C7_11 
REMARK    3  A    between atoms: C7_11  and  S1_12 
REMARK    4  A    between atoms: S1_12  and  C8_13 
ROOT
HETATM    1  C7  UNL     1     -20.649  37.884  -2.929  1.00  0.00     0.185 C 
ENDROOT
BRANCH   1   2
HETATM    2  C6  UNL     1     -19.780  38.020  -1.719  1.00  0.00     0.232 C 
HETATM    3  N1  UNL     1     -20.132  37.280  -0.568  1.00  0.00    -0.318 N 
ATOM      4  H1  UNL     1     -20.931  36.651  -0.635  1.00  0.00     0.169 HD
HETATM    5  O1  UNL     1     -18.798  38.781  -1.780  1.00  0.00    -0.272 OA
BRANCH   3   6
HETATM    6  C5  UNL     1     -19.449  37.350   0.678  1.00  0.00     0.116 A 
HETATM    7  C4  UNL     1     -19.615  38.255   1.704  1.00  0.00     0.151 A 
HETATM    8  C3  UNL     1     -18.791  38.151   2.735  1.00  0.00     0.059 A 
HETATM    9  F1  UNL     1     -20.627  39.196   1.602  1.00  0.00    -0.203 F 
HETATM   10  C2  UNL     1     -17.836  37.177   2.729  1.00  0.00    -0.016 A 
HETATM   11  C1  UNL     1     -16.778  36.915   3.765  1.00  0.00     0.056 C 
HETATM   12  S2  UNL     1     -18.140  36.404   1.224  1.00  0.00    -0.074 SA
ENDBRANCH   3   6
ENDBRANCH   1   2
BRANCH   1  13
HETATM   13  S1  UNL     1     -20.325  36.322  -3.743  1.00  0.00    -0.085 SA
BRANCH  13  14
HETATM   14  C8  UNL     1     -18.652  35.788  -3.464  1.00  0.00     0.146 A 
HETATM   15  N2  UNL     1     -17.718  36.091  -4.417  1.00  0.00    -0.339 N 
HETATM   16  C9  UNL     1     -16.430  35.798  -4.334  1.00  0.00     0.032 A 
ATOM     17  H2  UNL     1     -18.039  36.579  -5.254  1.00  0.00     0.168 HD
HETATM   18  C10 UNL     1     -15.468  36.152  -5.412  1.00  0.00     0.070 C 
HETATM   19  C11 UNL     1     -15.970  35.142  -3.221  1.00  0.00     0.094 A 
HETATM   20 CL1  UNL     1     -14.270  34.757  -3.036  1.00  0.00    -0.079 Cl
HETATM   21  C12 UNL     1     -16.890  34.827  -2.256  1.00  0.00     0.129 A 
HETATM   22 CL2  UNL     1     -16.333  33.995  -0.836  1.00  0.00    -0.062 Cl
HETATM   23  N3  UNL     1     -18.211  35.149  -2.380  1.00  0.00    -0.326 N 
ATOM     24  H3  UNL     1     -18.865  34.898  -1.639  1.00  0.00     0.169 HD
ENDBRANCH  13  14
ENDBRANCH   1  13
TORSDOF 4
ENDMDL
MODEL 2
REMARK VINA RESULT: -7.690982377      0.748      1.882
REMARK  4 active torsions:
REMARK  status: ('A' for Active; 'I' for Inactive)
REMARK    1  A    between atoms: C5_6  and  N1_7 
REMARK       I    between atoms: N1_7  and  C6_9 
REMARK    2  A    between atoms: C6_9  and  C7_11 
REMARK    3  A    between atoms: C7_11  and  S1_12 
REMARK    4  A    between atoms: S1_12  and  C8_13 
ROOT
HETATM    1  C7  UNL     1     -20.690  37.838  -2.930  1.00  0.00     0.185 C 
ENDROOT
BRANCH   1   2
HETATM    2  C6  UNL     1     -19.832  38.010  -1.717  1.00  0.00     0.232 C 
HETATM    3  N1  UNL     1     -20.146  37.244  -0.572  1.00  0.00    -0.318 N 
ATOM      4  H1  UNL     1     -20.912  36.575  -0.646  1.00  0.00     0.169 HD
HETATM    5  O1  UNL     1     -18.891  38.823  -1.769  1.00  0.00    -0.272 OA
BRANCH   3   6
HETATM    6  C5  UNL     1     -19.471  37.340   0.676  1.00  0.00     0.116 A 
HETATM    7  C4  UNL     1     -19.662  38.249   1.693  1.00  0.00     0.151 A 
HETATM    8  C3  UNL     1     -18.840  38.173   2.729  1.00  0.00     0.059 A 
HETATM    9  F1  UNL     1     -20.695  39.165   1.580  1.00  0.00    -0.203 F 
HETATM   10  C2  UNL     1     -17.863  37.222   2.735  1.00  0.00    -0.016 A 
HETATM   11  C1  UNL     1     -16.804  36.992   3.778  1.00  0.00     0.056 C 
HETATM   12  S2  UNL     1     -18.142  36.430   1.236  1.00  0.00    -0.074 SA
ENDBRANCH   3   6
ENDBRANCH   1   2
BRANCH   1  13
HETATM   13  S1  UNL     1     -20.290  36.298  -3.749  1.00  0.00    -0.085 SA
BRANCH  13  14
HETATM   14  C8  UNL     1     -18.553  35.937  -3.624  1.00  0.00     0.146 A 
HETATM   15  N2  UNL     1     -18.119  35.272  -2.509  1.00  0.00    -0.339 N 
HETATM   16  C9  UNL     1     -16.868  34.898  -2.291  1.00  0.00     0.032 A 
ATOM     17  H2  UNL     1     -18.811  35.049  -1.793  1.00  0.00     0.168 HD
HETATM   18  C10 UNL     1     -16.463  34.182  -1.052  1.00  0.00     0.070 C 
HETATM   19  C11 UNL     1     -15.916  35.184  -3.235  1.00  0.00     0.094 A 
HETATM   20 CL1  UNL     1     -14.250  34.685  -3.021  1.00  0.00    -0.079 Cl
HETATM   21  C12 UNL     1     -16.331  35.852  -4.358  1.00  0.00     0.129 A 
HETATM   22 CL2  UNL     1     -15.144  36.229  -5.569  1.00  0.00    -0.062 Cl
HETATM   23  N3  UNL     1     -17.632  36.220  -4.545  1.00  0.00    -0.326 N 
ATOM     24  H3  UNL     1     -17.901  36.715  -5.395  1.00  0.00     0.169 HD
ENDBRANCH  13  14
ENDBRANCH   1  13
TORSDOF 4
ENDMDL
MODEL 3
REMARK VINA RESULT: -7.685323300      1.728      2.412
REMARK  4 active torsions:
REMARK  status: ('A' for Active; 'I' for Inactive)
REMARK    1  A    between atoms: C5_6  and  N1_7 
REMARK       I    between atoms: N1_7  and  C6_9 
REMARK    2  A    between atoms: C6_9  and  C7_11 
REMARK    3  A    between atoms: C7_11  and  S1_12 
REMARK    4  A    between atoms: S1_12  and  C8_13 
ROOT
HETATM    1  C7  UNL     1     -20.689  38.970  -2.473  1.00  0.00     0.185 C 
ENDROOT
BRANCH   1   2
HETATM    2  C6  UNL     1     -20.426  38.357  -1.134  1.00  0.00     0.232 C 
HETATM    3  N1  UNL     1     -19.116  38.451  -0.612  1.00  0.00    -0.318 N 
ATOM      4  H1  UNL     1     -18.428  38.977  -1.150  1.00  0.00     0.169 HD
HETATM    5  O1  UNL     1     -21.365  37.788  -0.550  1.00  0.00    -0.272 OA
BRANCH   3   6
HETATM    6  C5  UNL     1     -18.689  37.866   0.612  1.00  0.00     0.116 A 
HETATM    7  C4  UNL     1     -18.912  38.300   1.900  1.00  0.00     0.151 A 
HETATM    8  C3  UNL     1     -18.332  37.613   2.874  1.00  0.00     0.059 A 
HETATM    9  F1  UNL     1     -19.727  39.402   2.099  1.00  0.00    -0.203 F 
HETATM   10  C2  UNL     1     -17.556  36.537   2.559  1.00  0.00    -0.016 A 
HETATM   11  C1  UNL     1     -16.776  35.655   3.494  1.00  0.00     0.056 C 
HETATM   12  S2  UNL     1     -17.674  36.516   0.844  1.00  0.00    -0.074 SA
ENDBRANCH   3   6
ENDBRANCH   1   2
BRANCH   1  13
HETATM   13  S1  UNL     1     -20.558  37.725  -3.753  1.00  0.00    -0.085 SA
BRANCH  13  14
HETATM   14  C8  UNL     1     -18.860  37.294  -4.057  1.00  0.00     0.146 A 
HETATM   15  N2  UNL     1     -18.290  36.344  -3.254  1.00  0.00    -0.339 N 
HETATM   16  C9  UNL     1     -17.053  35.889  -3.380  1.00  0.00     0.032 A 
ATOM     17  H2  UNL     1     -18.860  35.958  -2.501  1.00  0.00     0.168 HD
HETATM   18  C10 UNL     1     -16.494  34.857  -2.467  1.00  0.00     0.070 C 
HETATM   19  C11 UNL     1     -16.262  36.390  -4.382  1.00  0.00     0.094 A 
HETATM   20 CL1  UNL     1     -14.628  35.804  -4.624  1.00  0.00    -0.079 Cl
HETATM   21  C12 UNL     1     -16.814  37.345  -5.196  1.00  0.00     0.129 A 
HETATM   22 CL2  UNL     1     -15.832  37.996  -6.472  1.00  0.00    -0.062 Cl
HETATM   23  N3  UNL     1     -18.095  37.786  -5.031  1.00  0.00    -0.326 N 
ATOM     24  H3  UNL     1     -18.470  38.497  -5.659  1.00  0.00     0.169 HD
ENDBRANCH  13  14
ENDBRANCH   1  13
TORSDOF 4
ENDMDL
MODEL 4
REMARK VINA RESULT: -7.640274453      1.469      1.523
REMARK  4 active torsions:
REMARK  status: ('A' for Active; 'I' for Inactive)
REMARK    1  A    between atoms: C5_6  and  N1_7 
REMARK       I    between atoms: N1_7  and  C6_9 
REMARK    2  A    between atoms: C6_9  and  C7_11 
REMARK    3  A    between atoms: C7_11  and  S1_12 
REMARK    4  A    between atoms: S1_12  and  C8_13 
ROOT
HETATM    1  C7  UNL     1     -20.715  39.042  -2.407  1.00  0.00     0.185 C 
ENDROOT
BRANCH   1   2
HETATM    2  C6  UNL     1     -20.442  38.386  -1.091  1.00  0.00     0.232 C 
HETATM    3  N1  UNL     1     -19.137  38.490  -0.560  1.00  0.00    -0.318 N 
ATOM      4  H1  UNL     1     -18.459  39.049  -1.077  1.00  0.00     0.169 HD
HETATM    5  O1  UNL     1     -21.371  37.776  -0.531  1.00  0.00    -0.272 OA
BRANCH   3   6
HETATM    6  C5  UNL     1     -18.701  37.869   0.643  1.00  0.00     0.116 A 
HETATM    7  C4  UNL     1     -18.863  38.297   1.942  1.00  0.00     0.151 A 
HETATM    8  C3  UNL     1     -18.287  37.572   2.889  1.00  0.00     0.059 A 
HETATM    9  F1  UNL     1     -19.619  39.433   2.178  1.00  0.00    -0.203 F 
HETATM   10  C2  UNL     1     -17.572  36.465   2.539  1.00  0.00    -0.016 A 
HETATM   11  C1  UNL     1     -16.806  35.536   3.439  1.00  0.00     0.056 C 
HETATM   12  S2  UNL     1     -17.743  36.471   0.828  1.00  0.00    -0.074 SA
ENDBRANCH   3   6
ENDBRANCH   1   2
BRANCH   1  13
HETATM   13  S1  UNL     1     -20.636  37.830  -3.722  1.00  0.00    -0.085 SA
BRANCH  13  14
HETATM   14  C8  UNL     1     -18.992  37.173  -3.891  1.00  0.00     0.146 A 
HETATM   15  N2  UNL     1     -18.201  37.681  -4.885  1.00  0.00    -0.339 N 
HETATM   16  C9  UNL     1     -16.946  37.325  -5.111  1.00  0.00     0.032 A 
ATOM     17  H2  UNL     1     -18.609  38.387  -5.499  1.00  0.00     0.168 HD
HETATM   18  C10 UNL     1     -16.144  37.915  -6.216  1.00  0.00     0.070 C 
HETATM   19  C11 UNL     1     -16.371  36.378  -4.303  1.00  0.00     0.094 A 
HETATM   20 CL1  UNL     1     -14.704  35.889  -4.529  1.00  0.00    -0.079 Cl
HETATM   21  C12 UNL     1     -17.148  35.854  -3.304  1.00  0.00     0.129 A 
HETATM   22 CL2  UNL     1     -16.443  34.651  -2.267  1.00  0.00    -0.062 Cl
HETATM   23  N3  UNL     1     -18.439  36.250  -3.104  1.00  0.00    -0.326 N 
ATOM     24  H3  UNL     1     -18.984  35.837  -2.348  1.00  0.00     0.169 HD
ENDBRANCH  13  14
ENDBRANCH   1  13
TORSDOF 4
ENDMDL
MODEL 5
REMARK VINA RESULT: -7.587366313      4.104      7.708
REMARK  4 active torsions:
REMARK  status: ('A' for Active; 'I' for Inactive)
REMARK    1  A    between atoms: C5_6  and  N1_7 
REMARK       I    between atoms: N1_7  and  C6_9 
REMARK    2  A    between atoms: C6_9  and  C7_11 
REMARK    3  A    between atoms: C7_11  and  S1_12 
REMARK    4  A    between atoms: S1_12  and  C8_13 
ROOT
HETATM    1  C7  UNL     1     -15.077  35.302  -2.180  1.00  0.00     0.185 C 
ENDROOT
BRANCH   1   2
HETATM    2  C6  UNL     1     -15.572  35.492  -3.578  1.00  0.00     0.232 C 
HETATM    3  N1  UNL     1     -14.710  36.122  -4.503  1.00  0.00    -0.318 N 
ATOM      4  H1  UNL     1     -13.774  36.371  -4.185  1.00  0.00     0.169 HD
HETATM    5  O1  UNL     1     -16.718  35.095  -3.858  1.00  0.00    -0.272 OA
BRANCH   3   6
HETATM    6  C5  UNL     1     -15.055  36.435  -5.847  1.00  0.00     0.116 A 
HETATM    7  C4  UNL     1     -14.741  35.750  -7.001  1.00  0.00     0.151 A 
HETATM    8  C3  UNL     1     -15.116  36.299  -8.146  1.00  0.00     0.059 A 
HETATM    9  F1  UNL     1     -14.075  34.540  -6.894  1.00  0.00    -0.203 F 
HETATM   10  C2  UNL     1     -15.776  37.492  -8.128  1.00  0.00    -0.016 A 
HETATM   11  C1  UNL     1     -16.246  38.306  -9.302  1.00  0.00     0.056 C 
HETATM   12  S2  UNL     1     -15.860  37.816  -6.442  1.00  0.00    -0.074 SA
ENDBRANCH   3   6
ENDBRANCH   1   2
BRANCH   1  13
HETATM   13  S1  UNL     1     -16.317  34.459  -1.201  1.00  0.00    -0.085 SA
BRANCH  13  14
HETATM   14  C8  UNL     1     -17.069  35.563  -0.028  1.00  0.00     0.146 A 
HETATM   15  N2  UNL     1     -18.211  36.215  -0.408  1.00  0.00    -0.339 N 
HETATM   16  C9  UNL     1     -18.907  37.035   0.364  1.00  0.00     0.032 A 
ATOM     17  H2  UNL     1     -18.552  36.057  -1.357  1.00  0.00     0.168 HD
HETATM   18  C10 UNL     1     -20.139  37.717  -0.116  1.00  0.00     0.070 C 
HETATM   19  C11 UNL     1     -18.474  37.267   1.644  1.00  0.00     0.094 A 
HETATM   20 CL1  UNL     1     -19.369  38.314   2.727  1.00  0.00    -0.079 Cl
HETATM   21  C12 UNL     1     -17.330  36.626   2.043  1.00  0.00     0.129 A 
HETATM   22 CL2  UNL     1     -16.759  36.904   3.660  1.00  0.00    -0.062 Cl
HETATM   23  N3  UNL     1     -16.642  35.787   1.214  1.00  0.00    -0.326 N 
ATOM     24  H3  UNL     1     -15.795  35.327   1.549  1.00  0.00     0.169 HD
ENDBRANCH  13  14
ENDBRANCH   1  13
TORSDOF 4
ENDMDL
