MODEL 1
REMARK VINA RESULT: -6.572696075      0.000      0.000
REMARK  6 active torsions:
REMARK  status: ('A' for Active; 'I' for Inactive)
REMARK    1  A    between atoms: N1_2  and  C2_4 
REMARK    2  A    between atoms: C2_4  and  N2_6 
REMARK    3  A    between atoms: N2_6  and  N3_8 
REMARK       I    between atoms: N3_8  and  C3_10 
REMARK    4  A    between atoms: C3_10  and  C4_12 
REMARK    5  A    between atoms: C4_12  and  N4_13 
REMARK    6  A    between atoms: C4_12  and  C5_17 
REMARK       I    between atoms: C5_17  and  N5_19 
ROOT
HETATM    1  C4  UNL     1      14.260  11.190  58.683  1.00  0.00     0.367 C 
ENDROOT
BRANCH   1   2
HETATM    2  C3  UNL     1      13.445  12.393  59.091  1.00  0.00     0.276 C 
HETATM    3  N3  UNL     1      13.957  13.695  58.892  1.00  0.00    -0.266 N 
ATOM      4  H3  UNL     1      14.879  13.796  58.467  1.00  0.00     0.190 HD
HETATM    5  O1  UNL     1      12.334  12.193  59.596  1.00  0.00    -0.269 OA
BRANCH   3   6
HETATM    6  N2  UNL     1      13.262  14.839  59.248  1.00  0.00    -0.274 N 
ATOM      7  H2  UNL     1      12.591  15.229  58.587  1.00  0.00     0.189 HD
BRANCH   6   8
HETATM    8  C2  UNL     1      13.444  15.489  60.487  1.00  0.00     0.186 C 
HETATM    9  S1  UNL     1      12.363  16.612  61.025  1.00  0.00    -0.040 SA
BRANCH   8  10
HETATM   10  N1  UNL     1      14.572  15.169  61.280  1.00  0.00    -0.370 N 
HETATM   11  C1  UNL     1      14.430  14.261  62.428  1.00  0.00     0.148 C 
ATOM     12  H1  UNL     1      15.483  15.569  61.056  1.00  0.00     0.161 HD
ENDBRANCH   8  10
ENDBRANCH   6   8
ENDBRANCH   3   6
ENDBRANCH   1   2
BRANCH   1  13
HETATM   13  N4  UNL     1      15.217  10.854  59.694  1.00  0.00    -0.058 N 
ATOM     14  H43 UNL     1      15.748  10.019  59.447  1.00  0.00     0.275 HD
ATOM     15  H42 UNL     1      15.986  11.523  59.724  1.00  0.00     0.275 HD
ATOM     16  H41 UNL     1      14.767  10.758  60.604  1.00  0.00     0.275 HD
ENDBRANCH   1  13
BRANCH   1  17
HETATM   17  C5  UNL     1      14.837  11.342  57.334  1.00  0.00     0.260 C 
HETATM   18  O2  UNL     1      15.695  12.273  57.151  1.00  0.00    -0.270 OA
HETATM   19  N5  UNL     1      14.481  10.509  56.254  1.00  0.00    -0.350 N 
HETATM   20  C6  UNL     1      15.094  10.600  54.920  1.00  0.00     0.126 C 
HETATM   21  C9  UNL     1      13.469   9.482  56.237  1.00  0.00     0.126 C 
HETATM   22  C7  UNL     1      14.765   9.249  54.291  1.00  0.00     0.021 C 
HETATM   23  C8  UNL     1      13.320   9.088  54.764  1.00  0.00     0.021 C 
ENDBRANCH   1  17
TORSDOF 6
ENDMDL
MODEL 2
REMARK VINA RESULT: -6.536299342      3.453      4.783
REMARK  6 active torsions:
REMARK  status: ('A' for Active; 'I' for Inactive)
REMARK    1  A    between atoms: N1_2  and  C2_4 
REMARK    2  A    between atoms: C2_4  and  N2_6 
REMARK    3  A    between atoms: N2_6  and  N3_8 
REMARK       I    between atoms: N3_8  and  C3_10 
REMARK    4  A    between atoms: C3_10  and  C4_12 
REMARK    5  A    between atoms: C4_12  and  N4_13 
REMARK    6  A    between atoms: C4_12  and  C5_17 
REMARK       I    between atoms: C5_17  and  N5_19 
ROOT
HETATM    1  C4  UNL     1      12.541  14.344  60.527  1.00  0.00     0.367 C 
ENDROOT
BRANCH   1   2
HETATM    2  C3  UNL     1      12.598  15.486  61.512  1.00  0.00     0.276 C 
HETATM    3  N3  UNL     1      13.819  15.821  62.138  1.00  0.00    -0.266 N 
ATOM      4  H3  UNL     1      14.651  15.277  61.906  1.00  0.00     0.190 HD
HETATM    5  O1  UNL     1      11.550  16.103  61.740  1.00  0.00    -0.269 OA
BRANCH   3   6
HETATM    6  N2  UNL     1      13.937  16.854  63.054  1.00  0.00    -0.274 N 
ATOM      7  H2  UNL     1      13.194  17.551  63.104  1.00  0.00     0.189 HD
BRANCH   6   8
HETATM    8  C2  UNL     1      15.043  16.983  63.921  1.00  0.00     0.186 C 
HETATM    9  S1  UNL     1      15.448  15.775  64.967  1.00  0.00    -0.040 SA
BRANCH   8  10
HETATM   10  N1  UNL     1      15.817  18.167  63.888  1.00  0.00    -0.370 N 
HETATM   11  C1  UNL     1      16.189  18.838  65.143  1.00  0.00     0.148 C 
ATOM     12  H1  UNL     1      16.118  18.555  62.993  1.00  0.00     0.161 HD
ENDBRANCH   8  10
ENDBRANCH   6   8
ENDBRANCH   3   6
ENDBRANCH   1   2
BRANCH   1  13
HETATM   13  N4  UNL     1      11.188  14.050  60.163  1.00  0.00    -0.058 N 
ATOM     14  H43 UNL     1      11.040  13.049  60.040  1.00  0.00     0.275 HD
ATOM     15  H42 UNL     1      10.545  14.206  60.939  1.00  0.00     0.275 HD
ATOM     16  H41 UNL     1      10.911  14.577  59.334  1.00  0.00     0.275 HD
ENDBRANCH   1  13
BRANCH   1  17
HETATM   17  C5  UNL     1      13.309  13.173  60.990  1.00  0.00     0.260 C 
HETATM   18  O2  UNL     1      13.064  12.721  62.161  1.00  0.00    -0.270 OA
HETATM   19  N5  UNL     1      14.290  12.543  60.197  1.00  0.00    -0.350 N 
HETATM   20  C6  UNL     1      15.018  11.334  60.613  1.00  0.00     0.126 C 
HETATM   21  C9  UNL     1      14.775  12.963  58.906  1.00  0.00     0.126 C 
HETATM   22  C7  UNL     1      15.561  10.783  59.298  1.00  0.00     0.021 C 
HETATM   23  C8  UNL     1      16.003  12.087  58.633  1.00  0.00     0.021 C 
ENDBRANCH   1  17
TORSDOF 6
ENDMDL
MODEL 3
REMARK VINA RESULT: -6.511034422      3.681      4.867
REMARK  6 active torsions:
REMARK  status: ('A' for Active; 'I' for Inactive)
REMARK    1  A    between atoms: N1_2  and  C2_4 
REMARK    2  A    between atoms: C2_4  and  N2_6 
REMARK    3  A    between atoms: N2_6  and  N3_8 
REMARK       I    between atoms: N3_8  and  C3_10 
REMARK    4  A    between atoms: C3_10  and  C4_12 
REMARK    5  A    between atoms: C4_12  and  N4_13 
REMARK    6  A    between atoms: C4_12  and  C5_17 
REMARK       I    between atoms: C5_17  and  N5_19 
ROOT
HETATM    1  C4  UNL     1      12.950  14.534  59.900  1.00  0.00     0.367 C 
ENDROOT
BRANCH   1   2
HETATM    2  C3  UNL     1      13.107  15.779  60.739  1.00  0.00     0.276 C 
HETATM    3  N3  UNL     1      13.756  15.711  61.992  1.00  0.00    -0.266 N 
ATOM      4  H3  UNL     1      14.112  14.809  62.307  1.00  0.00     0.190 HD
HETATM    5  O1  UNL     1      12.655  16.839  60.289  1.00  0.00    -0.269 OA
BRANCH   3   6
HETATM    6  N2  UNL     1      13.930  16.815  62.811  1.00  0.00    -0.274 N 
ATOM      7  H2  UNL     1      13.597  17.722  62.485  1.00  0.00     0.189 HD
BRANCH   6   8
HETATM    8  C2  UNL     1      14.548  16.737  64.076  1.00  0.00     0.186 C 
HETATM    9  S1  UNL     1      15.589  15.511  64.439  1.00  0.00    -0.040 SA
BRANCH   8  10
HETATM   10  N1  UNL     1      14.271  17.728  65.048  1.00  0.00    -0.370 N 
HETATM   11  C1  UNL     1      14.243  17.372  66.474  1.00  0.00     0.148 C 
ATOM     12  H1  UNL     1      14.090  18.690  64.758  1.00  0.00     0.161 HD
ENDBRANCH   8  10
ENDBRANCH   6   8
ENDBRANCH   3   6
ENDBRANCH   1   2
BRANCH   1  13
HETATM   13  N4  UNL     1      11.626  14.445  59.362  1.00  0.00    -0.058 N 
ATOM     14  H43 UNL     1      10.975  14.033  60.029  1.00  0.00     0.275 HD
ATOM     15  H42 UNL     1      11.192  15.364  59.271  1.00  0.00     0.275 HD
ATOM     16  H41 UNL     1      11.626  13.941  58.475  1.00  0.00     0.275 HD
ENDBRANCH   1  13
BRANCH   1  17
HETATM   17  C5  UNL     1      13.392  13.323  60.616  1.00  0.00     0.260 C 
HETATM   18  O2  UNL     1      12.663  12.895  61.576  1.00  0.00    -0.270 OA
HETATM   19  N5  UNL     1      14.574  12.630  60.285  1.00  0.00    -0.350 N 
HETATM   20  C6  UNL     1      14.997  11.383  60.941  1.00  0.00     0.126 C 
HETATM   21  C9  UNL     1      15.568  13.010  59.313  1.00  0.00     0.126 C 
HETATM   22  C7  UNL     1      15.999  10.791  59.954  1.00  0.00     0.021 C 
HETATM   23  C8  UNL     1      16.748  12.061  59.552  1.00  0.00     0.021 C 
ENDBRANCH   1  17
TORSDOF 6
ENDMDL
MODEL 4
REMARK VINA RESULT: -6.461255353      3.151      4.400
REMARK  6 active torsions:
REMARK  status: ('A' for Active; 'I' for Inactive)
REMARK    1  A    between atoms: N1_2  and  C2_4 
REMARK    2  A    between atoms: C2_4  and  N2_6 
REMARK    3  A    between atoms: N2_6  and  N3_8 
REMARK       I    between atoms: N3_8  and  C3_10 
REMARK    4  A    between atoms: C3_10  and  C4_12 
REMARK    5  A    between atoms: C4_12  and  N4_13 
REMARK    6  A    between atoms: C4_12  and  C5_17 
REMARK       I    between atoms: C5_17  and  N5_19 
ROOT
HETATM    1  C4  UNL     1      12.382  14.662  60.048  1.00  0.00     0.367 C 
ENDROOT
BRANCH   1   2
HETATM    2  C3  UNL     1      12.392  15.642  61.197  1.00  0.00     0.276 C 
HETATM    3  N3  UNL     1      13.607  15.963  61.841  1.00  0.00    -0.266 N 
ATOM      4  H3  UNL     1      14.466  15.522  61.511  1.00  0.00     0.190 HD
HETATM    5  O1  UNL     1      11.313  16.140  61.539  1.00  0.00    -0.269 OA
BRANCH   3   6
HETATM    6  N2  UNL     1      13.684  16.851  62.902  1.00  0.00    -0.274 N 
ATOM      7  H2  UNL     1      13.003  17.608  62.957  1.00  0.00     0.189 HD
BRANCH   6   8
HETATM    8  C2  UNL     1      14.666  16.751  63.911  1.00  0.00     0.186 C 
HETATM    9  S1  UNL     1      14.459  17.485  65.373  1.00  0.00    -0.040 SA
BRANCH   8  10
HETATM   10  N1  UNL     1      15.844  16.008  63.663  1.00  0.00    -0.370 N 
HETATM   11  C1  UNL     1      16.022  14.685  64.279  1.00  0.00     0.148 C 
ATOM     12  H1  UNL     1      16.570  16.390  63.056  1.00  0.00     0.161 HD
ENDBRANCH   8  10
ENDBRANCH   6   8
ENDBRANCH   3   6
ENDBRANCH   1   2
BRANCH   1  13
HETATM   13  N4  UNL     1      11.075  14.567  59.470  1.00  0.00    -0.058 N 
ATOM     14  H43 UNL     1      10.391  14.220  60.141  1.00  0.00     0.275 HD
ATOM     15  H42 UNL     1      10.670  15.487  59.299  1.00  0.00     0.275 HD
ATOM     16  H41 UNL     1      11.093  14.000  58.622  1.00  0.00     0.275 HD
ENDBRANCH   1  13
BRANCH   1  17
HETATM   17  C5  UNL     1      12.972  13.363  60.421  1.00  0.00     0.260 C 
HETATM   18  O2  UNL     1      12.558  12.803  61.494  1.00  0.00    -0.270 OA
HETATM   19  N5  UNL     1      13.963  12.725  59.648  1.00  0.00    -0.350 N 
HETATM   20  C6  UNL     1      14.515  11.399  59.966  1.00  0.00     0.126 C 
HETATM   21  C9  UNL     1      14.624  13.240  58.475  1.00  0.00     0.126 C 
HETATM   22  C7  UNL     1      15.137  10.953  58.646  1.00  0.00     0.021 C 
HETATM   23  C8  UNL     1      15.778  12.269  58.204  1.00  0.00     0.021 C 
ENDBRANCH   1  17
TORSDOF 6
ENDMDL
MODEL 5
REMARK VINA RESULT: -6.394711891      1.725      1.927
REMARK  6 active torsions:
REMARK  status: ('A' for Active; 'I' for Inactive)
REMARK    1  A    between atoms: N1_2  and  C2_4 
REMARK    2  A    between atoms: C2_4  and  N2_6 
REMARK    3  A    between atoms: N2_6  and  N3_8 
REMARK       I    between atoms: N3_8  and  C3_10 
REMARK    4  A    between atoms: C3_10  and  C4_12 
REMARK    5  A    between atoms: C4_12  and  N4_13 
REMARK    6  A    between atoms: C4_12  and  C5_17 
REMARK       I    between atoms: C5_17  and  N5_19 
ROOT
HETATM    1  C4  UNL     1      15.678  12.014  58.670  1.00  0.00     0.367 C 
ENDROOT
BRANCH   1   2
HETATM    2  C3  UNL     1      15.312  13.374  59.212  1.00  0.00     0.276 C 
HETATM    3  N3  UNL     1      14.081  13.969  58.857  1.00  0.00    -0.266 N 
ATOM      4  H3  UNL     1      13.455  13.458  58.234  1.00  0.00     0.190 HD
HETATM    5  O1  UNL     1      16.119  13.931  59.965  1.00  0.00    -0.269 OA
BRANCH   3   6
HETATM    6  N2  UNL     1      13.687  15.215  59.316  1.00  0.00    -0.274 N 
ATOM      7  H2  UNL     1      14.255  16.027  59.075  1.00  0.00     0.189 HD
BRANCH   6   8
HETATM    8  C2  UNL     1      12.532  15.409  60.103  1.00  0.00     0.186 C 
HETATM    9  S1  UNL     1      12.400  16.705  61.113  1.00  0.00    -0.040 SA
BRANCH   8  10
HETATM   10  N1  UNL     1      11.472  14.476  60.021  1.00  0.00    -0.370 N 
HETATM   11  C1  UNL     1      11.433  13.324  60.935  1.00  0.00     0.148 C 
ATOM     12  H1  UNL     1      10.733  14.602  59.328  1.00  0.00     0.161 HD
ENDBRANCH   8  10
ENDBRANCH   6   8
ENDBRANCH   3   6
ENDBRANCH   1   2
BRANCH   1  13
HETATM   13  N4  UNL     1      17.020  11.664  59.030  1.00  0.00    -0.058 N 
ATOM     14  H43 UNL     1      17.643  12.470  58.986  1.00  0.00     0.275 HD
ATOM     15  H42 UNL     1      17.102  11.461  60.026  1.00  0.00     0.275 HD
ATOM     16  H41 UNL     1      17.361  10.892  58.459  1.00  0.00     0.275 HD
ENDBRANCH   1  13
BRANCH   1  17
HETATM   17  C5  UNL     1      15.392  11.894  57.228  1.00  0.00     0.260 C 
HETATM   18  O2  UNL     1      15.942  12.735  56.437  1.00  0.00    -0.270 OA
HETATM   19  N5  UNL     1      14.543  10.901  56.699  1.00  0.00    -0.350 N 
HETATM   20  C6  UNL     1      14.297  10.723  55.259  1.00  0.00     0.126 C 
HETATM   21  C9  UNL     1      13.758   9.939  57.432  1.00  0.00     0.126 C 
HETATM   22  C7  UNL     1      13.755   9.300  55.170  1.00  0.00     0.021 C 
HETATM   23  C8  UNL     1      12.834   9.297  56.391  1.00  0.00     0.021 C 
ENDBRANCH   1  17
TORSDOF 6
ENDMDL
