MODEL 1
REMARK VINA RESULT: -6.523375922      0.000      0.000
REMARK  6 active torsions:
REMARK  status: ('A' for Active; 'I' for Inactive)
REMARK       I    between atoms: C2_2  and  N1_4 
REMARK    1  A    between atoms: N1_4  and  C3_6 
REMARK    2  A    between atoms: C3_6  and  C4_7 
REMARK       I    between atoms: C4_7  and  N2_9 
REMARK    3  A    between atoms: N2_9  and  N3_11 
REMARK    4  A    between atoms: N3_11  and  C6_13 
REMARK    5  A    between atoms: C6_13  and  N4_15 
REMARK    6  A    between atoms: N4_15  and  N5_17 
REMARK       I    between atoms: N5_17  and  C7_19 
ROOT
HETATM    1  N3  UNL     1      15.430  13.509  60.868  1.00  0.00    -0.271 N 
ATOM      2  H3  UNL     1      16.397  13.703  60.609  1.00  0.00     0.189 HD
ENDROOT
BRANCH   1   3
HETATM    3  N2  UNL     1      15.070  12.164  60.835  1.00  0.00    -0.262 N 
HETATM    4  C4  UNL     1      15.741  11.235  59.996  1.00  0.00     0.255 C 
HETATM    5  O2  UNL     1      15.406  10.062  59.956  1.00  0.00    -0.270 OA
HETATM    6  C5  UNL     1      13.976  11.612  61.638  1.00  0.00     0.181 C 
BRANCH   4   7
HETATM    7  C3  UNL     1      16.855  11.754  59.182  1.00  0.00     0.227 C 
BRANCH   7   8
HETATM    8  N1  UNL     1      16.519  11.711  57.784  1.00  0.00    -0.353 N 
HETATM    9  C2  UNL     1      15.635  12.653  57.200  1.00  0.00     0.213 C 
HETATM   10  C1  UNL     1      15.287  12.613  55.749  1.00  0.00     0.117 C 
HETATM   11  O1  UNL     1      15.078  13.594  57.850  1.00  0.00    -0.274 OA
ATOM     12  H1  UNL     1      16.927  10.984  57.197  1.00  0.00     0.162 HD
ENDBRANCH   7   8
ENDBRANCH   4   7
ENDBRANCH   1   3
BRANCH   1  13
HETATM   13  C6  UNL     1      14.675  14.625  61.199  1.00  0.00     0.205 C 
HETATM   14  S1  UNL     1      14.621  15.204  62.754  1.00  0.00    -0.038 SA
BRANCH  13  15
HETATM   15  N4  UNL     1      13.887  15.335  60.258  1.00  0.00    -0.271 N 
ATOM     16  H4  UNL     1      14.084  16.325  60.109  1.00  0.00     0.189 HD
BRANCH  15  17
HETATM   17  N5  UNL     1      12.866  14.751  59.534  1.00  0.00    -0.252 N 
HETATM   18  C7  UNL     1      11.584  14.578  60.090  1.00  0.00     0.347 C 
HETATM   19  N6  UNL     1      10.542  13.960  59.314  1.00  0.00    -0.038 NA
HETATM   20  O3  UNL     1      11.362  14.964  61.257  1.00  0.00    -0.249 OA
ATOM     21  H5  UNL     1      13.044  14.439  58.580  1.00  0.00     0.191 HD
ENDBRANCH  15  17
ENDBRANCH  13  15
ENDBRANCH   1  13
TORSDOF 6
ENDMDL
MODEL 2
REMARK VINA RESULT: -6.402528723      2.788      4.050
REMARK  6 active torsions:
REMARK  status: ('A' for Active; 'I' for Inactive)
REMARK       I    between atoms: C2_2  and  N1_4 
REMARK    1  A    between atoms: N1_4  and  C3_6 
REMARK    2  A    between atoms: C3_6  and  C4_7 
REMARK       I    between atoms: C4_7  and  N2_9 
REMARK    3  A    between atoms: N2_9  and  N3_11 
REMARK    4  A    between atoms: N3_11  and  C6_13 
REMARK    5  A    between atoms: C6_13  and  N4_15 
REMARK    6  A    between atoms: N4_15  and  N5_17 
REMARK       I    between atoms: N5_17  and  C7_19 
ROOT
HETATM    1  N3  UNL     1      14.022  11.974  60.092  1.00  0.00    -0.271 N 
ATOM      2  H3  UNL     1      13.580  11.925  61.011  1.00  0.00     0.189 HD
ENDROOT
BRANCH   1   3
HETATM    3  N2  UNL     1      15.398  11.770  60.089  1.00  0.00    -0.262 N 
HETATM    4  C4  UNL     1      16.311  12.850  60.223  1.00  0.00     0.255 C 
HETATM    5  O2  UNL     1      17.517  12.667  60.198  1.00  0.00    -0.270 OA
HETATM    6  C5  UNL     1      16.008  10.447  59.931  1.00  0.00     0.181 C 
BRANCH   4   7
HETATM    7  C3  UNL     1      15.732  14.195  60.396  1.00  0.00     0.227 C 
BRANCH   7   8
HETATM    8  N1  UNL     1      15.942  14.664  61.739  1.00  0.00    -0.353 N 
HETATM    9  C2  UNL     1      15.034  14.363  62.785  1.00  0.00     0.213 C 
HETATM   10  C1  UNL     1      15.250  14.846  64.181  1.00  0.00     0.117 C 
HETATM   11  O1  UNL     1      13.980  13.668  62.625  1.00  0.00    -0.274 OA
ATOM     12  H1  UNL     1      16.766  15.229  61.945  1.00  0.00     0.162 HD
ENDBRANCH   7   8
ENDBRANCH   4   7
ENDBRANCH   1   3
BRANCH   1  13
HETATM   13  C6  UNL     1      13.157  12.233  59.038  1.00  0.00     0.205 C 
HETATM   14  S1  UNL     1      13.056  11.216  57.730  1.00  0.00    -0.038 SA
BRANCH  13  15
HETATM   15  N4  UNL     1      12.322  13.377  58.984  1.00  0.00    -0.271 N 
ATOM     16  H4  UNL     1      12.123  13.791  58.073  1.00  0.00     0.189 HD
BRANCH  15  17
HETATM   17  N5  UNL     1      11.765  13.960  60.106  1.00  0.00    -0.252 N 
HETATM   18  C7  UNL     1      12.005  15.311  60.423  1.00  0.00     0.347 C 
HETATM   19  N6  UNL     1      11.418  15.888  61.602  1.00  0.00    -0.038 NA
HETATM   20  O3  UNL     1      12.730  15.999  59.673  1.00  0.00    -0.249 OA
ATOM     21  H5  UNL     1      11.170  13.401  60.718  1.00  0.00     0.191 HD
ENDBRANCH  15  17
ENDBRANCH  13  15
ENDBRANCH   1  13
TORSDOF 6
ENDMDL
MODEL 3
REMARK VINA RESULT: -6.271782773      1.637      1.960
REMARK  6 active torsions:
REMARK  status: ('A' for Active; 'I' for Inactive)
REMARK       I    between atoms: C2_2  and  N1_4 
REMARK    1  A    between atoms: N1_4  and  C3_6 
REMARK    2  A    between atoms: C3_6  and  C4_7 
REMARK       I    between atoms: C4_7  and  N2_9 
REMARK    3  A    between atoms: N2_9  and  N3_11 
REMARK    4  A    between atoms: N3_11  and  C6_13 
REMARK    5  A    between atoms: C6_13  and  N4_15 
REMARK    6  A    between atoms: N4_15  and  N5_17 
REMARK       I    between atoms: N5_17  and  C7_19 
ROOT
HETATM    1  N3  UNL     1      15.114  13.419  60.978  1.00  0.00    -0.271 N 
ATOM      2  H3  UNL     1      14.534  12.587  61.092  1.00  0.00     0.189 HD
ENDROOT
BRANCH   1   3
HETATM    3  N2  UNL     1      16.406  13.177  60.520  1.00  0.00    -0.262 N 
HETATM    4  C4  UNL     1      16.815  11.884  60.096  1.00  0.00     0.255 C 
HETATM    5  O2  UNL     1      17.957  11.674  59.716  1.00  0.00    -0.270 OA
HETATM    6  C5  UNL     1      17.438  14.216  60.457  1.00  0.00     0.181 C 
BRANCH   4   7
HETATM    7  C3  UNL     1      15.800  10.816  60.135  1.00  0.00     0.227 C 
BRANCH   7   8
HETATM    8  N1  UNL     1      15.243  10.604  58.826  1.00  0.00    -0.353 N 
HETATM    9  C2  UNL     1      13.959  11.089  58.474  1.00  0.00     0.213 C 
HETATM   10  C1  UNL     1      13.380  10.873  57.115  1.00  0.00     0.117 C 
HETATM   11  O1  UNL     1      13.208  11.739  59.270  1.00  0.00    -0.274 OA
ATOM     12  H1  UNL     1      15.787  10.090  58.133  1.00  0.00     0.162 HD
ENDBRANCH   7   8
ENDBRANCH   4   7
ENDBRANCH   1   3
BRANCH   1  13
HETATM   13  C6  UNL     1      14.494  14.617  61.303  1.00  0.00     0.205 C 
HETATM   14  S1  UNL     1      14.555  15.234  62.843  1.00  0.00    -0.038 SA
BRANCH  13  15
HETATM   15  N4  UNL     1      13.754  15.384  60.369  1.00  0.00    -0.271 N 
ATOM     16  H4  UNL     1      13.967  16.378  60.280  1.00  0.00     0.189 HD
BRANCH  15  17
HETATM   17  N5  UNL     1      12.758  14.852  59.574  1.00  0.00    -0.252 N 
HETATM   18  C7  UNL     1      11.475  14.585  60.092  1.00  0.00     0.347 C 
HETATM   19  N6  UNL     1      10.460  14.024  59.241  1.00  0.00    -0.038 NA
HETATM   20  O3  UNL     1      11.230  14.840  61.289  1.00  0.00    -0.249 OA
ATOM     21  H5  UNL     1      12.954  14.647  58.595  1.00  0.00     0.191 HD
ENDBRANCH  15  17
ENDBRANCH  13  15
ENDBRANCH   1  13
TORSDOF 6
ENDMDL
MODEL 4
REMARK VINA RESULT: -6.270595905      1.845      2.058
REMARK  6 active torsions:
REMARK  status: ('A' for Active; 'I' for Inactive)
REMARK       I    between atoms: C2_2  and  N1_4 
REMARK    1  A    between atoms: N1_4  and  C3_6 
REMARK    2  A    between atoms: C3_6  and  C4_7 
REMARK       I    between atoms: C4_7  and  N2_9 
REMARK    3  A    between atoms: N2_9  and  N3_11 
REMARK    4  A    between atoms: N3_11  and  C6_13 
REMARK    5  A    between atoms: C6_13  and  N4_15 
REMARK    6  A    between atoms: N4_15  and  N5_17 
REMARK       I    between atoms: N5_17  and  C7_19 
ROOT
HETATM    1  N3  UNL     1      15.284  13.600  59.617  1.00  0.00    -0.271 N 
ATOM      2  H3  UNL     1      15.428  13.985  58.683  1.00  0.00     0.189 HD
ENDROOT
BRANCH   1   3
HETATM    3  N2  UNL     1      15.747  12.300  59.797  1.00  0.00    -0.262 N 
HETATM    4  C4  UNL     1      15.051  11.182  59.264  1.00  0.00     0.255 C 
HETATM    5  O2  UNL     1      15.450  10.043  59.443  1.00  0.00    -0.270 OA
HETATM    6  C5  UNL     1      16.960  11.982  60.554  1.00  0.00     0.181 C 
BRANCH   4   7
HETATM    7  C3  UNL     1      13.831  11.465  58.486  1.00  0.00     0.227 C 
BRANCH   7   8
HETATM    8  N1  UNL     1      13.527  10.365  57.610  1.00  0.00    -0.353 N 
HETATM    9  C2  UNL     1      13.767  10.434  56.215  1.00  0.00     0.213 C 
HETATM   10  C1  UNL     1      13.455   9.292  55.304  1.00  0.00     0.117 C 
HETATM   11  O1  UNL     1      14.260  11.452  55.634  1.00  0.00    -0.274 OA
ATOM     12  H1  UNL     1      13.128   9.512  58.004  1.00  0.00     0.162 HD
ENDBRANCH   7   8
ENDBRANCH   4   7
ENDBRANCH   1   3
BRANCH   1  13
HETATM   13  C6  UNL     1      14.657  14.455  60.514  1.00  0.00     0.205 C 
HETATM   14  S1  UNL     1      15.005  14.414  62.137  1.00  0.00    -0.038 SA
BRANCH  13  15
HETATM   15  N4  UNL     1      13.673  15.398  60.126  1.00  0.00    -0.271 N 
ATOM     16  H4  UNL     1      13.786  16.367  60.423  1.00  0.00     0.189 HD
BRANCH  15  17
HETATM   17  N5  UNL     1      12.569  15.068  59.364  1.00  0.00    -0.252 N 
HETATM   18  C7  UNL     1      11.438  14.461  59.943  1.00  0.00     0.347 C 
HETATM   19  N6  UNL     1      10.306  14.122  59.123  1.00  0.00    -0.038 NA
HETATM   20  O3  UNL     1      11.429  14.221  61.169  1.00  0.00    -0.249 OA
ATOM     21  H5  UNL     1      12.573  15.267  58.364  1.00  0.00     0.191 HD
ENDBRANCH  15  17
ENDBRANCH  13  15
ENDBRANCH   1  13
TORSDOF 6
ENDMDL
MODEL 5
REMARK VINA RESULT: -6.258964085      2.932      5.262
REMARK  6 active torsions:
REMARK  status: ('A' for Active; 'I' for Inactive)
REMARK       I    between atoms: C2_2  and  N1_4 
REMARK    1  A    between atoms: N1_4  and  C3_6 
REMARK    2  A    between atoms: C3_6  and  C4_7 
REMARK       I    between atoms: C4_7  and  N2_9 
REMARK    3  A    between atoms: N2_9  and  N3_11 
REMARK    4  A    between atoms: N3_11  and  C6_13 
REMARK    5  A    between atoms: C6_13  and  N4_15 
REMARK    6  A    between atoms: N4_15  and  N5_17 
REMARK       I    between atoms: N5_17  and  C7_19 
ROOT
HETATM    1  N3  UNL     1      12.865  11.929  58.793  1.00  0.00    -0.271 N 
ATOM      2  H3  UNL     1      12.479  11.004  58.983  1.00  0.00     0.189 HD
ENDROOT
BRANCH   1   3
HETATM    3  N2  UNL     1      12.592  12.891  59.762  1.00  0.00    -0.262 N 
HETATM    4  C4  UNL     1      13.117  12.790  61.078  1.00  0.00     0.255 C 
HETATM    5  O2  UNL     1      12.856  13.625  61.930  1.00  0.00    -0.270 OA
HETATM    6  C5  UNL     1      11.741  14.057  59.511  1.00  0.00     0.181 C 
BRANCH   4   7
HETATM    7  C3  UNL     1      13.987  11.635  61.364  1.00  0.00     0.227 C 
BRANCH   7   8
HETATM    8  N1  UNL     1      15.353  11.942  61.035  1.00  0.00    -0.353 N 
HETATM    9  C2  UNL     1      16.142  11.074  60.238  1.00  0.00     0.213 C 
HETATM   10  C1  UNL     1      17.559  11.392  59.893  1.00  0.00     0.117 C 
HETATM   11  O1  UNL     1      15.717   9.976  59.759  1.00  0.00    -0.274 OA
ATOM     12  H1  UNL     1      15.766  12.807  61.384  1.00  0.00     0.162 HD
ENDBRANCH   7   8
ENDBRANCH   4   7
ENDBRANCH   1   3
BRANCH   1  13
HETATM   13  C6  UNL     1      13.582  12.035  57.610  1.00  0.00     0.205 C 
HETATM   14  S1  UNL     1      14.920  13.012  57.492  1.00  0.00    -0.038 SA
BRANCH  13  15
HETATM   15  N4  UNL     1      13.224  11.348  56.423  1.00  0.00    -0.271 N 
ATOM     16  H4  UNL     1      12.238  11.147  56.257  1.00  0.00     0.189 HD
BRANCH  15  17
HETATM   17  N5  UNL     1      14.147  10.937  55.480  1.00  0.00    -0.252 N 
HETATM   18  C7  UNL     1      14.069   9.660  54.891  1.00  0.00     0.347 C 
HETATM   19  N6  UNL     1      15.049   9.258  53.917  1.00  0.00    -0.038 NA
HETATM   20  O3  UNL     1      13.147   8.886  55.222  1.00  0.00    -0.249 OA
ATOM     21  H5  UNL     1      14.898  11.570  55.205  1.00  0.00     0.191 HD
ENDBRANCH  15  17
ENDBRANCH  13  15
ENDBRANCH   1  13
TORSDOF 6
ENDMDL
