MODEL 1
REMARK VINA RESULT: -7.217905378      0.000      0.000
REMARK  5 active torsions:
REMARK  status: ('A' for Active; 'I' for Inactive)
REMARK    1  A    between atoms: N1_1  and  C1_5 
REMARK    2  A    between atoms: C1_5  and  C2_6 
REMARK    3  A    between atoms: C2_6  and  N2_7 
REMARK    4  A    between atoms: N5_16  and  N6_17 
REMARK       I    between atoms: N6_17  and  C8_19 
REMARK    5  A    between atoms: C8_19  and  C9_21 
ROOT
HETATM    1  C2  UNL     1      15.111  11.774  58.703  1.00  0.00     0.090 C 
HETATM    2  C4  UNL     1      16.056  11.023  59.621  1.00  0.00     0.038 C 
HETATM    3  C5  UNL     1      17.249  11.827  60.029  1.00  0.00     0.008 C 
HETATM    4  C6  UNL     1      16.961  12.689  61.219  1.00  0.00     0.047 C 
HETATM    5  C7  UNL     1      15.492  12.913  61.465  1.00  0.00     0.088 C 
HETATM    6  N5  UNL     1      14.765  13.495  60.458  1.00  0.00    -0.281 N 
HETATM    7  C10 UNL     1      14.808  13.154  59.125  1.00  0.00     0.121 C 
ENDROOT
BRANCH   1   8
HETATM    8  C1  UNL     1      13.889  10.897  58.538  1.00  0.00     0.266 C 
BRANCH   8   9
HETATM    9  N1  UNL     1      12.655  11.577  58.685  1.00  0.00    -0.077 N 
ATOM     10  H13 UNL     1      11.876  10.942  58.511  1.00  0.00     0.274 HD
ATOM     11  H12 UNL     1      12.485  11.798  59.666  1.00  0.00     0.274 HD
ATOM     12  H11 UNL     1      12.565  12.415  58.111  1.00  0.00     0.274 HD
ENDBRANCH   8   9
ENDBRANCH   1   8
BRANCH   1  13
HETATM   13  N2  UNL     1      15.790  11.859  57.429  1.00  0.00    -0.351 N 
HETATM   14  C3  UNL     1      15.297  12.000  56.280  1.00  0.00     0.197 C 
HETATM   15  N3  UNL     1      13.934  12.114  55.937  1.00  0.00    -0.067 NA
HETATM   16  N4  UNL     1      16.221  12.051  55.192  1.00  0.00    -0.067 NA
ATOM     17  H2  UNL     1      16.807  11.796  57.468  1.00  0.00     0.163 HD
ENDBRANCH   1  13
BRANCH   6  18
HETATM   18  N6  UNL     1      14.030  14.649  60.687  1.00  0.00    -0.257 N 
HETATM   19  C8  UNL     1      12.663  14.683  61.022  1.00  0.00     0.325 C 
HETATM   20  O1  UNL     1      12.019  13.625  61.134  1.00  0.00    -0.261 OA
ATOM     21  H6  UNL     1      14.517  15.542  60.606  1.00  0.00     0.191 HD
BRANCH  19  22
HETATM   22  C9  UNL     1      11.987  15.938  61.240  1.00  0.00     0.324 C 
HETATM   23  N7  UNL     1      12.379  17.160  60.628  1.00  0.00    -0.053 NA
HETATM   24  O2  UNL     1      10.983  15.995  62.016  1.00  0.00    -0.266 OA
ENDBRANCH  19  22
ENDBRANCH   6  18
TORSDOF 5
ENDMDL
MODEL 2
REMARK VINA RESULT: -7.047413903      1.138      1.138
REMARK  5 active torsions:
REMARK  status: ('A' for Active; 'I' for Inactive)
REMARK    1  A    between atoms: N1_1  and  C1_5 
REMARK    2  A    between atoms: C1_5  and  C2_6 
REMARK    3  A    between atoms: C2_6  and  N2_7 
REMARK    4  A    between atoms: N5_16  and  N6_17 
REMARK       I    between atoms: N6_17  and  C8_19 
REMARK    5  A    between atoms: C8_19  and  C9_21 
ROOT
HETATM    1  C2  UNL     1      14.802  12.358  58.433  1.00  0.00     0.090 C 
HETATM    2  C4  UNL     1      15.610  11.197  58.983  1.00  0.00     0.038 C 
HETATM    3  C5  UNL     1      16.997  11.580  59.387  1.00  0.00     0.008 C 
HETATM    4  C6  UNL     1      17.044  12.123  60.781  1.00  0.00     0.047 C 
HETATM    5  C7  UNL     1      15.706  12.584  61.298  1.00  0.00     0.088 C 
HETATM    6  N5  UNL     1      15.058  13.564  60.588  1.00  0.00    -0.281 N 
HETATM    7  C10 UNL     1      14.894  13.600  59.222  1.00  0.00     0.121 C 
ENDROOT
BRANCH   1   8
HETATM    8  C1  UNL     1      13.390  11.846  58.249  1.00  0.00     0.266 C 
BRANCH   8   9
HETATM    9  N1  UNL     1      12.383  12.822  58.444  1.00  0.00    -0.077 N 
ATOM     10  H13 UNL     1      11.480  12.470  58.125  1.00  0.00     0.274 HD
ATOM     11  H12 UNL     1      12.185  12.935  59.439  1.00  0.00     0.274 HD
ATOM     12  H11 UNL     1      12.583  13.726  58.017  1.00  0.00     0.274 HD
ENDBRANCH   8   9
ENDBRANCH   1   8
BRANCH   1  13
HETATM   13  N2  UNL     1      15.362  12.640  57.131  1.00  0.00    -0.351 N 
HETATM   14  C3  UNL     1      14.983  12.230  56.003  1.00  0.00     0.197 C 
HETATM   15  N3  UNL     1      13.895  11.378  55.719  1.00  0.00    -0.067 NA
HETATM   16  N4  UNL     1      15.738  12.676  54.876  1.00  0.00    -0.067 NA
ATOM     17  H2  UNL     1      16.176  13.255  57.125  1.00  0.00     0.163 HD
ENDBRANCH   1  13
BRANCH   6  18
HETATM   18  N6  UNL     1      14.659  14.741  61.203  1.00  0.00    -0.257 N 
HETATM   19  C8  UNL     1      13.333  15.058  61.557  1.00  0.00     0.325 C 
HETATM   20  O1  UNL     1      12.413  14.256  61.322  1.00  0.00    -0.261 OA
ATOM     21  H6  UNL     1      15.381  15.430  61.415  1.00  0.00     0.191 HD
BRANCH  19  22
HETATM   22  C9  UNL     1      13.020  16.313  62.193  1.00  0.00     0.324 C 
HETATM   23  N7  UNL     1      13.590  16.736  63.425  1.00  0.00    -0.053 NA
HETATM   24  O2  UNL     1      12.192  17.112  61.654  1.00  0.00    -0.266 OA
ENDBRANCH  19  22
ENDBRANCH   6  18
TORSDOF 5
ENDMDL
MODEL 3
REMARK VINA RESULT: -6.669997602      2.234      2.306
REMARK  5 active torsions:
REMARK  status: ('A' for Active; 'I' for Inactive)
REMARK    1  A    between atoms: N1_1  and  C1_5 
REMARK    2  A    between atoms: C1_5  and  C2_6 
REMARK    3  A    between atoms: C2_6  and  N2_7 
REMARK    4  A    between atoms: N5_16  and  N6_17 
REMARK       I    between atoms: N6_17  and  C8_19 
REMARK    5  A    between atoms: C8_19  and  C9_21 
ROOT
HETATM    1  C2  UNL     1      14.735  12.831  58.684  1.00  0.00     0.090 C 
HETATM    2  C4  UNL     1      15.333  11.461  58.939  1.00  0.00     0.038 C 
HETATM    3  C5  UNL     1      16.819  11.483  59.098  1.00  0.00     0.008 C 
HETATM    4  C6  UNL     1      17.227  11.796  60.504  1.00  0.00     0.047 C 
HETATM    5  C7  UNL     1      16.140  12.445  61.320  1.00  0.00     0.088 C 
HETATM    6  N5  UNL     1      15.626  13.631  60.859  1.00  0.00    -0.281 N 
HETATM    7  C10 UNL     1      15.245  13.899  59.564  1.00  0.00     0.121 C 
ENDROOT
BRANCH   1   8
HETATM    8  C1  UNL     1      13.233  12.657  58.731  1.00  0.00     0.266 C 
BRANCH   8   9
HETATM    9  N1  UNL     1      12.519  13.823  59.103  1.00  0.00    -0.077 N 
ATOM     10  H13 UNL     1      11.877  13.617  59.869  1.00  0.00     0.274 HD
ATOM     11  H12 UNL     1      13.139  14.486  59.569  1.00  0.00     0.274 HD
ATOM     12  H11 UNL     1      12.024  14.277  58.336  1.00  0.00     0.274 HD
ENDBRANCH   8   9
ENDBRANCH   1   8
BRANCH   1  13
HETATM   13  N2  UNL     1      15.116  13.177  57.333  1.00  0.00    -0.351 N 
HETATM   14  C3  UNL     1      14.914  12.537  56.268  1.00  0.00     0.197 C 
HETATM   15  N3  UNL     1      14.253  11.300  56.121  1.00  0.00    -0.067 NA
HETATM   16  N4  UNL     1      15.411  13.128  55.066  1.00  0.00    -0.067 NA
ATOM     17  H2  UNL     1      15.616  14.060  57.229  1.00  0.00     0.163 HD
ENDBRANCH   1  13
BRANCH   6  18
HETATM   18  N6  UNL     1      15.621  14.763  61.660  1.00  0.00    -0.257 N 
HETATM   19  C8  UNL     1      14.873  14.912  62.843  1.00  0.00     0.325 C 
HETATM   20  O1  UNL     1      14.145  13.988  63.245  1.00  0.00    -0.261 OA
ATOM     21  H6  UNL     1      16.204  15.548  61.369  1.00  0.00     0.191 HD
BRANCH  19  22
HETATM   22  C9  UNL     1      14.936  16.134  63.607  1.00  0.00     0.324 C 
HETATM   23  N7  UNL     1      13.801  16.749  64.203  1.00  0.00    -0.053 NA
HETATM   24  O2  UNL     1      16.049  16.722  63.777  1.00  0.00    -0.266 OA
ENDBRANCH  19  22
ENDBRANCH   6  18
TORSDOF 5
ENDMDL
MODEL 4
REMARK VINA RESULT: -6.667879080      2.918      4.575
REMARK  5 active torsions:
REMARK  status: ('A' for Active; 'I' for Inactive)
REMARK    1  A    between atoms: N1_1  and  C1_5 
REMARK    2  A    between atoms: C1_5  and  C2_6 
REMARK    3  A    between atoms: C2_6  and  N2_7 
REMARK    4  A    between atoms: N5_16  and  N6_17 
REMARK       I    between atoms: N6_17  and  C8_19 
REMARK    5  A    between atoms: C8_19  and  C9_21 
ROOT
HETATM    1  C2  UNL     1      13.325  12.593  59.717  1.00  0.00     0.090 C 
HETATM    2  C4  UNL     1      13.673  11.429  58.808  1.00  0.00     0.038 C 
HETATM    3  C5  UNL     1      14.167  11.855  57.463  1.00  0.00     0.008 C 
HETATM    4  C6  UNL     1      15.638  12.139  57.472  1.00  0.00     0.047 C 
HETATM    5  C7  UNL     1      16.201  12.378  58.849  1.00  0.00     0.088 C 
HETATM    6  N5  UNL     1      15.666  13.408  59.580  1.00  0.00    -0.281 N 
HETATM    7  C10 UNL     1      14.325  13.676  59.743  1.00  0.00     0.121 C 
ENDROOT
BRANCH   1   8
HETATM    8  C1  UNL     1      13.023  11.999  61.075  1.00  0.00     0.266 C 
BRANCH   8   9
HETATM    9  N1  UNL     1      13.674  12.645  62.155  1.00  0.00    -0.077 N 
ATOM     10  H13 UNL     1      14.685  12.534  62.077  1.00  0.00     0.274 HD
ATOM     11  H12 UNL     1      13.601  13.658  62.059  1.00  0.00     0.274 HD
ATOM     12  H11 UNL     1      13.354  12.350  63.077  1.00  0.00     0.274 HD
ENDBRANCH   8   9
ENDBRANCH   1   8
BRANCH   1  13
HETATM   13  N2  UNL     1      12.106  13.155  59.179  1.00  0.00    -0.351 N 
HETATM   14  C3  UNL     1      11.310  13.970  59.715  1.00  0.00     0.197 C 
HETATM   15  N3  UNL     1      11.408  14.553  60.995  1.00  0.00    -0.067 NA
HETATM   16  N4  UNL     1      10.173  14.353  58.940  1.00  0.00    -0.067 NA
ATOM     17  H2  UNL     1      11.857  12.849  58.239  1.00  0.00     0.163 HD
ENDBRANCH   1  13
BRANCH   6  18
HETATM   18  N6  UNL     1      16.474  14.414  60.088  1.00  0.00    -0.257 N 
HETATM   19  C8  UNL     1      16.954  14.474  61.411  1.00  0.00     0.325 C 
HETATM   20  O1  UNL     1      16.660  13.582  62.225  1.00  0.00    -0.261 OA
ATOM     21  H6  UNL     1      16.741  15.168  59.455  1.00  0.00     0.191 HD
BRANCH  19  22
HETATM   22  C9  UNL     1      17.790  15.566  61.843  1.00  0.00     0.324 C 
HETATM   23  N7  UNL     1      17.833  16.044  63.182  1.00  0.00    -0.053 NA
HETATM   24  O2  UNL     1      18.543  16.161  61.010  1.00  0.00    -0.266 OA
ENDBRANCH  19  22
ENDBRANCH   6  18
TORSDOF 5
ENDMDL
MODEL 5
REMARK VINA RESULT: -6.385240090      2.661      5.820
REMARK  5 active torsions:
REMARK  status: ('A' for Active; 'I' for Inactive)
REMARK    1  A    between atoms: N1_1  and  C1_5 
REMARK    2  A    between atoms: C1_5  and  C2_6 
REMARK    3  A    between atoms: C2_6  and  N2_7 
REMARK    4  A    between atoms: N5_16  and  N6_17 
REMARK       I    between atoms: N6_17  and  C8_19 
REMARK    5  A    between atoms: C8_19  and  C9_21 
ROOT
HETATM    1  C2  UNL     1      14.431  13.835  60.078  1.00  0.00     0.090 C 
HETATM    2  C4  UNL     1      14.826  13.111  61.351  1.00  0.00     0.038 C 
HETATM    3  C5  UNL     1      13.998  11.896  61.623  1.00  0.00     0.008 C 
HETATM    4  C6  UNL     1      14.524  10.690  60.909  1.00  0.00     0.047 C 
HETATM    5  C7  UNL     1      15.445  11.017  59.763  1.00  0.00     0.088 C 
HETATM    6  N5  UNL     1      14.945  11.800  58.753  1.00  0.00    -0.281 N 
HETATM    7  C10 UNL     1      14.220  12.960  58.911  1.00  0.00     0.121 C 
ENDROOT
BRANCH   1   8
HETATM    8  C1  UNL     1      15.469  14.915  59.862  1.00  0.00     0.266 C 
BRANCH   8   9
HETATM    9  N1  UNL     1      16.606  14.811  60.700  1.00  0.00    -0.077 N 
ATOM     10  H13 UNL     1      16.877  13.834  60.812  1.00  0.00     0.274 HD
ATOM     11  H12 UNL     1      17.434  15.168  60.222  1.00  0.00     0.274 HD
ATOM     12  H11 UNL     1      16.500  15.257  61.611  1.00  0.00     0.274 HD
ENDBRANCH   8   9
ENDBRANCH   1   8
BRANCH   1  13
HETATM   13  N2  UNL     1      13.164  14.468  60.368  1.00  0.00    -0.351 N 
HETATM   14  C3  UNL     1      12.905  15.368  61.210  1.00  0.00     0.197 C 
HETATM   15  N3  UNL     1      13.801  15.997  62.098  1.00  0.00    -0.067 NA
HETATM   16  N4  UNL     1      11.547  15.805  61.278  1.00  0.00    -0.067 NA
ATOM     17  H2  UNL     1      12.371  14.142  59.815  1.00  0.00     0.163 HD
ENDBRANCH   1  13
BRANCH   6  18
HETATM   18  N6  UNL     1      14.973  11.367  57.436  1.00  0.00    -0.257 N 
HETATM   19  C8  UNL     1      13.989  10.563  56.828  1.00  0.00     0.325 C 
HETATM   20  O1  UNL     1      12.998  10.187  57.479  1.00  0.00    -0.261 OA
ATOM     21  H6  UNL     1      15.768  11.652  56.864  1.00  0.00     0.191 HD
BRANCH  19  22
HETATM   22  C9  UNL     1      14.112  10.164  55.448  1.00  0.00     0.324 C 
HETATM   23  N7  UNL     1      13.407   9.068  54.880  1.00  0.00    -0.053 NA
HETATM   24  O2  UNL     1      14.884  10.802  54.667  1.00  0.00    -0.266 OA
ENDBRANCH  19  22
ENDBRANCH   6  18
TORSDOF 5
ENDMDL
