MODEL 1
REMARK VINA RESULT: -9.188237774      0.000      0.000
REMARK  4 active torsions:
REMARK  status: ('A' for Active; 'I' for Inactive)
REMARK    1  A    between atoms: C2_2  and  N2_6 
REMARK    2  A    between atoms: N2_6  and  C3_8 
REMARK    3  A    between atoms: C6_11  and  C7_12 
REMARK    4  A    between atoms: C7_12  and  C8_13 
ROOT
HETATM    1  C3  UNL     1     -18.154  35.236  -4.595  1.00  0.00     0.082 C 
HETATM    2  C4  UNL     1     -17.455  35.170  -3.261  1.00  0.00     0.025 C 
HETATM    3  C5  UNL     1     -17.796  36.484  -2.533  1.00  0.00     0.007 C 
HETATM    4  C6  UNL     1     -19.197  36.365  -2.090  1.00  0.00    -0.002 C 
HETATM    5  C19 UNL     1     -20.083  36.196  -3.300  1.00  0.00     0.007 C 
HETATM    6  C20 UNL     1     -19.292  36.208  -4.597  1.00  0.00     0.025 C 
ENDROOT
BRANCH   4   7
HETATM    7  C7  UNL     1     -19.684  37.497  -1.196  1.00  0.00    -0.014 C 
HETATM    8  C14 UNL     1     -21.195  37.548  -1.155  1.00  0.00     0.014 C 
HETATM    9  C15 UNL     1     -21.715  38.860  -0.658  1.00  0.00     0.001 C 
HETATM   10  C16 UNL     1     -21.376  39.915  -1.668  1.00  0.00     0.000 C 
HETATM   11  C17 UNL     1     -20.036  39.751  -2.290  1.00  0.00     0.001 C 
HETATM   12  C18 UNL     1     -19.110  38.816  -1.585  1.00  0.00     0.014 C 
BRANCH   7  13
HETATM   13  C8  UNL     1     -19.099  37.153   0.137  1.00  0.00    -0.075 C 
HETATM   14  C9  UNL     1     -19.073  35.968   0.676  1.00  0.00    -0.023 C 
HETATM   15  C10 UNL     1     -18.488  35.642   2.004  1.00  0.00     0.027 C 
HETATM   16  C11 UNL     1     -18.072  36.826   2.807  1.00  0.00     0.004 C 
HETATM   17  C12 UNL     1     -18.885  38.027   2.372  1.00  0.00     0.005 C 
HETATM   18  C13 UNL     1     -18.495  38.276   0.908  1.00  0.00     0.034 C 
ENDBRANCH   7  13
ENDBRANCH   4   7
BRANCH   1  19
HETATM   19  N2  UNL     1     -17.182  35.681  -5.596  1.00  0.00    -0.376 N 
ATOM     20  H2  UNL     1     -17.378  35.526  -6.585  1.00  0.00     0.161 HD
BRANCH  19  21
HETATM   21  C2  UNL     1     -15.983  36.320  -5.223  1.00  0.00     0.066 C 
HETATM   22  C1  UNL     1     -14.804  35.513  -4.864  1.00  0.00     0.088 C 
HETATM   23  N1  UNL     1     -15.913  37.595  -5.193  1.00  0.00    -0.389 N 
ATOM     24  H12 UNL     1     -15.044  38.057  -4.922  1.00  0.00     0.157 HD
ATOM     25  H11 UNL     1     -16.729  38.154  -5.441  1.00  0.00     0.157 HD
ENDBRANCH  19  21
ENDBRANCH   1  19
TORSDOF 4
ENDMDL
MODEL 2
REMARK VINA RESULT: -9.078598641      0.886      1.034
REMARK  4 active torsions:
REMARK  status: ('A' for Active; 'I' for Inactive)
REMARK    1  A    between atoms: C2_2  and  N2_6 
REMARK    2  A    between atoms: N2_6  and  C3_8 
REMARK    3  A    between atoms: C6_11  and  C7_12 
REMARK    4  A    between atoms: C7_12  and  C8_13 
ROOT
HETATM    1  C3  UNL     1     -17.996  35.235  -4.375  1.00  0.00     0.082 C 
HETATM    2  C4  UNL     1     -17.483  35.049  -2.970  1.00  0.00     0.025 C 
HETATM    3  C5  UNL     1     -17.796  36.360  -2.222  1.00  0.00     0.007 C 
HETATM    4  C6  UNL     1     -19.248  36.356  -1.963  1.00  0.00    -0.002 C 
HETATM    5  C19 UNL     1     -19.982  36.320  -3.281  1.00  0.00     0.007 C 
HETATM    6  C20 UNL     1     -19.033  36.310  -4.467  1.00  0.00     0.025 C 
ENDROOT
BRANCH   4   7
HETATM    7  C7  UNL     1     -19.743  37.491  -1.080  1.00  0.00    -0.014 C 
HETATM    8  C14 UNL     1     -21.255  37.546  -1.056  1.00  0.00     0.014 C 
HETATM    9  C15 UNL     1     -21.778  38.860  -0.571  1.00  0.00     0.001 C 
HETATM   10  C16 UNL     1     -21.425  39.911  -1.580  1.00  0.00     0.000 C 
HETATM   11  C17 UNL     1     -20.078  39.742  -2.186  1.00  0.00     0.001 C 
HETATM   12  C18 UNL     1     -19.162  38.808  -1.466  1.00  0.00     0.014 C 
BRANCH   7  13
HETATM   13  C8  UNL     1     -19.175  37.152   0.262  1.00  0.00    -0.075 C 
HETATM   14  C9  UNL     1     -19.256  35.994   0.853  1.00  0.00    -0.023 C 
HETATM   15  C10 UNL     1     -18.685  35.672   2.189  1.00  0.00     0.027 C 
HETATM   16  C11 UNL     1     -18.145  36.843   2.932  1.00  0.00     0.004 C 
HETATM   17  C12 UNL     1     -18.844  38.098   2.452  1.00  0.00     0.005 C 
HETATM   18  C13 UNL     1     -18.453  38.243   0.975  1.00  0.00     0.034 C 
ENDBRANCH   7  13
ENDBRANCH   4   7
BRANCH   1  19
HETATM   19  N2  UNL     1     -16.868  35.626  -5.223  1.00  0.00    -0.376 N 
ATOM     20  H2  UNL     1     -15.939  35.708  -4.811  1.00  0.00     0.161 HD
BRANCH  19  21
HETATM   21  C2  UNL     1     -17.039  35.891  -6.596  1.00  0.00     0.066 C 
HETATM   22  C1  UNL     1     -17.540  34.832  -7.490  1.00  0.00     0.088 C 
HETATM   23  N1  UNL     1     -16.761  37.044  -7.071  1.00  0.00    -0.389 N 
ATOM     24  H12 UNL     1     -16.884  37.235  -8.066  1.00  0.00     0.157 HD
ATOM     25  H11 UNL     1     -16.414  37.777  -6.453  1.00  0.00     0.157 HD
ENDBRANCH  19  21
ENDBRANCH   1  19
TORSDOF 4
ENDMDL
MODEL 3
REMARK VINA RESULT: -8.931988026      1.724      2.053
REMARK  4 active torsions:
REMARK  status: ('A' for Active; 'I' for Inactive)
REMARK    1  A    between atoms: C2_2  and  N2_6 
REMARK    2  A    between atoms: N2_6  and  C3_8 
REMARK    3  A    between atoms: C6_11  and  C7_12 
REMARK    4  A    between atoms: C7_12  and  C8_13 
ROOT
HETATM    1  C3  UNL     1     -15.723  34.981  -3.340  1.00  0.00     0.082 C 
HETATM    2  C4  UNL     1     -16.223  34.578  -1.976  1.00  0.00     0.025 C 
HETATM    3  C5  UNL     1     -16.883  35.832  -1.373  1.00  0.00     0.007 C 
HETATM    4  C6  UNL     1     -18.170  36.003  -2.071  1.00  0.00    -0.002 C 
HETATM    5  C19 UNL     1     -17.907  36.210  -3.543  1.00  0.00     0.007 C 
HETATM    6  C20 UNL     1     -16.424  36.193  -3.869  1.00  0.00     0.025 C 
ENDROOT
BRANCH   4   7
HETATM    7  C7  UNL     1     -19.064  37.096  -1.505  1.00  0.00    -0.014 C 
HETATM    8  C14 UNL     1     -20.502  36.904  -1.937  1.00  0.00     0.014 C 
HETATM    9  C15 UNL     1     -21.324  38.143  -1.777  1.00  0.00     0.001 C 
HETATM   10  C16 UNL     1     -20.822  39.172  -2.746  1.00  0.00     0.000 C 
HETATM   11  C17 UNL     1     -19.344  39.187  -2.903  1.00  0.00     0.001 C 
HETATM   12  C18 UNL     1     -18.578  38.463  -1.846  1.00  0.00     0.014 C 
BRANCH   7  13
HETATM   13  C8  UNL     1     -18.899  36.940  -0.027  1.00  0.00    -0.075 C 
HETATM   14  C9  UNL     1     -19.146  35.861   0.658  1.00  0.00    -0.023 C 
HETATM   15  C10 UNL     1     -18.977  35.721   2.130  1.00  0.00     0.027 C 
HETATM   16  C11 UNL     1     -18.667  36.992   2.842  1.00  0.00     0.004 C 
HETATM   17  C12 UNL     1     -19.200  38.155   2.032  1.00  0.00     0.005 C 
HETATM   18  C13 UNL     1     -18.408  38.134   0.717  1.00  0.00     0.034 C 
ENDBRANCH   7  13
ENDBRANCH   4   7
BRANCH   1  19
HETATM   19  N2  UNL     1     -14.299  35.299  -3.228  1.00  0.00    -0.376 N 
ATOM     20  H2  UNL     1     -13.992  35.973  -2.527  1.00  0.00     0.161 HD
BRANCH  19  21
HETATM   21  C2  UNL     1     -13.343  34.692  -4.066  1.00  0.00     0.066 C 
HETATM   22  C1  UNL     1     -13.496  34.772  -5.529  1.00  0.00     0.088 C 
HETATM   23  N1  UNL     1     -12.343  34.074  -3.565  1.00  0.00    -0.389 N 
ATOM     24  H12 UNL     1     -11.651  33.634  -4.172  1.00  0.00     0.157 HD
ATOM     25  H11 UNL     1     -12.237  34.018  -2.552  1.00  0.00     0.157 HD
ENDBRANCH  19  21
ENDBRANCH   1  19
TORSDOF 4
ENDMDL
MODEL 4
REMARK VINA RESULT: -8.902966588      0.832      1.276
REMARK  4 active torsions:
REMARK  status: ('A' for Active; 'I' for Inactive)
REMARK    1  A    between atoms: C2_2  and  N2_6 
REMARK    2  A    between atoms: N2_6  and  C3_8 
REMARK    3  A    between atoms: C6_11  and  C7_12 
REMARK    4  A    between atoms: C7_12  and  C8_13 
ROOT
HETATM    1  C3  UNL     1     -17.505  35.265  -4.879  1.00  0.00     0.082 C 
HETATM    2  C4  UNL     1     -16.667  35.653  -3.687  1.00  0.00     0.025 C 
HETATM    3  C5  UNL     1     -17.354  36.882  -3.062  1.00  0.00     0.007 C 
HETATM    4  C6  UNL     1     -18.557  36.381  -2.372  1.00  0.00    -0.002 C 
HETATM    5  C19 UNL     1     -19.471  35.734  -3.384  1.00  0.00     0.007 C 
HETATM    6  C20 UNL     1     -18.903  35.794  -4.791  1.00  0.00     0.025 C 
ENDROOT
BRANCH   4   7
HETATM    7  C7  UNL     1     -19.295  37.419  -1.538  1.00  0.00    -0.014 C 
HETATM    8  C14 UNL     1     -20.793  37.275  -1.688  1.00  0.00     0.014 C 
HETATM    9  C15 UNL     1     -21.538  38.497  -1.252  1.00  0.00     0.001 C 
HETATM   10  C16 UNL     1     -21.216  39.611  -2.202  1.00  0.00     0.000 C 
HETATM   11  C17 UNL     1     -19.799  39.634  -2.651  1.00  0.00     0.001 C 
HETATM   12  C18 UNL     1     -18.854  38.810  -1.841  1.00  0.00     0.014 C 
BRANCH   7  13
HETATM   13  C8  UNL     1     -18.841  37.122  -0.144  1.00  0.00    -0.075 C 
HETATM   14  C9  UNL     1     -18.805  37.970   0.843  1.00  0.00    -0.023 C 
HETATM   15  C10 UNL     1     -18.351  37.659   2.225  1.00  0.00     0.027 C 
HETATM   16  C11 UNL     1     -17.740  36.310   2.389  1.00  0.00     0.004 C 
HETATM   17  C12 UNL     1     -17.180  35.857   1.057  1.00  0.00     0.005 C 
HETATM   18  C13 UNL     1     -18.393  35.727   0.127  1.00  0.00     0.034 C 
ENDBRANCH   7  13
ENDBRANCH   4   7
BRANCH   1  19
HETATM   19  N2  UNL     1     -16.884  35.836  -6.077  1.00  0.00    -0.376 N 
ATOM     20  H2  UNL     1     -17.452  35.982  -6.911  1.00  0.00     0.161 HD
BRANCH  19  21
HETATM   21  C2  UNL     1     -15.520  36.188  -6.100  1.00  0.00     0.066 C 
HETATM   22  C1  UNL     1     -14.496  35.143  -6.267  1.00  0.00     0.088 C 
HETATM   23  N1  UNL     1     -15.167  37.410  -5.977  1.00  0.00    -0.389 N 
ATOM     24  H12 UNL     1     -14.179  37.665  -5.993  1.00  0.00     0.157 HD
ATOM     25  H11 UNL     1     -15.875  38.134  -5.861  1.00  0.00     0.157 HD
ENDBRANCH  19  21
ENDBRANCH   1  19
TORSDOF 4
ENDMDL
MODEL 5
REMARK VINA RESULT: -8.844322695      2.547      4.854
REMARK  4 active torsions:
REMARK  status: ('A' for Active; 'I' for Inactive)
REMARK    1  A    between atoms: C2_2  and  N2_6 
REMARK    2  A    between atoms: N2_6  and  C3_8 
REMARK    3  A    between atoms: C6_11  and  C7_12 
REMARK    4  A    between atoms: C7_12  and  C8_13 
ROOT
HETATM    1  C3  UNL     1     -21.454  39.220  -2.533  1.00  0.00     0.082 C 
HETATM    2  C4  UNL     1     -20.241  38.532  -3.106  1.00  0.00     0.025 C 
HETATM    3  C5  UNL     1     -19.258  38.348  -1.934  1.00  0.00     0.007 C 
HETATM    4  C6  UNL     1     -19.799  37.256  -1.103  1.00  0.00    -0.002 C 
HETATM    5  C19 UNL     1     -21.158  37.659  -0.585  1.00  0.00     0.007 C 
HETATM    6  C20 UNL     1     -21.562  39.047  -1.050  1.00  0.00     0.025 C 
ENDROOT
BRANCH   4   7
HETATM    7  C7  UNL     1     -18.885  36.798   0.024  1.00  0.00    -0.014 C 
HETATM    8  C14 UNL     1     -19.633  35.934   1.016  1.00  0.00     0.014 C 
HETATM    9  C15 UNL     1     -18.924  35.815   2.328  1.00  0.00     0.001 C 
HETATM   10  C16 UNL     1     -18.929  37.160   2.991  1.00  0.00     0.000 C 
HETATM   11  C17 UNL     1     -18.730  38.298   2.056  1.00  0.00     0.001 C 
HETATM   12  C18 UNL     1     -18.207  37.936   0.705  1.00  0.00     0.014 C 
BRANCH   7  13
HETATM   13  C8  UNL     1     -17.818  36.031  -0.692  1.00  0.00    -0.075 C 
HETATM   14  C9  UNL     1     -17.864  35.639  -1.933  1.00  0.00    -0.023 C 
HETATM   15  C10 UNL     1     -16.794  34.877  -2.631  1.00  0.00     0.027 C 
HETATM   16  C11 UNL     1     -15.691  34.405  -1.749  1.00  0.00     0.004 C 
HETATM   17  C12 UNL     1     -16.214  34.271  -0.334  1.00  0.00     0.005 C 
HETATM   18  C13 UNL     1     -16.600  35.692   0.096  1.00  0.00     0.034 C 
ENDBRANCH   7  13
ENDBRANCH   4   7
BRANCH   1  19
HETATM   19  N2  UNL     1     -21.338  40.653  -2.810  1.00  0.00    -0.376 N 
ATOM     20  H2  UNL     1     -21.477  41.320  -2.052  1.00  0.00     0.161 HD
BRANCH  19  21
HETATM   21  C2  UNL     1     -21.037  41.129  -4.102  1.00  0.00     0.066 C 
HETATM   22  C1  UNL     1     -19.812  41.914  -4.327  1.00  0.00     0.088 C 
HETATM   23  N1  UNL     1     -21.823  40.883  -5.080  1.00  0.00    -0.389 N 
ATOM     24  H12 UNL     1     -21.605  41.228  -6.015  1.00  0.00     0.157 HD
ATOM     25  H11 UNL     1     -22.671  40.339  -4.924  1.00  0.00     0.157 HD
ENDBRANCH  19  21
ENDBRANCH   1  19
TORSDOF 4
ENDMDL
