MODEL 1
REMARK VINA RESULT: -8.823682003      0.000      0.000
REMARK  5 active torsions:
REMARK  status: ('A' for Active; 'I' for Inactive)
REMARK    1  A    between atoms: C13_13  and  C15_15 
REMARK    2  A    between atoms: C16_16  and  C17_17 
REMARK    3  A    between atoms: C17_17  and  N2_22 
REMARK    4  A    between atoms: N1_18  and  O1_20 
REMARK    5  A    between atoms: N2_22  and  C18_24 
ROOT
HETATM    1  C1  UNL     1     -16.367  34.141  -0.981  1.00  0.00     0.019 C 
HETATM    2  C2  UNL     1     -16.185  34.869  -1.941  1.00  0.00    -0.064 C 
HETATM    3  C3  UNL     1     -14.969  35.200  -2.800  1.00  0.00     0.038 C 
HETATM    4  C4  UNL     1     -15.308  35.350  -4.225  1.00  0.00     0.006 C 
HETATM    5  C5  UNL     1     -16.695  35.559  -4.653  1.00  0.00     0.015 C 
HETATM    6  C6  UNL     1     -17.762  35.843  -3.681  1.00  0.00    -0.009 C 
HETATM    7  C7  UNL     1     -18.882  34.796  -3.922  1.00  0.00     0.021 C 
HETATM    8  C8  UNL     1     -17.309  35.862  -2.304  1.00  0.00    -0.065 C 
HETATM    9  C9  UNL     1     -18.390  36.050  -1.322  1.00  0.00     0.036 C 
HETATM   10  C10 UNL     1     -18.817  37.486  -1.524  1.00  0.00     0.009 C 
HETATM   11  C11 UNL     1     -19.242  37.702  -2.963  1.00  0.00    -0.005 C 
HETATM   12  C12 UNL     1     -20.707  37.283  -3.000  1.00  0.00     0.011 C 
HETATM   13  C13 UNL     1     -18.381  37.253  -4.032  1.00  0.00    -0.012 C 
HETATM   14  C14 UNL     1     -17.200  38.201  -4.200  1.00  0.00     0.021 C 
ENDROOT
BRANCH  13  15
HETATM   15  C15 UNL     1     -18.946  37.120  -5.395  1.00  0.00    -0.012 C 
HETATM   16  C16 UNL     1     -19.467  37.836  -6.308  1.00  0.00     0.047 C 
BRANCH  16  17
HETATM   17  C17 UNL     1     -19.751  39.322  -6.391  1.00  0.00     0.120 C 
HETATM   18  N1  UNL     1     -19.036  40.007  -7.081  1.00  0.00    -0.253 N 
ATOM     19  H1  UNL     1     -18.288  39.521  -7.576  1.00  0.00     0.196 HD
BRANCH  18  20
HETATM   20  O1  UNL     1     -19.114  41.430  -7.286  1.00  0.00    -0.288 OA
ATOM     21  H1  UNL     1     -19.495  42.080  -6.707  1.00  0.00     0.244 HD
ENDBRANCH  18  20
BRANCH  17  22
HETATM   22  N2  UNL     1     -20.827  39.766  -5.592  1.00  0.00    -0.370 N 
ATOM     23  H2  UNL     1     -21.672  39.197  -5.549  1.00  0.00     0.161 HD
BRANCH  22  24
HETATM   24  C18 UNL     1     -20.776  41.012  -4.821  1.00  0.00     0.083 A 
HETATM   25  C19 UNL     1     -19.732  41.246  -3.837  1.00  0.00     0.027 A 
HETATM   26  C20 UNL     1     -21.049  40.819  -3.288  1.00  0.00     0.027 A 
ENDBRANCH  22  24
ENDBRANCH  17  22
ENDBRANCH  16  17
ENDBRANCH  13  15
TORSDOF 5
ENDMDL
MODEL 2
REMARK VINA RESULT: -8.343577204      1.074      1.289
REMARK  5 active torsions:
REMARK  status: ('A' for Active; 'I' for Inactive)
REMARK    1  A    between atoms: C13_13  and  C15_15 
REMARK    2  A    between atoms: C16_16  and  C17_17 
REMARK    3  A    between atoms: C17_17  and  N2_22 
REMARK    4  A    between atoms: N1_18  and  O1_20 
REMARK    5  A    between atoms: N2_22  and  C18_24 
ROOT
HETATM    1  C1  UNL     1     -16.332  34.066  -0.800  1.00  0.00     0.019 C 
HETATM    2  C2  UNL     1     -16.161  34.792  -1.763  1.00  0.00    -0.064 C 
HETATM    3  C3  UNL     1     -14.953  35.125  -2.633  1.00  0.00     0.038 C 
HETATM    4  C4  UNL     1     -15.304  35.270  -4.056  1.00  0.00     0.006 C 
HETATM    5  C5  UNL     1     -16.696  35.473  -4.472  1.00  0.00     0.015 C 
HETATM    6  C6  UNL     1     -17.756  35.756  -3.492  1.00  0.00    -0.009 C 
HETATM    7  C7  UNL     1     -18.874  34.704  -3.720  1.00  0.00     0.021 C 
HETATM    8  C8  UNL     1     -17.291  35.780  -2.119  1.00  0.00    -0.065 C 
HETATM    9  C9  UNL     1     -18.364  35.967  -1.128  1.00  0.00     0.036 C 
HETATM   10  C10 UNL     1     -18.798  37.401  -1.331  1.00  0.00     0.009 C 
HETATM   11  C11 UNL     1     -19.236  37.611  -2.766  1.00  0.00    -0.005 C 
HETATM   12  C12 UNL     1     -20.700  37.187  -2.790  1.00  0.00     0.011 C 
HETATM   13  C13 UNL     1     -18.383  37.163  -3.841  1.00  0.00    -0.012 C 
HETATM   14  C14 UNL     1     -17.207  38.114  -4.022  1.00  0.00     0.021 C 
ENDROOT
BRANCH  13  15
HETATM   15  C15 UNL     1     -18.960  37.024  -5.199  1.00  0.00    -0.012 C 
HETATM   16  C16 UNL     1     -19.763  37.623  -5.983  1.00  0.00     0.047 C 
BRANCH  16  17
HETATM   17  C17 UNL     1     -20.560  38.902  -5.831  1.00  0.00     0.120 C 
HETATM   18  N1  UNL     1     -21.761  38.824  -5.740  1.00  0.00    -0.253 N 
ATOM     19  H1  UNL     1     -22.154  37.883  -5.760  1.00  0.00     0.196 HD
BRANCH  18  20
HETATM   20  O1  UNL     1     -22.705  39.904  -5.608  1.00  0.00    -0.288 OA
ATOM     21  H1  UNL     1     -22.989  40.511  -6.281  1.00  0.00     0.244 HD
ENDBRANCH  18  20
BRANCH  17  22
HETATM   22  N2  UNL     1     -19.792  40.086  -5.857  1.00  0.00    -0.370 N 
ATOM     23  H2  UNL     1     -19.547  40.491  -6.760  1.00  0.00     0.161 HD
BRANCH  22  24
HETATM   24  C18 UNL     1     -19.334  40.757  -4.636  1.00  0.00     0.083 A 
HETATM   25  C19 UNL     1     -20.201  40.883  -3.477  1.00  0.00     0.027 A 
HETATM   26  C20 UNL     1     -20.089  42.098  -4.331  1.00  0.00     0.027 A 
ENDBRANCH  22  24
ENDBRANCH  17  22
ENDBRANCH  16  17
ENDBRANCH  13  15
TORSDOF 5
ENDMDL
MODEL 3
REMARK VINA RESULT: -8.312230930      1.536      2.793
REMARK  5 active torsions:
REMARK  status: ('A' for Active; 'I' for Inactive)
REMARK    1  A    between atoms: C13_13  and  C15_15 
REMARK    2  A    between atoms: C16_16  and  C17_17 
REMARK    3  A    between atoms: C17_17  and  N2_22 
REMARK    4  A    between atoms: N1_18  and  O1_20 
REMARK    5  A    between atoms: N2_22  and  C18_24 
ROOT
HETATM    1  C1  UNL     1     -16.455  34.321  -1.228  1.00  0.00     0.019 C 
HETATM    2  C2  UNL     1     -16.322  34.961  -2.255  1.00  0.00    -0.064 C 
HETATM    3  C3  UNL     1     -15.169  35.159  -3.234  1.00  0.00     0.038 C 
HETATM    4  C4  UNL     1     -15.620  35.217  -4.634  1.00  0.00     0.006 C 
HETATM    5  C5  UNL     1     -17.028  35.466  -4.964  1.00  0.00     0.015 C 
HETATM    6  C6  UNL     1     -17.993  35.882  -3.934  1.00  0.00    -0.009 C 
HETATM    7  C7  UNL     1     -19.178  34.880  -3.997  1.00  0.00     0.021 C 
HETATM    8  C8  UNL     1     -17.424  35.982  -2.605  1.00  0.00    -0.065 C 
HETATM    9  C9  UNL     1     -18.407  36.303  -1.557  1.00  0.00     0.036 C 
HETATM   10  C10 UNL     1     -18.782  37.741  -1.840  1.00  0.00     0.009 C 
HETATM   11  C11 UNL     1     -19.318  37.866  -3.252  1.00  0.00    -0.005 C 
HETATM   12  C12 UNL     1     -20.799  37.525  -3.136  1.00  0.00     0.011 C 
HETATM   13  C13 UNL     1     -18.573  37.291  -4.347  1.00  0.00    -0.012 C 
HETATM   14  C14 UNL     1     -17.368  38.158  -4.688  1.00  0.00     0.021 C 
ENDROOT
BRANCH  13  15
HETATM   15  C15 UNL     1     -19.259  37.083  -5.645  1.00  0.00    -0.012 C 
HETATM   16  C16 UNL     1     -19.469  37.689  -6.743  1.00  0.00     0.047 C 
BRANCH  16  17
HETATM   17  C17 UNL     1     -19.040  39.052  -7.246  1.00  0.00     0.120 C 
HETATM   18  N1  UNL     1     -19.513  40.033  -6.726  1.00  0.00    -0.253 N 
ATOM     19  H1  UNL     1     -20.169  39.865  -5.963  1.00  0.00     0.196 HD
BRANCH  18  20
HETATM   20  O1  UNL     1     -19.261  41.412  -7.056  1.00  0.00    -0.288 OA
ATOM     21  H1  UNL     1     -19.181  41.796  -7.921  1.00  0.00     0.244 HD
ENDBRANCH  18  20
BRANCH  17  22
HETATM   22  N2  UNL     1     -18.138  39.027  -8.332  1.00  0.00    -0.370 N 
ATOM     23  H2  UNL     1     -17.776  39.911  -8.688  1.00  0.00     0.161 HD
BRANCH  22  24
HETATM   24  C18 UNL     1     -17.703  37.780  -8.969  1.00  0.00     0.083 A 
HETATM   25  C19 UNL     1     -16.467  37.126  -8.573  1.00  0.00     0.027 A 
HETATM   26  C20 UNL     1     -16.397  37.930  -9.825  1.00  0.00     0.027 A 
ENDBRANCH  22  24
ENDBRANCH  17  22
ENDBRANCH  16  17
ENDBRANCH  13  15
TORSDOF 5
ENDMDL
MODEL 4
REMARK VINA RESULT: -8.250811490      2.646      5.080
REMARK  5 active torsions:
REMARK  status: ('A' for Active; 'I' for Inactive)
REMARK    1  A    between atoms: C13_13  and  C15_15 
REMARK    2  A    between atoms: C16_16  and  C17_17 
REMARK    3  A    between atoms: C17_17  and  N2_22 
REMARK    4  A    between atoms: N1_18  and  O1_20 
REMARK    5  A    between atoms: N2_22  and  C18_24 
ROOT
HETATM    1  C1  UNL     1     -19.366  36.743   0.006  1.00  0.00     0.019 C 
HETATM    2  C2  UNL     1     -18.388  36.320  -0.585  1.00  0.00    -0.064 C 
HETATM    3  C3  UNL     1     -17.158  35.525  -0.157  1.00  0.00     0.038 C 
HETATM    4  C4  UNL     1     -16.748  34.534  -1.165  1.00  0.00     0.006 C 
HETATM    5  C5  UNL     1     -17.227  34.622  -2.549  1.00  0.00     0.015 C 
HETATM    6  C6  UNL     1     -17.949  35.808  -3.035  1.00  0.00    -0.009 C 
HETATM    7  C7  UNL     1     -19.285  35.304  -3.645  1.00  0.00     0.021 C 
HETATM    8  C8  UNL     1     -18.152  36.826  -2.023  1.00  0.00    -0.065 C 
HETATM    9  C9  UNL     1     -18.957  37.970  -2.480  1.00  0.00     0.036 C 
HETATM   10  C10 UNL     1     -18.049  38.685  -3.456  1.00  0.00     0.009 C 
HETATM   11  C11 UNL     1     -17.634  37.737  -4.564  1.00  0.00    -0.005 C 
HETATM   12  C12 UNL     1     -18.763  37.819  -5.586  1.00  0.00     0.011 C 
HETATM   13  C13 UNL     1     -17.119  36.432  -4.225  1.00  0.00    -0.012 C 
HETATM   14  C14 UNL     1     -15.683  36.537  -3.727  1.00  0.00     0.021 C 
ENDROOT
BRANCH  13  15
HETATM   15  C15 UNL     1     -17.071  35.389  -5.277  1.00  0.00    -0.012 C 
HETATM   16  C16 UNL     1     -16.465  35.130  -6.366  1.00  0.00     0.047 C 
BRANCH  16  17
HETATM   17  C17 UNL     1     -15.394  35.880  -7.130  1.00  0.00     0.120 C 
HETATM   18  N1  UNL     1     -15.710  36.873  -7.739  1.00  0.00    -0.253 N 
ATOM     19  H1  UNL     1     -16.691  37.145  -7.678  1.00  0.00     0.196 HD
BRANCH  18  20
HETATM   20  O1  UNL     1     -14.864  37.720  -8.540  1.00  0.00    -0.288 OA
ATOM     21  H1  UNL     1     -15.128  38.317  -9.230  1.00  0.00     0.244 HD
ENDBRANCH  18  20
BRANCH  17  22
HETATM   22  N2  UNL     1     -14.111  35.293  -7.085  1.00  0.00    -0.370 N 
ATOM     23  H2  UNL     1     -13.491  35.410  -7.886  1.00  0.00     0.161 HD
BRANCH  22  24
HETATM   24  C18 UNL     1     -13.636  34.521  -5.933  1.00  0.00     0.083 A 
HETATM   25  C19 UNL     1     -12.423  34.896  -5.226  1.00  0.00     0.027 A 
HETATM   26  C20 UNL     1     -12.283  33.769  -6.189  1.00  0.00     0.027 A 
ENDBRANCH  22  24
ENDBRANCH  17  22
ENDBRANCH  16  17
ENDBRANCH  13  15
TORSDOF 5
ENDMDL
MODEL 5
REMARK VINA RESULT: -8.221017019      2.375      5.721
REMARK  5 active torsions:
REMARK  status: ('A' for Active; 'I' for Inactive)
REMARK    1  A    between atoms: C13_13  and  C15_15 
REMARK    2  A    between atoms: C16_16  and  C17_17 
REMARK    3  A    between atoms: C17_17  and  N2_22 
REMARK    4  A    between atoms: N1_18  and  O1_20 
REMARK    5  A    between atoms: N2_22  and  C18_24 
ROOT
HETATM    1  C1  UNL     1     -22.960  40.900  -1.864  1.00  0.00     0.019 C 
HETATM    2  C2  UNL     1     -22.069  40.093  -1.670  1.00  0.00    -0.064 C 
HETATM    3  C3  UNL     1     -21.647  39.255  -0.468  1.00  0.00     0.038 C 
HETATM    4  C4  UNL     1     -21.197  37.906  -0.850  1.00  0.00     0.006 C 
HETATM    5  C5  UNL     1     -20.826  37.598  -2.236  1.00  0.00     0.015 C 
HETATM    6  C6  UNL     1     -20.677  38.660  -3.242  1.00  0.00    -0.009 C 
HETATM    7  C7  UNL     1     -21.588  38.277  -4.440  1.00  0.00     0.021 C 
HETATM    8  C8  UNL     1     -20.959  39.989  -2.737  1.00  0.00    -0.065 C 
HETATM    9  C9  UNL     1     -20.905  41.043  -3.764  1.00  0.00     0.036 C 
HETATM   10  C10 UNL     1     -19.435  41.147  -4.099  1.00  0.00     0.009 C 
HETATM   11  C11 UNL     1     -18.914  39.801  -4.563  1.00  0.00    -0.005 C 
HETATM   12  C12 UNL     1     -19.229  39.758  -6.054  1.00  0.00     0.011 C 
HETATM   13  C13 UNL     1     -19.192  38.623  -3.777  1.00  0.00    -0.012 C 
HETATM   14  C14 UNL     1     -18.301  38.583  -2.541  1.00  0.00     0.021 C 
ENDROOT
BRANCH  13  15
HETATM   15  C15 UNL     1     -19.018  37.291  -4.402  1.00  0.00    -0.012 C 
HETATM   16  C16 UNL     1     -18.105  36.561  -4.904  1.00  0.00     0.047 C 
BRANCH  16  17
HETATM   17  C17 UNL     1     -16.617  36.783  -5.083  1.00  0.00     0.120 C 
HETATM   18  N1  UNL     1     -16.234  37.326  -6.090  1.00  0.00    -0.253 N 
ATOM     19  H1  UNL     1     -16.957  37.613  -6.750  1.00  0.00     0.196 HD
BRANCH  18  20
HETATM   20  O1  UNL     1     -14.876  37.618  -6.470  1.00  0.00    -0.288 OA
ATOM     21  H1  UNL     1     -14.546  37.821  -7.337  1.00  0.00     0.244 HD
ENDBRANCH  18  20
BRANCH  17  22
HETATM   22  N2  UNL     1     -15.811  36.274  -4.042  1.00  0.00    -0.370 N 
ATOM     23  H2  UNL     1     -14.989  36.804  -3.755  1.00  0.00     0.161 HD
BRANCH  22  24
HETATM   24  C18 UNL     1     -16.110  35.012  -3.357  1.00  0.00     0.083 A 
HETATM   25  C19 UNL     1     -16.611  34.998  -1.993  1.00  0.00     0.027 A 
HETATM   26  C20 UNL     1     -15.158  34.709  -2.147  1.00  0.00     0.027 A 
ENDBRANCH  22  24
ENDBRANCH  17  22
ENDBRANCH  16  17
ENDBRANCH  13  15
TORSDOF 5
ENDMDL
