MODEL 1
REMARK VINA RESULT: -9.877694369      0.000      0.000
REMARK  4 active torsions:
REMARK  status: ('A' for Active; 'I' for Inactive)
REMARK    1  A    between atoms: C7_7  and  C8_8 
REMARK    2  A    between atoms: C8_8  and  O1_9 
REMARK    3  A    between atoms: C8_8  and  C9_11 
REMARK    4  A    between atoms: C9_11  and  C10_12 
ROOT
HETATM    1  C1  UNL     1     -23.072  40.147  -2.254  1.00  0.00     0.015 C 
HETATM    2  C2  UNL     1     -21.641  40.249  -1.788  1.00  0.00    -0.040 A 
HETATM    3  C3  UNL     1     -21.612  40.553  -0.305  1.00  0.00     0.010 A 
HETATM    4  C4  UNL     1     -20.831  39.297  -0.076  1.00  0.00     0.006 A 
HETATM    5  C5  UNL     1     -20.957  38.905  -1.541  1.00  0.00    -0.001 A 
HETATM    6  C6  UNL     1     -19.653  38.927  -2.212  1.00  0.00     0.011 C 
HETATM    7  C7  UNL     1     -18.691  37.856  -2.013  1.00  0.00     0.025 C 
HETATM    8  C16 UNL     1     -17.994  37.726  -3.376  1.00  0.00     0.060 C 
HETATM    9  C17 UNL     1     -18.485  38.855  -4.194  1.00  0.00    -0.011 C 
HETATM   10  N1  UNL     1     -17.862  39.446  -5.101  1.00  0.00    -0.405 N 
ATOM     11  H11 UNL     1     -18.201  40.224  -5.666  1.00  0.00     0.155 HD
ATOM     12  H12 UNL     1     -16.916  39.253  -5.431  1.00  0.00     0.155 HD
HETATM   13  C18 UNL     1     -19.855  39.134  -3.716  1.00  0.00    -0.001 C 
HETATM   14  C19 UNL     1     -20.776  38.149  -4.344  1.00  0.00     0.022 C 
HETATM   15  C20 UNL     1     -20.297  40.558  -3.905  1.00  0.00     0.016 C 
HETATM   16  C21 UNL     1     -20.847  41.163  -2.649  1.00  0.00     0.010 C 
ENDROOT
BRANCH   7  17
HETATM   17  C8  UNL     1     -19.125  36.531  -1.561  1.00  0.00     0.123 C 
BRANCH  17  18
HETATM   18  O1  UNL     1     -19.144  35.510  -2.450  1.00  0.00    -0.395 OA
ATOM     19  H1  UNL     1     -18.842  34.654  -2.172  1.00  0.00     0.210 HD
ENDBRANCH  17  18
BRANCH  17  20
HETATM   20  C9  UNL     1     -18.193  36.093  -0.422  1.00  0.00     0.036 C 
BRANCH  20  21
HETATM   21  C10 UNL     1     -18.885  36.328   0.921  1.00  0.00    -0.012 C 
HETATM   22  C11 UNL     1     -18.614  35.175   1.831  1.00  0.00     0.005 C 
HETATM   23  C12 UNL     1     -17.264  35.272   2.522  1.00  0.00     0.000 C 
HETATM   24  C13 UNL     1     -17.129  36.529   3.339  1.00  0.00     0.000 C 
HETATM   25  C14 UNL     1     -18.233  37.522   3.024  1.00  0.00     0.000 C 
HETATM   26  C15 UNL     1     -18.323  37.605   1.512  1.00  0.00     0.005 C 
ENDBRANCH  20  21
ENDBRANCH  17  20
ENDBRANCH   7  17
TORSDOF 4
ENDMDL
MODEL 2
REMARK VINA RESULT: -9.451091887      0.912      1.113
REMARK  4 active torsions:
REMARK  status: ('A' for Active; 'I' for Inactive)
REMARK    1  A    between atoms: C7_7  and  C8_8 
REMARK    2  A    between atoms: C8_8  and  O1_9 
REMARK    3  A    between atoms: C8_8  and  C9_11 
REMARK    4  A    between atoms: C9_11  and  C10_12 
ROOT
HETATM    1  C1  UNL     1     -22.182  39.844  -4.047  1.00  0.00     0.015 C 
HETATM    2  C2  UNL     1     -20.974  39.997  -3.158  1.00  0.00    -0.040 A 
HETATM    3  C3  UNL     1     -21.403  40.526  -1.807  1.00  0.00     0.010 A 
HETATM    4  C4  UNL     1     -20.818  39.310  -1.159  1.00  0.00     0.006 A 
HETATM    5  C5  UNL     1     -20.492  38.698  -2.513  1.00  0.00    -0.001 A 
HETATM    6  C6  UNL     1     -19.043  38.598  -2.716  1.00  0.00     0.011 C 
HETATM    7  C7  UNL     1     -18.266  37.558  -2.064  1.00  0.00     0.025 C 
HETATM    8  C16 UNL     1     -17.178  37.209  -3.090  1.00  0.00     0.060 C 
HETATM    9  C17 UNL     1     -17.307  38.204  -4.175  1.00  0.00    -0.011 C 
HETATM   10  N1  UNL     1     -16.389  38.639  -4.903  1.00  0.00    -0.405 N 
ATOM     11  H11 UNL     1     -16.478  39.325  -5.651  1.00  0.00     0.155 HD
ATOM     12  H12 UNL     1     -15.402  38.384  -4.874  1.00  0.00     0.155 HD
HETATM   13  C18 UNL     1     -18.737  38.572  -4.217  1.00  0.00    -0.001 C 
HETATM   14  C19 UNL     1     -19.468  37.514  -4.965  1.00  0.00     0.022 C 
HETATM   15  C20 UNL     1     -19.004  39.956  -4.740  1.00  0.00     0.016 C 
HETATM   16  C21 UNL     1     -19.888  40.755  -3.832  1.00  0.00     0.010 C 
ENDROOT
BRANCH   7  17
HETATM   17  C8  UNL     1     -18.905  36.325  -1.595  1.00  0.00     0.123 C 
BRANCH  17  18
HETATM   18  O1  UNL     1     -18.949  35.255  -2.424  1.00  0.00    -0.395 OA
ATOM     19  H1  UNL     1     -19.271  35.373  -3.309  1.00  0.00     0.210 HD
ENDBRANCH  17  18
BRANCH  17  20
HETATM   20  C9  UNL     1     -18.166  35.861  -0.332  1.00  0.00     0.036 C 
BRANCH  20  21
HETATM   21  C10 UNL     1     -18.978  36.250   0.905  1.00  0.00    -0.012 C 
HETATM   22  C11 UNL     1     -18.710  35.277   2.005  1.00  0.00     0.005 C 
HETATM   23  C12 UNL     1     -17.428  35.579   2.763  1.00  0.00     0.000 C 
HETATM   24  C13 UNL     1     -17.438  36.954   3.375  1.00  0.00     0.000 C 
HETATM   25  C14 UNL     1     -18.572  37.802   2.828  1.00  0.00     0.000 C 
HETATM   26  C15 UNL     1     -18.545  37.642   1.320  1.00  0.00     0.005 C 
ENDBRANCH  20  21
ENDBRANCH  17  20
ENDBRANCH   7  17
TORSDOF 4
ENDMDL
MODEL 3
REMARK VINA RESULT: -9.364887429      2.131      3.306
REMARK  4 active torsions:
REMARK  status: ('A' for Active; 'I' for Inactive)
REMARK    1  A    between atoms: C7_7  and  C8_8 
REMARK    2  A    between atoms: C8_8  and  O1_9 
REMARK    3  A    between atoms: C8_8  and  C9_11 
REMARK    4  A    between atoms: C9_11  and  C10_12 
ROOT
HETATM    1  C1  UNL     1     -20.899  37.460  -3.070  1.00  0.00     0.015 C 
HETATM    2  C2  UNL     1     -19.463  37.811  -2.775  1.00  0.00    -0.040 A 
HETATM    3  C3  UNL     1     -19.413  38.889  -1.713  1.00  0.00     0.010 A 
HETATM    4  C4  UNL     1     -18.606  37.977  -0.843  1.00  0.00     0.006 A 
HETATM    5  C5  UNL     1     -18.751  36.836  -1.838  1.00  0.00    -0.001 A 
HETATM    6  C6  UNL     1     -17.459  36.487  -2.439  1.00  0.00     0.011 C 
HETATM    7  C7  UNL     1     -16.475  35.713  -1.701  1.00  0.00     0.025 C 
HETATM    8  C16 UNL     1     -15.799  34.850  -2.777  1.00  0.00     0.060 C 
HETATM    9  C17 UNL     1     -16.323  35.330  -4.073  1.00  0.00    -0.011 C 
HETATM   10  N1  UNL     1     -15.727  35.319  -5.170  1.00  0.00    -0.405 N 
ATOM     11  H11 UNL     1     -16.089  35.650  -6.064  1.00  0.00     0.155 HD
ATOM     12  H12 UNL     1     -14.783  34.980  -5.359  1.00  0.00     0.155 HD
HETATM   13  C18 UNL     1     -17.690  35.820  -3.799  1.00  0.00    -0.001 C 
HETATM   14  C19 UNL     1     -18.604  34.648  -3.750  1.00  0.00     0.022 C 
HETATM   15  C20 UNL     1     -18.160  36.896  -4.738  1.00  0.00     0.016 C 
HETATM   16  C21 UNL     1     -18.699  38.095  -4.017  1.00  0.00     0.010 C 
ENDROOT
BRANCH   7  17
HETATM   17  C8  UNL     1     -16.878  34.862  -0.578  1.00  0.00     0.123 C 
BRANCH  17  18
HETATM   18  O1  UNL     1     -16.488  33.565  -0.567  1.00  0.00    -0.395 OA
ATOM     19  H1  UNL     1     -16.654  33.043   0.208  1.00  0.00     0.210 HD
ENDBRANCH  17  18
BRANCH  17  20
HETATM   20  C9  UNL     1     -16.324  35.488   0.711  1.00  0.00     0.036 C 
BRANCH  20  21
HETATM   21  C10 UNL     1     -17.221  35.104   1.889  1.00  0.00    -0.012 C 
HETATM   22  C11 UNL     1     -17.047  36.095   2.992  1.00  0.00     0.005 C 
HETATM   23  C12 UNL     1     -17.870  37.357   2.789  1.00  0.00     0.000 C 
HETATM   24  C13 UNL     1     -19.342  37.066   2.677  1.00  0.00     0.000 C 
HETATM   25  C14 UNL     1     -19.606  35.583   2.481  1.00  0.00     0.000 C 
HETATM   26  C15 UNL     1     -18.655  35.112   1.398  1.00  0.00     0.005 C 
ENDBRANCH  20  21
ENDBRANCH  17  20
ENDBRANCH   7  17
TORSDOF 4
ENDMDL
MODEL 4
REMARK VINA RESULT: -9.071198973      2.348      3.107
REMARK  4 active torsions:
REMARK  status: ('A' for Active; 'I' for Inactive)
REMARK    1  A    between atoms: C7_7  and  C8_8 
REMARK    2  A    between atoms: C8_8  and  O1_9 
REMARK    3  A    between atoms: C8_8  and  C9_11 
REMARK    4  A    between atoms: C9_11  and  C10_12 
ROOT
HETATM    1  C1  UNL     1     -22.703  39.830  -1.845  1.00  0.00     0.015 C 
HETATM    2  C2  UNL     1     -21.219  39.586  -1.954  1.00  0.00    -0.040 A 
HETATM    3  C3  UNL     1     -20.667  39.208  -0.596  1.00  0.00     0.010 A 
HETATM    4  C4  UNL     1     -20.184  37.912  -1.167  1.00  0.00     0.006 A 
HETATM    5  C5  UNL     1     -20.841  38.212  -2.506  1.00  0.00    -0.001 A 
HETATM    6  C6  UNL     1     -19.839  38.403  -3.560  1.00  0.00     0.011 C 
HETATM    7  C7  UNL     1     -19.154  37.270  -4.155  1.00  0.00     0.025 C 
HETATM    8  C16 UNL     1     -18.958  37.683  -5.622  1.00  0.00     0.060 C 
HETATM    9  C17 UNL     1     -19.383  39.096  -5.707  1.00  0.00    -0.011 C 
HETATM   10  N1  UNL     1     -18.942  39.963  -6.490  1.00  0.00    -0.405 N 
ATOM     11  H11 UNL     1     -19.235  40.938  -6.549  1.00  0.00     0.155 HD
ATOM     12  H12 UNL     1     -18.218  39.847  -7.199  1.00  0.00     0.155 HD
HETATM   13  C18 UNL     1     -20.432  39.264  -4.680  1.00  0.00    -0.001 C 
HETATM   14  C19 UNL     1     -21.711  38.742  -5.231  1.00  0.00     0.022 C 
HETATM   15  C20 UNL     1     -20.549  40.662  -4.140  1.00  0.00     0.016 C 
HETATM   16  C21 UNL     1     -20.526  40.706  -2.642  1.00  0.00     0.010 C 
ENDROOT
BRANCH   7  17
HETATM   17  C8  UNL     1     -19.738  35.927  -4.103  1.00  0.00     0.123 C 
BRANCH  17  18
HETATM   18  O1  UNL     1     -20.179  35.360  -5.252  1.00  0.00    -0.395 OA
ATOM     19  H1  UNL     1     -21.111  35.356  -5.433  1.00  0.00     0.210 HD
ENDBRANCH  17  18
BRANCH  17  20
HETATM   20  C9  UNL     1     -18.679  34.973  -3.532  1.00  0.00     0.036 C 
BRANCH  20  21
HETATM   21  C10 UNL     1     -17.496  35.785  -3.003  1.00  0.00    -0.012 C 
HETATM   22  C11 UNL     1     -17.411  35.635  -1.520  1.00  0.00     0.005 C 
HETATM   23  C12 UNL     1     -16.710  34.355  -1.094  1.00  0.00     0.000 C 
HETATM   24  C13 UNL     1     -15.308  34.266  -1.634  1.00  0.00     0.000 C 
HETATM   25  C14 UNL     1     -15.056  35.306  -2.710  1.00  0.00     0.000 C 
HETATM   26  C15 UNL     1     -16.239  35.247  -3.657  1.00  0.00     0.005 C 
ENDBRANCH  20  21
ENDBRANCH  17  20
ENDBRANCH   7  17
TORSDOF 4
ENDMDL
MODEL 5
REMARK VINA RESULT: -8.811611918      2.255      3.833
REMARK  4 active torsions:
REMARK  status: ('A' for Active; 'I' for Inactive)
REMARK    1  A    between atoms: C7_7  and  C8_8 
REMARK    2  A    between atoms: C8_8  and  O1_9 
REMARK    3  A    between atoms: C8_8  and  C9_11 
REMARK    4  A    between atoms: C9_11  and  C10_12 
ROOT
HETATM    1  C1  UNL     1     -22.356  38.298  -0.350  1.00  0.00     0.015 C 
HETATM    2  C2  UNL     1     -20.959  38.828  -0.549  1.00  0.00    -0.040 A 
HETATM    3  C3  UNL     1     -20.026  38.189   0.458  1.00  0.00     0.010 A 
HETATM    4  C4  UNL     1     -19.199  37.651  -0.667  1.00  0.00     0.006 A 
HETATM    5  C5  UNL     1     -20.191  38.173  -1.697  1.00  0.00    -0.001 A 
HETATM    6  C6  UNL     1     -19.597  39.236  -2.515  1.00  0.00     0.011 C 
HETATM    7  C7  UNL     1     -18.660  38.926  -3.581  1.00  0.00     0.025 C 
HETATM    8  C16 UNL     1     -18.963  39.978  -4.658  1.00  0.00     0.060 C 
HETATM    9  C17 UNL     1     -19.925  40.920  -4.049  1.00  0.00    -0.011 C 
HETATM   10  N1  UNL     1     -20.044  42.137  -4.307  1.00  0.00    -0.405 N 
ATOM     11  H11 UNL     1     -20.708  42.787  -3.887  1.00  0.00     0.155 HD
ATOM     12  H12 UNL     1     -19.503  42.684  -4.977  1.00  0.00     0.155 HD
HETATM   13  C18 UNL     1     -20.709  40.127  -3.080  1.00  0.00    -0.001 C 
HETATM   14  C19 UNL     1     -21.758  39.384  -3.828  1.00  0.00     0.022 C 
HETATM   15  C20 UNL     1     -21.257  40.924  -1.929  1.00  0.00     0.016 C 
HETATM   16  C21 UNL     1     -20.935  40.312  -0.599  1.00  0.00     0.010 C 
ENDROOT
BRANCH   7  17
HETATM   17  C8  UNL     1     -18.634  37.595  -4.194  1.00  0.00     0.123 C 
BRANCH  17  18
HETATM   18  O1  UNL     1     -19.248  37.413  -5.388  1.00  0.00    -0.395 OA
ATOM     19  H1  UNL     1     -19.743  36.616  -5.531  1.00  0.00     0.210 HD
ENDBRANCH  17  18
BRANCH  17  20
HETATM   20  C9  UNL     1     -17.165  37.200  -4.402  1.00  0.00     0.036 C 
BRANCH  20  21
HETATM   21  C10 UNL     1     -16.988  35.715  -4.082  1.00  0.00    -0.012 C 
HETATM   22  C11 UNL     1     -15.662  35.250  -4.588  1.00  0.00     0.005 C 
HETATM   23  C12 UNL     1     -14.519  35.580  -3.643  1.00  0.00     0.000 C 
HETATM   24  C13 UNL     1     -14.713  34.975  -2.279  1.00  0.00     0.000 C 
HETATM   25  C14 UNL     1     -16.129  34.459  -2.092  1.00  0.00     0.000 C 
HETATM   26  C15 UNL     1     -17.058  35.557  -2.576  1.00  0.00     0.005 C 
ENDBRANCH  20  21
ENDBRANCH  17  20
ENDBRANCH   7  17
TORSDOF 4
ENDMDL
