MODEL 1
REMARK VINA RESULT: -7.824784787      0.000      0.000
REMARK  6 active torsions:
REMARK  status: ('A' for Active; 'I' for Inactive)
REMARK    1  A    between atoms: C1_2  and  C2_4 
REMARK    2  A    between atoms: C2_4  and  N1_5 
REMARK    3  A    between atoms: C4_7  and  C5_8 
REMARK       I    between atoms: C5_8  and  N2_10 
REMARK    4  A    between atoms: N2_10  and  C6_12 
REMARK    5  A    between atoms: C11_17  and  N3_18 
REMARK    6  A    between atoms: N4_21  and  C14_22 
ROOT
HETATM    1  C6  UNL     1      41.191  14.562  41.906  1.00  0.00     0.061 A 
HETATM    2  C7  UNL     1      40.582  15.194  40.852  1.00  0.00     0.032 A 
HETATM    3  C8  UNL     1      39.468  14.652  40.249  1.00  0.00     0.002 A 
HETATM    4  C9  UNL     1      38.946  13.463  40.695  1.00  0.00     0.002 A 
HETATM    5  C10 UNL     1      39.546  12.819  41.750  1.00  0.00     0.031 A 
HETATM    6  C11 UNL     1      40.656  13.345  42.363  1.00  0.00     0.057 A 
ENDROOT
BRANCH   1   7
HETATM    7  N2  UNL     1      42.355  15.065  42.533  1.00  0.00    -0.320 N 
HETATM    8  C5  UNL     1      43.651  15.124  42.030  1.00  0.00     0.275 C 
HETATM    9  O3  UNL     1      44.027  14.731  40.897  1.00  0.00    -0.266 OA
ATOM     10  H2  UNL     1      42.228  15.431  43.476  1.00  0.00     0.169 HD
BRANCH   8  11
HETATM   11  C4  UNL     1      44.721  15.705  42.895  1.00  0.00     0.134 A 
HETATM   12  C3  UNL     1      45.956  15.178  43.195  1.00  0.00     0.148 A 
HETATM   13  N1  UNL     1      46.615  16.043  44.022  1.00  0.00    -0.277 N 
HETATM   14  N7  UNL     1      45.798  17.057  44.211  1.00  0.00    -0.240 N 
HETATM   15  N6  UNL     1      44.654  16.876  43.544  1.00  0.00    -0.280 N 
ATOM     16  H7  UNL     1      46.008  17.871  44.789  1.00  0.00     0.208 HD
ATOM     17  H6  UNL     1      43.864  17.520  43.530  1.00  0.00     0.189 HD
BRANCH  13  18
HETATM   18  C2  UNL     1      47.947  15.825  44.550  1.00  0.00     0.262 C 
BRANCH  18  19
HETATM   19  C1  UNL     1      48.616  17.076  44.906  1.00  0.00     0.193 C 
HETATM   20  O1  UNL     1      48.799  17.937  43.981  1.00  0.00    -0.647 OA
HETATM   21  O2  UNL     1      49.063  17.395  46.161  1.00  0.00    -0.647 OA
ENDBRANCH  18  19
ENDBRANCH  13  18
ENDBRANCH   8  11
ENDBRANCH   1   7
BRANCH   6  22
HETATM   22  N3  UNL     1      41.240  12.658  43.486  1.00  0.00    -0.376 N 
HETATM   23  C12 UNL     1      42.508  11.990  43.444  1.00  0.00     0.143 C 
HETATM   24  C13 UNL     1      43.470  12.558  44.499  1.00  0.00     0.144 C 
HETATM   25  N4  UNL     1      42.726  12.779  45.728  1.00  0.00    -0.364 N 
HETATM   26  C19 UNL     1      41.424  12.208  45.887  1.00  0.00     0.144 C 
HETATM   27  C20 UNL     1      40.513  12.631  44.740  1.00  0.00     0.143 C 
BRANCH  25  28
HETATM   28  C14 UNL     1      43.278  13.559  46.787  1.00  0.00     0.102 A 
HETATM   29  C15 UNL     1      43.937  14.730  46.461  1.00  0.00     0.048 A 
HETATM   30  C16 UNL     1      44.474  15.492  47.464  1.00  0.00     0.005 A 
HETATM   31  C17 UNL     1      44.345  15.077  48.768  1.00  0.00     0.017 A 
HETATM   32  C18 UNL     1      43.678  13.898  49.042  1.00  0.00     0.089 A 
HETATM   33  N5  UNL     1      43.152  13.151  48.060  1.00  0.00    -0.352 N 
ATOM     34  H5  UNL     1      42.661  12.283  48.278  1.00  0.00     0.166 HD
ENDBRANCH  25  28
ENDBRANCH   6  22
TORSDOF 6
ENDMDL
MODEL 2
REMARK VINA RESULT: -7.796037469      3.331      5.927
REMARK  6 active torsions:
REMARK  status: ('A' for Active; 'I' for Inactive)
REMARK    1  A    between atoms: C1_2  and  C2_4 
REMARK    2  A    between atoms: C2_4  and  N1_5 
REMARK    3  A    between atoms: C4_7  and  C5_8 
REMARK       I    between atoms: C5_8  and  N2_10 
REMARK    4  A    between atoms: N2_10  and  C6_12 
REMARK    5  A    between atoms: C11_17  and  N3_18 
REMARK    6  A    between atoms: N4_21  and  C14_22 
ROOT
HETATM    1  C6  UNL     1      43.105  12.903  45.867  1.00  0.00     0.061 A 
HETATM    2  C7  UNL     1      42.512  11.895  46.584  1.00  0.00     0.032 A 
HETATM    3  C8  UNL     1      42.033  10.766  45.956  1.00  0.00     0.002 A 
HETATM    4  C9  UNL     1      42.142  10.629  44.595  1.00  0.00     0.002 A 
HETATM    5  C10 UNL     1      42.734  11.630  43.863  1.00  0.00     0.031 A 
HETATM    6  C11 UNL     1      43.217  12.762  44.472  1.00  0.00     0.057 A 
ENDROOT
BRANCH   1   7
HETATM    7  N2  UNL     1      43.579  14.093  46.464  1.00  0.00    -0.320 N 
HETATM    8  C5  UNL     1      43.750  14.374  47.816  1.00  0.00     0.275 C 
HETATM    9  O3  UNL     1      43.506  13.596  48.773  1.00  0.00    -0.266 OA
ATOM     10  H2  UNL     1      43.829  14.844  45.820  1.00  0.00     0.169 HD
BRANCH   8  11
HETATM   11  C4  UNL     1      44.271  15.720  48.201  1.00  0.00     0.134 A 
HETATM   12  C3  UNL     1      44.256  16.320  49.439  1.00  0.00     0.148 A 
HETATM   13  N1  UNL     1      44.838  17.551  49.338  1.00  0.00    -0.277 N 
HETATM   14  N7  UNL     1      45.191  17.684  48.078  1.00  0.00    -0.240 N 
HETATM   15  N6  UNL     1      44.860  16.596  47.375  1.00  0.00    -0.280 N 
ATOM     16  H7  UNL     1      45.654  18.506  47.689  1.00  0.00     0.208 HD
ATOM     17  H6  UNL     1      45.028  16.457  46.380  1.00  0.00     0.189 HD
BRANCH  13  18
HETATM   18  C2  UNL     1      45.002  18.477  50.442  1.00  0.00     0.262 C 
BRANCH  18  19
HETATM   19  C1  UNL     1      44.083  18.196  51.545  1.00  0.00     0.193 C 
HETATM   20  O1  UNL     1      42.952  18.789  51.542  1.00  0.00    -0.647 OA
HETATM   21  O2  UNL     1      44.344  17.342  52.583  1.00  0.00    -0.647 OA
ENDBRANCH  18  19
ENDBRANCH  13  18
ENDBRANCH   8  11
ENDBRANCH   1   7
BRANCH   6  22
HETATM   22  N3  UNL     1      43.858  13.777  43.678  1.00  0.00    -0.376 N 
HETATM   23  C12 UNL     1      43.341  15.103  43.504  1.00  0.00     0.143 C 
HETATM   24  C13 UNL     1      44.357  16.160  43.967  1.00  0.00     0.144 C 
HETATM   25  N4  UNL     1      45.679  15.755  43.519  1.00  0.00    -0.364 N 
HETATM   26  C19 UNL     1      45.816  14.718  42.544  1.00  0.00     0.144 C 
HETATM   27  C20 UNL     1      45.102  13.453  43.007  1.00  0.00     0.143 C 
BRANCH  25  28
HETATM   28  C14 UNL     1      46.851  16.382  44.038  1.00  0.00     0.102 A 
HETATM   29  C15 UNL     1      47.634  15.669  44.928  1.00  0.00     0.048 A 
HETATM   30  C16 UNL     1      48.762  16.253  45.436  1.00  0.00     0.005 A 
HETATM   31  C17 UNL     1      49.090  17.531  45.052  1.00  0.00     0.017 A 
HETATM   32  C18 UNL     1      48.275  18.203  44.161  1.00  0.00     0.089 A 
HETATM   33  N5  UNL     1      47.169  17.630  43.662  1.00  0.00    -0.352 N 
ATOM     34  H5  UNL     1      46.577  18.138  43.004  1.00  0.00     0.166 HD
ENDBRANCH  25  28
ENDBRANCH   6  22
TORSDOF 6
ENDMDL
MODEL 3
REMARK VINA RESULT: -7.680891349      4.473      8.176
REMARK  6 active torsions:
REMARK  status: ('A' for Active; 'I' for Inactive)
REMARK    1  A    between atoms: C1_2  and  C2_4 
REMARK    2  A    between atoms: C2_4  and  N1_5 
REMARK    3  A    between atoms: C4_7  and  C5_8 
REMARK       I    between atoms: C5_8  and  N2_10 
REMARK    4  A    between atoms: N2_10  and  C6_12 
REMARK    5  A    between atoms: C11_17  and  N3_18 
REMARK    6  A    between atoms: N4_21  and  C14_22 
ROOT
HETATM    1  C6  UNL     1      41.839  11.085  51.179  1.00  0.00     0.061 A 
HETATM    2  C7  UNL     1      41.204  10.348  52.146  1.00  0.00     0.032 A 
HETATM    3  C8  UNL     1      40.825   9.044  51.909  1.00  0.00     0.002 A 
HETATM    4  C9  UNL     1      41.077   8.458  50.694  1.00  0.00     0.002 A 
HETATM    5  C10 UNL     1      41.712   9.184  49.715  1.00  0.00     0.031 A 
HETATM    6  C11 UNL     1      42.096  10.484  49.934  1.00  0.00     0.057 A 
ENDROOT
BRANCH   1   7
HETATM    7  N2  UNL     1      42.214  12.435  51.367  1.00  0.00    -0.320 N 
HETATM    8  C5  UNL     1      42.877  13.005  52.449  1.00  0.00     0.275 C 
HETATM    9  O3  UNL     1      43.270  12.404  53.481  1.00  0.00    -0.266 OA
ATOM     10  H2  UNL     1      41.968  13.074  50.611  1.00  0.00     0.169 HD
BRANCH   8  11
HETATM   11  C4  UNL     1      43.163  14.472  52.413  1.00  0.00     0.134 A 
HETATM   12  C3  UNL     1      43.853  15.183  51.459  1.00  0.00     0.148 A 
HETATM   13  N1  UNL     1      43.874  16.500  51.823  1.00  0.00    -0.277 N 
HETATM   14  N7  UNL     1      43.217  16.573  52.961  1.00  0.00    -0.240 N 
HETATM   15  N6  UNL     1      42.781  15.366  53.335  1.00  0.00    -0.280 N 
ATOM     16  H7  UNL     1      43.062  17.433  53.486  1.00  0.00     0.208 HD
ATOM     17  H6  UNL     1      42.246  15.161  54.178  1.00  0.00     0.189 HD
BRANCH  13  18
HETATM   18  C2  UNL     1      44.513  17.554  51.061  1.00  0.00     0.262 C 
BRANCH  18  19
HETATM   19  C1  UNL     1      43.808  18.831  51.179  1.00  0.00     0.193 C 
HETATM   20  O1  UNL     1      42.537  18.800  51.296  1.00  0.00    -0.647 OA
HETATM   21  O2  UNL     1      44.412  20.061  51.173  1.00  0.00    -0.647 OA
ENDBRANCH  18  19
ENDBRANCH  13  18
ENDBRANCH   8  11
ENDBRANCH   1   7
BRANCH   6  22
HETATM   22  N3  UNL     1      42.787  11.205  48.897  1.00  0.00    -0.376 N 
HETATM   23  C12 UNL     1      43.673  10.593  47.950  1.00  0.00     0.143 C 
HETATM   24  C13 UNL     1      43.206  10.847  46.508  1.00  0.00     0.144 C 
HETATM   25  N4  UNL     1      42.759  12.226  46.405  1.00  0.00    -0.364 N 
HETATM   26  C19 UNL     1      43.072  13.158  47.445  1.00  0.00     0.144 C 
HETATM   27  C20 UNL     1      42.584  12.637  48.791  1.00  0.00     0.143 C 
BRANCH  25  28
HETATM   28  C14 UNL     1      42.010  12.670  45.275  1.00  0.00     0.102 A 
HETATM   29  C15 UNL     1      40.691  12.268  45.166  1.00  0.00     0.048 A 
HETATM   30  C16 UNL     1      39.957  12.684  44.088  1.00  0.00     0.005 A 
HETATM   31  C17 UNL     1      40.545  13.489  43.142  1.00  0.00     0.017 A 
HETATM   32  C18 UNL     1      41.866  13.863  43.296  1.00  0.00     0.089 A 
HETATM   33  N5  UNL     1      42.587  13.456  44.352  1.00  0.00    -0.352 N 
ATOM     34  H5  UNL     1      43.561  13.740  44.452  1.00  0.00     0.166 HD
ENDBRANCH  25  28
ENDBRANCH   6  22
TORSDOF 6
ENDMDL
MODEL 4
REMARK VINA RESULT: -7.548006089      4.971      9.179
REMARK  6 active torsions:
REMARK  status: ('A' for Active; 'I' for Inactive)
REMARK    1  A    between atoms: C1_2  and  C2_4 
REMARK    2  A    between atoms: C2_4  and  N1_5 
REMARK    3  A    between atoms: C4_7  and  C5_8 
REMARK       I    between atoms: C5_8  and  N2_10 
REMARK    4  A    between atoms: N2_10  and  C6_12 
REMARK    5  A    between atoms: C11_17  and  N3_18 
REMARK    6  A    between atoms: N4_21  and  C14_22 
ROOT
HETATM    1  C6  UNL     1      43.190  16.213  50.882  1.00  0.00     0.061 A 
HETATM    2  C7  UNL     1      42.813  17.219  51.736  1.00  0.00     0.032 A 
HETATM    3  C8  UNL     1      43.137  18.531  51.471  1.00  0.00     0.002 A 
HETATM    4  C9  UNL     1      43.846  18.858  50.342  1.00  0.00     0.002 A 
HETATM    5  C10 UNL     1      44.231  17.861  49.478  1.00  0.00     0.031 A 
HETATM    6  C11 UNL     1      43.917  16.548  49.726  1.00  0.00     0.057 A 
ENDROOT
BRANCH   1   7
HETATM    7  N2  UNL     1      42.909  14.850  51.131  1.00  0.00    -0.320 N 
HETATM    8  C5  UNL     1      42.892  14.179  52.350  1.00  0.00     0.275 C 
HETATM    9  O3  UNL     1      43.131  14.680  53.478  1.00  0.00    -0.266 OA
ATOM     10  H2  UNL     1      42.690  14.285  50.310  1.00  0.00     0.169 HD
BRANCH   8  11
HETATM   11  C4  UNL     1      42.564  12.721  52.352  1.00  0.00     0.134 A 
HETATM   12  C3  UNL     1      43.051  11.735  51.525  1.00  0.00     0.148 A 
HETATM   13  N1  UNL     1      42.484  10.544  51.880  1.00  0.00    -0.277 N 
HETATM   14  N7  UNL     1      41.682  10.810  52.889  1.00  0.00    -0.240 N 
HETATM   15  N6  UNL     1      41.715  12.112  53.190  1.00  0.00    -0.280 N 
ATOM     16  H7  UNL     1      41.113  10.117  53.375  1.00  0.00     0.208 HD
ATOM     17  H6  UNL     1      41.182  12.565  53.933  1.00  0.00     0.189 HD
BRANCH  13  18
HETATM   18  C2  UNL     1      42.755   9.278  51.230  1.00  0.00     0.262 C 
BRANCH  18  19
HETATM   19  C1  UNL     1      42.880   8.177  52.187  1.00  0.00     0.193 C 
HETATM   20  O1  UNL     1      41.805   7.665  52.648  1.00  0.00    -0.647 OA
HETATM   21  O2  UNL     1      44.068   7.653  52.625  1.00  0.00    -0.647 OA
ENDBRANCH  18  19
ENDBRANCH  13  18
ENDBRANCH   8  11
ENDBRANCH   1   7
BRANCH   6  22
HETATM   22  N3  UNL     1      44.310  15.533  48.783  1.00  0.00    -0.376 N 
HETATM   23  C12 UNL     1      44.435  14.142  49.109  1.00  0.00     0.143 C 
HETATM   24  C13 UNL     1      43.525  13.280  48.220  1.00  0.00     0.144 C 
HETATM   25  N4  UNL     1      43.595  13.789  46.860  1.00  0.00    -0.364 N 
HETATM   26  C19 UNL     1      44.624  14.714  46.496  1.00  0.00     0.144 C 
HETATM   27  C20 UNL     1      44.601  15.927  47.418  1.00  0.00     0.143 C 
BRANCH  25  28
HETATM   28  C14 UNL     1      42.649  13.376  45.875  1.00  0.00     0.102 A 
HETATM   29  C15 UNL     1      42.791  13.863  44.588  1.00  0.00     0.048 A 
HETATM   30  C16 UNL     1      41.893  13.478  43.629  1.00  0.00     0.005 A 
HETATM   31  C17 UNL     1      40.875  12.619  43.966  1.00  0.00     0.017 A 
HETATM   32  C18 UNL     1      40.775  12.161  45.266  1.00  0.00     0.089 A 
HETATM   33  N5  UNL     1      41.655  12.538  46.207  1.00  0.00    -0.352 N 
ATOM     34  H5  UNL     1      41.569  12.191  47.162  1.00  0.00     0.166 HD
ENDBRANCH  25  28
ENDBRANCH   6  22
TORSDOF 6
ENDMDL
MODEL 5
REMARK VINA RESULT: -7.501695335      5.590      9.273
REMARK  6 active torsions:
REMARK  status: ('A' for Active; 'I' for Inactive)
REMARK    1  A    between atoms: C1_2  and  C2_4 
REMARK    2  A    between atoms: C2_4  and  N1_5 
REMARK    3  A    between atoms: C4_7  and  C5_8 
REMARK       I    between atoms: C5_8  and  N2_10 
REMARK    4  A    between atoms: N2_10  and  C6_12 
REMARK    5  A    between atoms: C11_17  and  N3_18 
REMARK    6  A    between atoms: N4_21  and  C14_22 
ROOT
HETATM    1  C6  UNL     1      43.082  13.622  49.561  1.00  0.00     0.061 A 
HETATM    2  C7  UNL     1      43.396  14.803  50.183  1.00  0.00     0.032 A 
HETATM    3  C8  UNL     1      43.932  15.857  49.474  1.00  0.00     0.002 A 
HETATM    4  C9  UNL     1      44.162  15.741  48.126  1.00  0.00     0.002 A 
HETATM    5  C10 UNL     1      43.853  14.564  47.489  1.00  0.00     0.031 A 
HETATM    6  C11 UNL     1      43.319  13.504  48.179  1.00  0.00     0.057 A 
ENDROOT
BRANCH   1   7
HETATM    7  N2  UNL     1      42.563  12.504  50.254  1.00  0.00    -0.320 N 
HETATM    8  C5  UNL     1      42.919  12.025  51.511  1.00  0.00     0.275 C 
HETATM    9  O3  UNL     1      43.789  12.514  52.274  1.00  0.00    -0.266 OA
ATOM     10  H2  UNL     1      41.833  11.982  49.769  1.00  0.00     0.169 HD
BRANCH   8  11
HETATM   11  C4  UNL     1      42.218  10.812  52.031  1.00  0.00     0.134 A 
HETATM   12  C3  UNL     1      42.303   9.516  51.577  1.00  0.00     0.148 A 
HETATM   13  N1  UNL     1      41.495   8.727  52.345  1.00  0.00    -0.277 N 
HETATM   14  N7  UNL     1      40.942   9.527  53.232  1.00  0.00    -0.240 N 
HETATM   15  N6  UNL     1      41.362  10.785  53.062  1.00  0.00    -0.280 N 
ATOM     16  H7  UNL     1      40.283   9.229  53.950  1.00  0.00     0.208 HD
ATOM     17  H6  UNL     1      41.079  11.588  53.623  1.00  0.00     0.189 HD
BRANCH  13  18
HETATM   18  C2  UNL     1      41.325   7.299  52.164  1.00  0.00     0.262 C 
BRANCH  18  19
HETATM   19  C1  UNL     1      42.603   6.601  52.016  1.00  0.00     0.193 C 
HETATM   20  O1  UNL     1      42.852   6.049  50.892  1.00  0.00    -0.647 OA
HETATM   21  O2  UNL     1      43.555   6.496  52.995  1.00  0.00    -0.647 OA
ENDBRANCH  18  19
ENDBRANCH  13  18
ENDBRANCH   8  11
ENDBRANCH   1   7
BRANCH   6  22
HETATM   22  N3  UNL     1      42.978  12.295  47.474  1.00  0.00    -0.376 N 
HETATM   23  C12 UNL     1      42.360  12.271  46.180  1.00  0.00     0.143 C 
HETATM   24  C13 UNL     1      43.221  11.496  45.170  1.00  0.00     0.144 C 
HETATM   25  N4  UNL     1      43.744  10.309  45.825  1.00  0.00    -0.364 N 
HETATM   26  C19 UNL     1      43.201   9.888  47.079  1.00  0.00     0.144 C 
HETATM   27  C20 UNL     1      43.272  11.020  48.098  1.00  0.00     0.143 C 
BRANCH  25  28
HETATM   28  C14 UNL     1      44.798   9.551  45.232  1.00  0.00     0.102 A 
HETATM   29  C15 UNL     1      45.660   8.866  46.068  1.00  0.00     0.048 A 
HETATM   30  C16 UNL     1      46.677   8.132  45.518  1.00  0.00     0.005 A 
HETATM   31  C17 UNL     1      46.816   8.094  44.151  1.00  0.00     0.017 A 
HETATM   32  C18 UNL     1      45.928   8.796  43.358  1.00  0.00     0.089 A 
HETATM   33  N5  UNL     1      44.932   9.515  43.897  1.00  0.00    -0.352 N 
ATOM     34  H5  UNL     1      44.284  10.028  43.299  1.00  0.00     0.166 HD
ENDBRANCH  25  28
ENDBRANCH   6  22
TORSDOF 6
ENDMDL
