MODEL 1
REMARK VINA RESULT: -8.121603512      0.000      0.000
REMARK  9 active torsions:
REMARK  status: ('A' for Active; 'I' for Inactive)
REMARK    1  A    between atoms: C2_2  and  O2_4 
REMARK    2  A    between atoms: O2_4  and  C3_5 
REMARK    3  A    between atoms: C6_8  and  O3_9 
REMARK    4  A    between atoms: O3_9  and  C7_10 
REMARK    5  A    between atoms: C7_10  and  C8_11 
REMARK    6  A    between atoms: C14_17  and  C15_18 
REMARK    7  A    between atoms: C15_18  and  O4_20 
REMARK    8  A    between atoms: C17_22  and  O5_24 
REMARK    9  A    between atoms: O5_24  and  C19_25 
ROOT
HETATM    1  C3  UNL     1      42.741  10.966  47.538  1.00  0.00     0.270 C 
HETATM    2  C4  UNL     1      42.599  12.049  48.557  1.00  0.00     0.071 C 
HETATM    3  C5  UNL     1      43.309  11.405  49.737  1.00  0.00     0.052 C 
HETATM    4  C6  UNL     1      42.513  11.481  51.016  1.00  0.00     0.138 C 
HETATM    5  C14 UNL     1      42.391  10.090  51.547  1.00  0.00     0.081 C 
HETATM    6  C17 UNL     1      42.959   9.157  50.567  1.00  0.00     0.102 C 
HETATM    7  C18 UNL     1      42.008   8.059  50.107  1.00  0.00     0.050 C 
HETATM    8  C21 UNL     1      43.301   9.975  49.351  1.00  0.00     0.166 C 
HETATM    9  O7  UNL     1      42.402   9.830  48.289  1.00  0.00    -0.352 OA
ENDROOT
BRANCH   4  10
HETATM   10  O3  UNL     1      43.196  12.304  51.914  1.00  0.00    -0.380 OA
BRANCH  10  11
HETATM   11  C7  UNL     1      44.261  12.975  51.381  1.00  0.00     0.206 C 
BRANCH  11  12
HETATM   12  C8  UNL     1      43.888  14.429  51.311  1.00  0.00    -0.035 A 
HETATM   13  C9  UNL     1      44.278  15.234  50.259  1.00  0.00     0.009 A 
HETATM   14  C10 UNL     1      43.918  16.564  50.226  1.00  0.00     0.001 A 
HETATM   15  C11 UNL     1      43.166  17.143  51.224  1.00  0.00     0.000 A 
HETATM   16  C12 UNL     1      42.777  16.340  52.274  1.00  0.00     0.001 A 
HETATM   17  C13 UNL     1      43.133  15.020  52.306  1.00  0.00     0.009 A 
ENDBRANCH  11  12
ENDBRANCH  10  11
ENDBRANCH   4  10
BRANCH   5  18
HETATM   18  C15 UNL     1      40.978   9.840  51.970  1.00  0.00     0.123 C 
HETATM   19  C16 UNL     1      40.033  10.991  51.789  1.00  0.00     0.040 C 
BRANCH  18  20
HETATM   20  O4  UNL     1      40.978   9.496  53.319  1.00  0.00    -0.395 OA
ATOM     21  H4  UNL     1      40.145   9.758  53.694  1.00  0.00     0.210 HD
ENDBRANCH  18  20
ENDBRANCH   5  18
BRANCH   6  22
HETATM   22  O5  UNL     1      44.158   8.519  50.936  1.00  0.00    -0.307 OA
BRANCH  22  23
HETATM   23  C19 UNL     1      44.294   7.373  51.657  1.00  0.00     0.255 C 
HETATM   24  C20 UNL     1      44.708   6.094  51.034  1.00  0.00     0.126 C 
HETATM   25  O6  UNL     1      44.046   7.483  52.864  1.00  0.00    -0.266 OA
ENDBRANCH  22  23
ENDBRANCH   6  22
BRANCH   1  26
HETATM   26  O2  UNL     1      42.065  11.104  46.360  1.00  0.00    -0.290 OA
BRANCH  26  27
HETATM   27  C2  UNL     1      41.927  12.290  45.695  1.00  0.00     0.257 C 
HETATM   28  C1  UNL     1      43.025  13.212  45.344  1.00  0.00     0.126 C 
HETATM   29  O1  UNL     1      40.759  12.596  45.371  1.00  0.00    -0.266 OA
ENDBRANCH  26  27
ENDBRANCH   1  26
TORSDOF 9
ENDMDL
MODEL 2
REMARK VINA RESULT: -8.085807604      0.483      1.049
REMARK  9 active torsions:
REMARK  status: ('A' for Active; 'I' for Inactive)
REMARK    1  A    between atoms: C2_2  and  O2_4 
REMARK    2  A    between atoms: O2_4  and  C3_5 
REMARK    3  A    between atoms: C6_8  and  O3_9 
REMARK    4  A    between atoms: O3_9  and  C7_10 
REMARK    5  A    between atoms: C7_10  and  C8_11 
REMARK    6  A    between atoms: C14_17  and  C15_18 
REMARK    7  A    between atoms: C15_18  and  O4_20 
REMARK    8  A    between atoms: C17_22  and  O5_24 
REMARK    9  A    between atoms: O5_24  and  C19_25 
ROOT
HETATM    1  C3  UNL     1      42.763  11.299  47.564  1.00  0.00     0.270 C 
HETATM    2  C4  UNL     1      42.653  12.305  48.663  1.00  0.00     0.071 C 
HETATM    3  C5  UNL     1      43.347  11.554  49.788  1.00  0.00     0.052 C 
HETATM    4  C6  UNL     1      42.557  11.555  51.072  1.00  0.00     0.138 C 
HETATM    5  C14 UNL     1      42.396  10.132  51.497  1.00  0.00     0.081 C 
HETATM    6  C17 UNL     1      42.936   9.260  50.447  1.00  0.00     0.102 C 
HETATM    7  C18 UNL     1      41.953   8.228  49.909  1.00  0.00     0.050 C 
HETATM    8  C21 UNL     1      43.298  10.158  49.294  1.00  0.00     0.166 C 
HETATM    9  O7  UNL     1      42.394  10.120  48.229  1.00  0.00    -0.352 OA
ENDROOT
BRANCH   4  10
HETATM   10  O3  UNL     1      43.264  12.289  52.027  1.00  0.00    -0.380 OA
BRANCH  10  11
HETATM   11  C7  UNL     1      44.313  13.012  51.533  1.00  0.00     0.206 C 
BRANCH  11  12
HETATM   12  C8  UNL     1      43.876  14.448  51.460  1.00  0.00    -0.035 A 
HETATM   13  C9  UNL     1      43.108  15.029  52.449  1.00  0.00     0.009 A 
HETATM   14  C10 UNL     1      42.723  16.349  52.350  1.00  0.00     0.001 A 
HETATM   15  C11 UNL     1      43.081  17.137  51.278  1.00  0.00     0.000 A 
HETATM   16  C12 UNL     1      43.847  16.557  50.291  1.00  0.00     0.001 A 
HETATM   17  C13 UNL     1      44.229  15.248  50.389  1.00  0.00     0.009 A 
ENDBRANCH  11  12
ENDBRANCH  10  11
ENDBRANCH   4  10
BRANCH   5  18
HETATM   18  C15 UNL     1      40.978   9.890  51.906  1.00  0.00     0.123 C 
HETATM   19  C16 UNL     1      40.052  11.063  51.762  1.00  0.00     0.040 C 
BRANCH  18  20
HETATM   20  O4  UNL     1      40.967   9.500  53.242  1.00  0.00    -0.395 OA
ATOM     21  H4  UNL     1      41.315   8.618  53.299  1.00  0.00     0.210 HD
ENDBRANCH  18  20
ENDBRANCH   5  18
BRANCH   6  22
HETATM   22  O5  UNL     1      44.117   8.563  50.761  1.00  0.00    -0.307 OA
BRANCH  22  23
HETATM   23  C19 UNL     1      44.235   7.445  51.527  1.00  0.00     0.255 C 
HETATM   24  C20 UNL     1      44.614   6.133  50.952  1.00  0.00     0.126 C 
HETATM   25  O6  UNL     1      44.003   7.609  52.730  1.00  0.00    -0.266 OA
ENDBRANCH  22  23
ENDBRANCH   6  22
BRANCH   1  26
HETATM   26  O2  UNL     1      42.088  11.545  46.403  1.00  0.00    -0.290 OA
BRANCH  26  27
HETATM   27  C2  UNL     1      42.665  12.079  45.285  1.00  0.00     0.257 C 
HETATM   28  C1  UNL     1      43.158  13.463  45.148  1.00  0.00     0.126 C 
HETATM   29  O1  UNL     1      42.770  11.304  44.309  1.00  0.00    -0.266 OA
ENDBRANCH  26  27
ENDBRANCH   1  26
TORSDOF 9
ENDMDL
MODEL 3
REMARK VINA RESULT: -7.818695381      0.908      1.346
REMARK  9 active torsions:
REMARK  status: ('A' for Active; 'I' for Inactive)
REMARK    1  A    between atoms: C2_2  and  O2_4 
REMARK    2  A    between atoms: O2_4  and  C3_5 
REMARK    3  A    between atoms: C6_8  and  O3_9 
REMARK    4  A    between atoms: O3_9  and  C7_10 
REMARK    5  A    between atoms: C7_10  and  C8_11 
REMARK    6  A    between atoms: C14_17  and  C15_18 
REMARK    7  A    between atoms: C15_18  and  O4_20 
REMARK    8  A    between atoms: C17_22  and  O5_24 
REMARK    9  A    between atoms: O5_24  and  C19_25 
ROOT
HETATM    1  C3  UNL     1      42.468  10.441  47.123  1.00  0.00     0.270 C 
HETATM    2  C4  UNL     1      42.442  11.637  48.018  1.00  0.00     0.071 C 
HETATM    3  C5  UNL     1      43.213  11.098  49.212  1.00  0.00     0.052 C 
HETATM    4  C6  UNL     1      42.518  11.353  50.526  1.00  0.00     0.138 C 
HETATM    5  C14 UNL     1      42.384  10.037  51.221  1.00  0.00     0.081 C 
HETATM    6  C17 UNL     1      42.843   8.975  50.318  1.00  0.00     0.102 C 
HETATM    7  C18 UNL     1      41.819   7.878  50.054  1.00  0.00     0.050 C 
HETATM    8  C21 UNL     1      43.123   9.635  48.994  1.00  0.00     0.166 C 
HETATM    9  O7  UNL     1      42.143   9.414  48.022  1.00  0.00    -0.352 OA
ENDROOT
BRANCH   4  10
HETATM   10  O3  UNL     1      43.296  12.240  51.274  1.00  0.00    -0.380 OA
BRANCH  10  11
HETATM   11  C7  UNL     1      44.455  12.638  50.667  1.00  0.00     0.206 C 
BRANCH  11  12
HETATM   12  C8  UNL     1      44.336  14.110  50.393  1.00  0.00    -0.035 A 
HETATM   13  C9  UNL     1      44.155  15.031  51.406  1.00  0.00     0.009 A 
HETATM   14  C10 UNL     1      44.050  16.375  51.119  1.00  0.00     0.001 A 
HETATM   15  C11 UNL     1      44.119  16.855  49.830  1.00  0.00     0.000 A 
HETATM   16  C12 UNL     1      44.299  15.937  48.819  1.00  0.00     0.001 A 
HETATM   17  C13 UNL     1      44.403  14.603  49.103  1.00  0.00     0.009 A 
ENDBRANCH  11  12
ENDBRANCH  10  11
ENDBRANCH   4  10
BRANCH   5  18
HETATM   18  C15 UNL     1      40.998   9.901  51.767  1.00  0.00     0.123 C 
HETATM   19  C16 UNL     1      40.136  11.126  51.664  1.00  0.00     0.040 C 
BRANCH  18  20
HETATM   20  O4  UNL     1      41.089   9.555  53.113  1.00  0.00    -0.395 OA
ATOM     21  H4  UNL     1      40.402  10.010  53.585  1.00  0.00     0.210 HD
ENDBRANCH  18  20
ENDBRANCH   5  18
BRANCH   6  22
HETATM   22  O5  UNL     1      44.040   8.329  50.673  1.00  0.00    -0.307 OA
BRANCH  22  23
HETATM   23  C19 UNL     1      44.194   7.303  51.554  1.00  0.00     0.255 C 
HETATM   24  C20 UNL     1      44.549   5.934  51.114  1.00  0.00     0.126 C 
HETATM   25  O6  UNL     1      44.014   7.602  52.740  1.00  0.00    -0.266 OA
ENDBRANCH  22  23
ENDBRANCH   6  22
BRANCH   1  26
HETATM   26  O2  UNL     1      41.711  10.477  45.987  1.00  0.00    -0.290 OA
BRANCH  26  27
HETATM   27  C2  UNL     1      41.594  11.578  45.184  1.00  0.00     0.257 C 
HETATM   28  C1  UNL     1      40.376  12.392  45.012  1.00  0.00     0.126 C 
HETATM   29  O1  UNL     1      42.625  11.898  44.552  1.00  0.00    -0.266 OA
ENDBRANCH  26  27
ENDBRANCH   1  26
TORSDOF 9
ENDMDL
MODEL 4
REMARK VINA RESULT: -7.472000291      1.196      1.559
REMARK  9 active torsions:
REMARK  status: ('A' for Active; 'I' for Inactive)
REMARK    1  A    between atoms: C2_2  and  O2_4 
REMARK    2  A    between atoms: O2_4  and  C3_5 
REMARK    3  A    between atoms: C6_8  and  O3_9 
REMARK    4  A    between atoms: O3_9  and  C7_10 
REMARK    5  A    between atoms: C7_10  and  C8_11 
REMARK    6  A    between atoms: C14_17  and  C15_18 
REMARK    7  A    between atoms: C15_18  and  O4_20 
REMARK    8  A    between atoms: C17_22  and  O5_24 
REMARK    9  A    between atoms: O5_24  and  C19_25 
ROOT
HETATM    1  C3  UNL     1      42.927  10.112  47.525  1.00  0.00     0.270 C 
HETATM    2  C4  UNL     1      42.859  11.332  48.385  1.00  0.00     0.071 C 
HETATM    3  C5  UNL     1      43.484  10.796  49.663  1.00  0.00     0.052 C 
HETATM    4  C6  UNL     1      42.671  11.113  50.894  1.00  0.00     0.138 C 
HETATM    5  C14 UNL     1      42.414   9.822  51.601  1.00  0.00     0.081 C 
HETATM    6  C17 UNL     1      42.919   8.720  50.774  1.00  0.00     0.102 C 
HETATM    7  C18 UNL     1      41.884   7.654  50.432  1.00  0.00     0.050 C 
HETATM    8  C21 UNL     1      43.358   9.332  49.471  1.00  0.00     0.166 C 
HETATM    9  O7  UNL     1      42.473   9.122  48.409  1.00  0.00    -0.352 OA
ENDROOT
BRANCH   4  10
HETATM   10  O3  UNL     1      43.404  11.989  51.696  1.00  0.00    -0.380 OA
BRANCH  10  11
HETATM   11  C7  UNL     1      44.348  12.721  51.031  1.00  0.00     0.206 C 
BRANCH  11  12
HETATM   12  C8  UNL     1      43.929  14.163  51.098  1.00  0.00    -0.035 A 
HETATM   13  C9  UNL     1      44.223  15.057  50.088  1.00  0.00     0.009 A 
HETATM   14  C10 UNL     1      43.823  16.373  50.181  1.00  0.00     0.001 A 
HETATM   15  C11 UNL     1      43.125  16.849  51.269  1.00  0.00     0.000 A 
HETATM   16  C12 UNL     1      42.832  15.957  52.277  1.00  0.00     0.001 A 
HETATM   17  C13 UNL     1      43.228  14.652  52.184  1.00  0.00     0.009 A 
ENDBRANCH  11  12
ENDBRANCH  10  11
ENDBRANCH   4  10
BRANCH   5  18
HETATM   18  C15 UNL     1      40.977   9.752  52.006  1.00  0.00     0.123 C 
HETATM   19  C16 UNL     1      40.161  10.979  51.719  1.00  0.00     0.040 C 
BRANCH  18  20
HETATM   20  O4  UNL     1      40.917   9.513  53.376  1.00  0.00    -0.395 OA
ATOM     21  H4  UNL     1      41.073  10.333  53.830  1.00  0.00     0.210 HD
ENDBRANCH  18  20
ENDBRANCH   5  18
BRANCH   6  22
HETATM   22  O5  UNL     1      44.048   8.038  51.263  1.00  0.00    -0.307 OA
BRANCH  22  23
HETATM   23  C19 UNL     1      44.125   6.731  51.636  1.00  0.00     0.255 C 
HETATM   24  C20 UNL     1      44.734   5.699  50.766  1.00  0.00     0.126 C 
HETATM   25  O6  UNL     1      43.649   6.476  52.749  1.00  0.00    -0.266 OA
ENDBRANCH  22  23
ENDBRANCH   6  22
BRANCH   1  26
HETATM   26  O2  UNL     1      42.291  10.146  46.317  1.00  0.00    -0.290 OA
BRANCH  26  27
HETATM   27  C2  UNL     1      41.779   9.043  45.694  1.00  0.00     0.257 C 
HETATM   28  C1  UNL     1      40.350   8.683  45.618  1.00  0.00     0.126 C 
HETATM   29  O1  UNL     1      42.618   8.291  45.151  1.00  0.00    -0.266 OA
ENDBRANCH  26  27
ENDBRANCH   1  26
TORSDOF 9
ENDMDL
MODEL 5
REMARK VINA RESULT: -7.403513702      2.249      3.512
REMARK  9 active torsions:
REMARK  status: ('A' for Active; 'I' for Inactive)
REMARK    1  A    between atoms: C2_2  and  O2_4 
REMARK    2  A    between atoms: O2_4  and  C3_5 
REMARK    3  A    between atoms: C6_8  and  O3_9 
REMARK    4  A    between atoms: O3_9  and  C7_10 
REMARK    5  A    between atoms: C7_10  and  C8_11 
REMARK    6  A    between atoms: C14_17  and  C15_18 
REMARK    7  A    between atoms: C15_18  and  O4_20 
REMARK    8  A    between atoms: C17_22  and  O5_24 
REMARK    9  A    between atoms: O5_24  and  C19_25 
ROOT
HETATM    1  C3  UNL     1      41.613   7.680  48.198  1.00  0.00     0.270 C 
HETATM    2  C4  UNL     1      41.939   9.125  48.393  1.00  0.00     0.071 C 
HETATM    3  C5  UNL     1      43.004   9.018  49.473  1.00  0.00     0.052 C 
HETATM    4  C6  UNL     1      42.764   9.954  50.631  1.00  0.00     0.138 C 
HETATM    5  C14 UNL     1      42.766   9.130  51.878  1.00  0.00     0.081 C 
HETATM    6  C17 UNL     1      42.857   7.712  51.507  1.00  0.00     0.102 C 
HETATM    7  C18 UNL     1      41.734   6.838  52.053  1.00  0.00     0.050 C 
HETATM    8  C21 UNL     1      42.759   7.658  50.006  1.00  0.00     0.166 C 
HETATM    9  O7  UNL     1      41.516   7.235  49.526  1.00  0.00    -0.352 OA
ENDROOT
BRANCH   4  10
HETATM   10  O3  UNL     1      43.788  10.903  50.654  1.00  0.00    -0.380 OA
BRANCH  10  11
HETATM   11  C7  UNL     1      43.391  12.167  50.990  1.00  0.00     0.206 C 
BRANCH  11  12
HETATM   12  C8  UNL     1      43.544  13.027  49.767  1.00  0.00    -0.035 A 
HETATM   13  C9  UNL     1      43.083  12.626  48.529  1.00  0.00     0.009 A 
HETATM   14  C10 UNL     1      43.240  13.439  47.427  1.00  0.00     0.001 A 
HETATM   15  C11 UNL     1      43.855  14.669  47.509  1.00  0.00     0.000 A 
HETATM   16  C12 UNL     1      44.315  15.069  48.744  1.00  0.00     0.001 A 
HETATM   17  C13 UNL     1      44.159  14.263  49.837  1.00  0.00     0.009 A 
ENDBRANCH  11  12
ENDBRANCH  10  11
ENDBRANCH   4  10
BRANCH   5  18
HETATM   18  C15 UNL     1      41.609   9.525  52.739  1.00  0.00     0.123 C 
HETATM   19  C16 UNL     1      40.507  10.270  52.044  1.00  0.00     0.040 C 
BRANCH  18  20
HETATM   20  O4  UNL     1      42.084  10.330  53.770  1.00  0.00    -0.395 OA
ATOM     21  H4  UNL     1      42.698  10.955  53.403  1.00  0.00     0.210 HD
ENDBRANCH  18  20
ENDBRANCH   5  18
BRANCH   6  22
HETATM   22  O5  UNL     1      44.062   7.060  51.826  1.00  0.00    -0.307 OA
BRANCH  22  23
HETATM   23  C19 UNL     1      44.410   5.779  51.528  1.00  0.00     0.255 C 
HETATM   24  C20 UNL     1      45.121   5.426  50.278  1.00  0.00     0.126 C 
HETATM   25  O6  UNL     1      44.087   4.940  52.377  1.00  0.00    -0.266 OA
ENDBRANCH  22  23
ENDBRANCH   6  22
BRANCH   1  26
HETATM   26  O2  UNL     1      40.549   7.367  47.403  1.00  0.00    -0.290 OA
BRANCH  26  27
HETATM   27  C2  UNL     1      40.067   6.099  47.238  1.00  0.00     0.257 C 
HETATM   28  C1  UNL     1      40.743   5.009  46.509  1.00  0.00     0.126 C 
HETATM   29  O1  UNL     1      38.953   5.871  47.761  1.00  0.00    -0.266 OA
ENDBRANCH  26  27
ENDBRANCH   1  26
TORSDOF 9
ENDMDL
