MODEL 1
REMARK VINA RESULT: -8.522034278      0.000      0.000
REMARK  6 active torsions:
REMARK  status: ('A' for Active; 'I' for Inactive)
REMARK    1  A    between atoms: S1_2  and  C2_3 
REMARK    2  A    between atoms: C7_8  and  C8_9 
REMARK       I    between atoms: C8_9  and  N1_11 
REMARK    3  A    between atoms: N1_11  and  C9_13 
REMARK    4  A    between atoms: C9_13  and  C11_16 
REMARK       I    between atoms: C11_16  and  N3_18 
REMARK    5  A    between atoms: N3_18  and  N4_20 
REMARK    6  A    between atoms: C12_22  and  C13_23 
ROOT
HETATM    1  C9  UNL     1      42.303   9.632  50.684  1.00  0.00     0.286 C 
HETATM    2  C10 UNL     1      42.234   8.977  52.001  1.00  0.00     0.094 C 
HETATM    3  N2  UNL     1      42.182   8.433  53.045  1.00  0.00    -0.195 NA
ENDROOT
BRANCH   1   4
HETATM    4  N1  UNL     1      43.400   8.980  49.941  1.00  0.00    -0.332 N 
HETATM    5  C8  UNL     1      43.247   8.781  48.570  1.00  0.00     0.254 C 
HETATM    6  O1  UNL     1      42.174   9.194  48.013  1.00  0.00    -0.268 OA
ATOM      7  H1  UNL     1      44.249   8.683  50.420  1.00  0.00     0.164 HD
BRANCH   5   8
HETATM    8  C7  UNL     1      44.208   8.138  47.669  1.00  0.00     0.048 A 
HETATM    9  C2  UNL     1      44.392   6.801  47.566  1.00  0.00     0.015 A 
HETATM   10  C3  UNL     1      45.367   6.217  46.754  1.00  0.00     0.019 A 
HETATM   11  C4  UNL     1      46.181   7.043  46.020  1.00  0.00     0.001 A 
HETATM   12  C5  UNL     1      46.038   8.417  46.084  1.00  0.00     0.001 A 
HETATM   13  C6  UNL     1      45.060   8.956  46.900  1.00  0.00     0.018 A 
BRANCH   9  14
HETATM   14  S1  UNL     1      43.297   5.675  48.432  1.00  0.00    -0.133 SA
HETATM   15  C1  UNL     1      43.930   5.353  50.124  1.00  0.00     0.095 C 
ENDBRANCH   9  14
ENDBRANCH   5   8
ENDBRANCH   1   4
BRANCH   1  16
HETATM   16  C11 UNL     1      42.580  11.069  50.840  1.00  0.00     0.273 C 
HETATM   17  O2  UNL     1      43.137  11.484  51.884  1.00  0.00    -0.268 OA
HETATM   18  N3  UNL     1      42.232  11.984  49.842  1.00  0.00    -0.268 N 
ATOM     19  H3  UNL     1      41.777  11.663  48.987  1.00  0.00     0.190 HD
BRANCH  18  20
HETATM   20  N4  UNL     1      42.516  13.364  50.026  1.00  0.00    -0.308 N 
HETATM   21  C12 UNL     1      43.494  13.872  49.300  1.00  0.00     0.118 C 
ATOM     22  H4  UNL     1      41.989  13.935  50.687  1.00  0.00     0.186 HD
BRANCH  21  23
HETATM   23  C13 UNL     1      43.889  15.248  49.372  1.00  0.00    -0.017 A 
HETATM   24  C14 UNL     1      44.296  15.904  48.222  1.00  0.00     0.016 A 
HETATM   25  C15 UNL     1      44.671  17.226  48.191  1.00  0.00     0.040 A 
HETATM   26  C16 UNL     1      44.638  17.946  49.375  1.00  0.00     0.105 A 
HETATM   27  C17 UNL     1      44.243  17.339  50.529  1.00  0.00     0.105 A 
HETATM   28  O4  UNL     1      44.952  19.266  49.643  1.00  0.00    -0.323 OA
HETATM   29  C18 UNL     1      43.864  15.987  50.546  1.00  0.00     0.052 A 
HETATM   30  O3  UNL     1      44.304  18.279  51.536  1.00  0.00    -0.323 OA
HETATM   31  C19 UNL     1      44.780  19.484  51.007  1.00  0.00     0.352 A 
ENDBRANCH  21  23
ENDBRANCH  18  20
ENDBRANCH   1  16
TORSDOF 6
ENDMDL
MODEL 2
REMARK VINA RESULT: -8.479729964      1.638      2.502
REMARK  6 active torsions:
REMARK  status: ('A' for Active; 'I' for Inactive)
REMARK    1  A    between atoms: S1_2  and  C2_3 
REMARK    2  A    between atoms: C7_8  and  C8_9 
REMARK       I    between atoms: C8_9  and  N1_11 
REMARK    3  A    between atoms: N1_11  and  C9_13 
REMARK    4  A    between atoms: C9_13  and  C11_16 
REMARK       I    between atoms: C11_16  and  N3_18 
REMARK    5  A    between atoms: N3_18  and  N4_20 
REMARK    6  A    between atoms: C12_22  and  C13_23 
ROOT
HETATM    1  C9  UNL     1      41.982   9.801  51.921  1.00  0.00     0.286 C 
HETATM    2  C10 UNL     1      42.103   9.734  53.387  1.00  0.00     0.094 C 
HETATM    3  N2  UNL     1      42.206   9.658  54.558  1.00  0.00    -0.195 NA
ENDROOT
BRANCH   1   4
HETATM    4  N1  UNL     1      43.079   8.985  51.364  1.00  0.00    -0.332 N 
HETATM    5  C8  UNL     1      42.780   7.714  50.876  1.00  0.00     0.254 C 
HETATM    6  O1  UNL     1      41.564   7.323  50.910  1.00  0.00    -0.268 OA
ATOM      7  H1  UNL     1      44.033   9.343  51.338  1.00  0.00     0.164 HD
BRANCH   5   8
HETATM    8  C7  UNL     1      43.728   6.752  50.308  1.00  0.00     0.048 A 
HETATM    9  C2  UNL     1      43.969   6.596  48.984  1.00  0.00     0.015 A 
HETATM   10  C3  UNL     1      44.821   5.621  48.465  1.00  0.00     0.019 A 
HETATM   11  C4  UNL     1      45.451   4.774  49.343  1.00  0.00     0.001 A 
HETATM   12  C5  UNL     1      45.246   4.887  50.705  1.00  0.00     0.001 A 
HETATM   13  C6  UNL     1      44.393   5.868  51.181  1.00  0.00     0.018 A 
BRANCH   9  14
HETATM   14  S1  UNL     1      43.243   7.733  47.802  1.00  0.00    -0.133 SA
HETATM   15  C1  UNL     1      44.136   9.336  47.835  1.00  0.00     0.095 C 
ENDBRANCH   9  14
ENDBRANCH   5   8
ENDBRANCH   1   4
BRANCH   1  16
HETATM   16  C11 UNL     1      42.101  11.194  51.460  1.00  0.00     0.273 C 
HETATM   17  O2  UNL     1      41.690  11.507  50.318  1.00  0.00    -0.268 OA
HETATM   18  N3  UNL     1      42.665  12.178  52.277  1.00  0.00    -0.268 N 
ATOM     19  H3  UNL     1      43.005  11.940  53.208  1.00  0.00     0.190 HD
BRANCH  18  20
HETATM   20  N4  UNL     1      42.762  13.514  51.801  1.00  0.00    -0.308 N 
HETATM   21  C12 UNL     1      43.927  13.886  51.306  1.00  0.00     0.118 C 
ATOM     22  H4  UNL     1      41.969  14.154  51.840  1.00  0.00     0.186 HD
BRANCH  21  23
HETATM   23  C13 UNL     1      44.173  15.198  50.784  1.00  0.00    -0.017 A 
HETATM   24  C14 UNL     1      44.298  15.377  49.415  1.00  0.00     0.016 A 
HETATM   25  C15 UNL     1      44.511  16.599  48.824  1.00  0.00     0.040 A 
HETATM   26  C16 UNL     1      44.604  17.717  49.638  1.00  0.00     0.105 A 
HETATM   27  C17 UNL     1      44.485  17.584  50.990  1.00  0.00     0.105 A 
HETATM   28  O4  UNL     1      44.810  19.049  49.331  1.00  0.00    -0.323 OA
HETATM   29  C18 UNL     1      44.269  16.330  51.581  1.00  0.00     0.052 A 
HETATM   30  O3  UNL     1      44.615  18.841  51.544  1.00  0.00    -0.323 OA
HETATM   31  C19 UNL     1      44.854  19.767  50.523  1.00  0.00     0.352 A 
ENDBRANCH  21  23
ENDBRANCH  18  20
ENDBRANCH   1  16
TORSDOF 6
ENDMDL
MODEL 3
REMARK VINA RESULT: -8.441173045      1.179      2.187
REMARK  6 active torsions:
REMARK  status: ('A' for Active; 'I' for Inactive)
REMARK    1  A    between atoms: S1_2  and  C2_3 
REMARK    2  A    between atoms: C7_8  and  C8_9 
REMARK       I    between atoms: C8_9  and  N1_11 
REMARK    3  A    between atoms: N1_11  and  C9_13 
REMARK    4  A    between atoms: C9_13  and  C11_16 
REMARK       I    between atoms: C11_16  and  N3_18 
REMARK    5  A    between atoms: N3_18  and  N4_20 
REMARK    6  A    between atoms: C12_22  and  C13_23 
ROOT
HETATM    1  C9  UNL     1      42.008   9.734  51.656  1.00  0.00     0.286 C 
HETATM    2  C10 UNL     1      41.639   9.238  52.992  1.00  0.00     0.094 C 
HETATM    3  N2  UNL     1      41.346   8.819  54.054  1.00  0.00    -0.195 NA
ENDROOT
BRANCH   1   4
HETATM    4  N1  UNL     1      43.110   8.878  51.173  1.00  0.00    -0.332 N 
HETATM    5  C8  UNL     1      42.797   7.782  50.371  1.00  0.00     0.254 C 
HETATM    6  O1  UNL     1      41.572   7.581  50.070  1.00  0.00    -0.268 OA
ATOM      7  H1  UNL     1      44.077   9.085  51.420  1.00  0.00     0.164 HD
BRANCH   5   8
HETATM    8  C7  UNL     1      43.742   6.810  49.815  1.00  0.00     0.048 A 
HETATM    9  C2  UNL     1      44.209   6.829  48.544  1.00  0.00     0.015 A 
HETATM   10  C3  UNL     1      45.050   5.847  48.017  1.00  0.00     0.019 A 
HETATM   11  C4  UNL     1      45.426   4.808  48.831  1.00  0.00     0.001 A 
HETATM   12  C5  UNL     1      44.983   4.736  50.138  1.00  0.00     0.001 A 
HETATM   13  C6  UNL     1      44.150   5.730  50.623  1.00  0.00     0.018 A 
BRANCH   9  14
HETATM   14  S1  UNL     1      43.824   8.211  47.468  1.00  0.00    -0.133 SA
HETATM   15  C1  UNL     1      45.296   8.668  46.473  1.00  0.00     0.095 C 
ENDBRANCH   9  14
ENDBRANCH   5   8
ENDBRANCH   1   4
BRANCH   1  16
HETATM   16  C11 UNL     1      42.450  11.136  51.734  1.00  0.00     0.273 C 
HETATM   17  O2  UNL     1      42.828  11.607  52.832  1.00  0.00    -0.268 OA
HETATM   18  N3  UNL     1      42.458  11.954  50.601  1.00  0.00    -0.268 N 
ATOM     19  H3  UNL     1      42.153  11.586  49.700  1.00  0.00     0.190 HD
BRANCH  18  20
HETATM   20  N4  UNL     1      42.894  13.303  50.712  1.00  0.00    -0.308 N 
HETATM   21  C12 UNL     1      43.345  13.875  49.612  1.00  0.00     0.118 C 
ATOM     22  H4  UNL     1      42.859  13.804  51.600  1.00  0.00     0.186 HD
BRANCH  21  23
HETATM   23  C13 UNL     1      43.813  15.229  49.569  1.00  0.00    -0.017 A 
HETATM   24  C14 UNL     1      44.225  15.772  48.363  1.00  0.00     0.016 A 
HETATM   25  C15 UNL     1      44.666  17.066  48.222  1.00  0.00     0.040 A 
HETATM   26  C16 UNL     1      44.699  17.876  49.346  1.00  0.00     0.105 A 
HETATM   27  C17 UNL     1      44.301  17.381  50.552  1.00  0.00     0.105 A 
HETATM   28  O4  UNL     1      45.086  19.194  49.504  1.00  0.00    -0.323 OA
HETATM   29  C18 UNL     1      43.853  16.057  50.683  1.00  0.00     0.052 A 
HETATM   30  O3  UNL     1      44.435  18.391  51.482  1.00  0.00    -0.323 OA
HETATM   31  C19 UNL     1      44.959  19.525  50.850  1.00  0.00     0.352 A 
ENDBRANCH  21  23
ENDBRANCH  18  20
ENDBRANCH   1  16
TORSDOF 6
ENDMDL
MODEL 4
REMARK VINA RESULT: -8.433700340      1.150      1.618
REMARK  6 active torsions:
REMARK  status: ('A' for Active; 'I' for Inactive)
REMARK    1  A    between atoms: S1_2  and  C2_3 
REMARK    2  A    between atoms: C7_8  and  C8_9 
REMARK       I    between atoms: C8_9  and  N1_11 
REMARK    3  A    between atoms: N1_11  and  C9_13 
REMARK    4  A    between atoms: C9_13  and  C11_16 
REMARK       I    between atoms: C11_16  and  N3_18 
REMARK    5  A    between atoms: N3_18  and  N4_20 
REMARK    6  A    between atoms: C12_22  and  C13_23 
ROOT
HETATM    1  C9  UNL     1      42.248  10.079  51.241  1.00  0.00     0.286 C 
HETATM    2  C10 UNL     1      41.962   9.400  52.516  1.00  0.00     0.094 C 
HETATM    3  N2  UNL     1      41.734   8.836  53.525  1.00  0.00    -0.195 NA
ENDROOT
BRANCH   1   4
HETATM    4  N1  UNL     1      43.256   9.261  50.539  1.00  0.00    -0.332 N 
HETATM    5  C8  UNL     1      42.900   8.657  49.334  1.00  0.00     0.254 C 
HETATM    6  O1  UNL     1      41.723   8.860  48.879  1.00  0.00    -0.268 OA
ATOM      7  H1  UNL     1      44.191   9.141  50.926  1.00  0.00     0.164 HD
BRANCH   5   8
HETATM    8  C7  UNL     1      43.749   7.798  48.505  1.00  0.00     0.048 A 
HETATM    9  C2  UNL     1      43.939   6.473  48.710  1.00  0.00     0.015 A 
HETATM   10  C3  UNL     1      44.812   5.692  47.950  1.00  0.00     0.019 A 
HETATM   11  C4  UNL     1      45.514   6.300  46.939  1.00  0.00     0.001 A 
HETATM   12  C5  UNL     1      45.359   7.648  46.680  1.00  0.00     0.001 A 
HETATM   13  C6  UNL     1      44.484   8.388  47.457  1.00  0.00     0.018 A 
BRANCH   9  14
HETATM   14  S1  UNL     1      42.980   5.612  49.958  1.00  0.00    -0.133 SA
HETATM   15  C1  UNL     1      43.755   5.822  51.608  1.00  0.00     0.095 C 
ENDBRANCH   9  14
ENDBRANCH   5   8
ENDBRANCH   1   4
BRANCH   1  16
HETATM   16  C11 UNL     1      42.773  11.432  51.488  1.00  0.00     0.273 C 
HETATM   17  O2  UNL     1      42.899  11.843  52.666  1.00  0.00    -0.268 OA
HETATM   18  N3  UNL     1      43.137  12.269  50.429  1.00  0.00    -0.268 N 
ATOM     19  H3  UNL     1      43.040  11.950  49.466  1.00  0.00     0.190 HD
BRANCH  18  20
HETATM   20  N4  UNL     1      43.644  13.568  50.705  1.00  0.00    -0.308 N 
HETATM   21  C12 UNL     1      42.868  14.588  50.389  1.00  0.00     0.118 C 
ATOM     22  H4  UNL     1      44.563  13.706  51.126  1.00  0.00     0.186 HD
BRANCH  21  23
HETATM   23  C13 UNL     1      43.241  15.953  50.613  1.00  0.00    -0.017 A 
HETATM   24  C14 UNL     1      42.511  16.725  51.504  1.00  0.00     0.016 A 
HETATM   25  C15 UNL     1      42.808  18.034  51.798  1.00  0.00     0.040 A 
HETATM   26  C16 UNL     1      43.898  18.618  51.173  1.00  0.00     0.105 A 
HETATM   27  C17 UNL     1      44.643  17.894  50.291  1.00  0.00     0.105 A 
HETATM   28  O4  UNL     1      44.426  19.892  51.272  1.00  0.00    -0.323 OA
HETATM   29  C18 UNL     1      44.329  16.557  49.998  1.00  0.00     0.052 A 
HETATM   30  O3  UNL     1      45.652  18.713  49.827  1.00  0.00    -0.323 OA
HETATM   31  C19 UNL     1      45.511  19.979  50.405  1.00  0.00     0.352 A 
ENDBRANCH  21  23
ENDBRANCH  18  20
ENDBRANCH   1  16
TORSDOF 6
ENDMDL
MODEL 5
REMARK VINA RESULT: -8.383080393      1.990      2.314
REMARK  6 active torsions:
REMARK  status: ('A' for Active; 'I' for Inactive)
REMARK    1  A    between atoms: S1_2  and  C2_3 
REMARK    2  A    between atoms: C7_8  and  C8_9 
REMARK       I    between atoms: C8_9  and  N1_11 
REMARK    3  A    between atoms: N1_11  and  C9_13 
REMARK    4  A    between atoms: C9_13  and  C11_16 
REMARK       I    between atoms: C11_16  and  N3_18 
REMARK    5  A    between atoms: N3_18  and  N4_20 
REMARK    6  A    between atoms: C12_22  and  C13_23 
ROOT
HETATM    1  C9  UNL     1      42.108   9.041  51.256  1.00  0.00     0.286 C 
HETATM    2  C10 UNL     1      43.064   8.280  52.078  1.00  0.00     0.094 C 
HETATM    3  N2  UNL     1      43.822   7.652  52.725  1.00  0.00    -0.195 NA
ENDROOT
BRANCH   1   4
HETATM    4  N1  UNL     1      42.216   8.515  49.881  1.00  0.00    -0.332 N 
HETATM    5  C8  UNL     1      41.337   7.510  49.482  1.00  0.00     0.254 C 
HETATM    6  O1  UNL     1      40.459   7.107  50.318  1.00  0.00    -0.268 OA
ATOM      7  H1  UNL     1      42.918   8.880  49.237  1.00  0.00     0.164 HD
BRANCH   5   8
HETATM    8  C7  UNL     1      41.300   6.851  48.174  1.00  0.00     0.048 A 
HETATM    9  C2  UNL     1      42.013   5.747  47.846  1.00  0.00     0.015 A 
HETATM   10  C3  UNL     1      42.018   5.183  46.570  1.00  0.00     0.019 A 
HETATM   11  C4  UNL     1      41.256   5.777  45.594  1.00  0.00     0.001 A 
HETATM   12  C5  UNL     1      40.506   6.904  45.870  1.00  0.00     0.001 A 
HETATM   13  C6  UNL     1      40.528   7.433  47.149  1.00  0.00     0.018 A 
BRANCH   9  14
HETATM   14  S1  UNL     1      42.952   4.880  49.105  1.00  0.00    -0.133 SA
HETATM   15  C1  UNL     1      44.564   5.713  49.379  1.00  0.00     0.095 C 
ENDBRANCH   9  14
ENDBRANCH   5   8
ENDBRANCH   1   4
BRANCH   1  16
HETATM   16  C11 UNL     1      42.441  10.474  51.279  1.00  0.00     0.273 C 
HETATM   17  O2  UNL     1      42.792  11.012  52.356  1.00  0.00    -0.268 OA
HETATM   18  N3  UNL     1      42.373  11.250  50.118  1.00  0.00    -0.268 N 
ATOM     19  H3  UNL     1      42.089  10.828  49.235  1.00  0.00     0.190 HD
BRANCH  18  20
HETATM   20  N4  UNL     1      42.704  12.632  50.177  1.00  0.00    -0.308 N 
HETATM   21  C12 UNL     1      43.402  13.119  49.170  1.00  0.00     0.118 C 
ATOM     22  H4  UNL     1      42.414  13.217  50.961  1.00  0.00     0.186 HD
BRANCH  21  23
HETATM   23  C13 UNL     1      43.803  14.493  49.088  1.00  0.00    -0.017 A 
HETATM   24  C14 UNL     1      44.076  15.053  47.850  1.00  0.00     0.016 A 
HETATM   25  C15 UNL     1      44.444  16.366  47.674  1.00  0.00     0.040 A 
HETATM   26  C16 UNL     1      44.548  17.177  48.792  1.00  0.00     0.105 A 
HETATM   27  C17 UNL     1      44.287  16.665  50.029  1.00  0.00     0.105 A 
HETATM   28  O4  UNL     1      44.889  18.511  48.918  1.00  0.00    -0.323 OA
HETATM   29  C18 UNL     1      43.912  15.322  50.196  1.00  0.00     0.052 A 
HETATM   30  O3  UNL     1      44.463  17.680  50.945  1.00  0.00    -0.323 OA
HETATM   31  C19 UNL     1      44.875  18.836  50.271  1.00  0.00     0.352 A 
ENDBRANCH  21  23
ENDBRANCH  18  20
ENDBRANCH   1  16
TORSDOF 6
ENDMDL
