MODEL 1
REMARK VINA RESULT: -9.105172193      0.000      0.000
REMARK  12 active torsions:
REMARK  status: ('A' for Active; 'I' for Inactive)
REMARK       I    between atoms: N1_2  and  C2_4 
REMARK    1  A    between atoms: C2_4  and  C3_6 
REMARK    2  A    between atoms: C3_6  and  C4_7 
REMARK    3  A    between atoms: C3_6  and  C9_14 
REMARK    4  A    between atoms: C4_7  and  C5_8 
REMARK       I    between atoms: C5_8  and  N2_10 
REMARK    5  A    between atoms: N2_10  and  C6_11 
REMARK    6  A    between atoms: C9_14  and  C10_15 
REMARK    7  A    between atoms: C14_19  and  C15_20 
REMARK    8  A    between atoms: C15_20  and  C16_21 
REMARK    9  A    between atoms: C16_21  and  N3_22 
REMARK   10  A    between atoms: N3_22  and  C17_25 
REMARK   11  A    between atoms: C17_25  and  C18_26 
REMARK   12  A    between atoms: C23_34  and  N5_35 
ROOT
HETATM    1  C10 UNL     1      43.769  51.853  38.182  1.00  0.00    -0.013 C 
HETATM    2  C11 UNL     1      44.564  50.617  37.812  1.00  0.00     0.009 C 
HETATM    3  C12 UNL     1      44.007  49.831  36.669  1.00  0.00    -0.012 C 
HETATM    4  C13 UNL     1      43.431  48.485  36.977  1.00  0.00     0.018 C 
HETATM    5  C14 UNL     1      41.965  48.343  36.953  1.00  0.00    -0.018 C 
HETATM    6  C22 UNL     1      41.176  48.663  35.783  1.00  0.00     0.007 C 
HETATM    7  C23 UNL     1      40.530  49.794  35.502  1.00  0.00     0.002 C 
HETATM    8  C25 UNL     1      40.598  51.015  36.439  1.00  0.00     0.066 C 
HETATM    9  C26 UNL     1      41.858  50.717  37.185  1.00  0.00    -0.034 C 
HETATM   10  C27 UNL     1      42.315  51.715  38.201  1.00  0.00     0.014 C 
HETATM   11  C28 UNL     1      42.910  50.674  36.129  1.00  0.00     0.014 C 
HETATM   12  C29 UNL     1      41.539  49.484  37.942  1.00  0.00     0.023 C 
ENDROOT
BRANCH   1  13
HETATM   13  C9  UNL     1      44.433  52.420  39.409  1.00  0.00     0.019 C 
BRANCH  13  14
HETATM   14  C3  UNL     1      45.641  53.250  39.208  1.00  0.00     0.088 C 
BRANCH  14  15
HETATM   15  C2  UNL     1      46.891  52.810  39.817  1.00  0.00     0.222 C 
HETATM   16  N1  UNL     1      47.056  52.404  41.159  1.00  0.00    -0.365 N 
HETATM   17  C1  UNL     1      48.328  51.954  41.752  1.00  0.00     0.149 C 
ATOM     18  H1  UNL     1      46.234  52.423  41.763  1.00  0.00     0.161 HD
HETATM   19  O1  UNL     1      47.963  52.756  39.133  1.00  0.00    -0.273 OA
ENDBRANCH  14  15
BRANCH  14  20
HETATM   20  C4  UNL     1      45.423  54.630  39.740  1.00  0.00     0.133 C 
BRANCH  20  21
HETATM   21  C5  UNL     1      44.418  54.779  40.879  1.00  0.00     0.287 C 
HETATM   22  O2  UNL     1      43.329  55.313  40.415  1.00  0.00    -0.258 OA
HETATM   23  N2  UNL     1      44.613  54.434  42.125  1.00  0.00    -0.410 NA
BRANCH  23  24
HETATM   24  C6  UNL     1      44.827  54.060  43.479  1.00  0.00     0.167 A 
HETATM   25  C7  UNL     1      44.433  52.553  43.617  1.00  0.00     0.042 A 
HETATM   26  C8  UNL     1      43.808  53.642  44.468  1.00  0.00     0.042 A 
ENDBRANCH  23  24
ENDBRANCH  20  21
ENDBRANCH  14  20
ENDBRANCH  13  14
ENDBRANCH   1  13
BRANCH   5  27
HETATM   27  C15 UNL     1      41.470  47.096  37.617  1.00  0.00     0.041 C 
BRANCH  27  28
HETATM   28  C16 UNL     1      41.334  47.137  39.099  1.00  0.00     0.233 C 
BRANCH  28  29
HETATM   29  N3  UNL     1      42.199  46.222  39.787  1.00  0.00    -0.073 N 
ATOM     30  H32 UNL     1      41.759  45.876  40.640  1.00  0.00     0.277 HD
ATOM     31  H31 UNL     1      42.283  45.344  39.275  1.00  0.00     0.277 HD
BRANCH  29  32
HETATM   32  C17 UNL     1      43.516  46.788  40.071  1.00  0.00     0.265 C 
BRANCH  32  33
HETATM   33  C18 UNL     1      43.364  47.608  41.351  1.00  0.00     0.211 C 
HETATM   34  C19 UNL     1      43.582  49.073  41.103  1.00  0.00     0.036 C 
HETATM   35  C20 UNL     1      45.096  49.172  41.146  1.00  0.00     0.029 C 
HETATM   36  C21 UNL     1      45.486  48.129  42.190  1.00  0.00     0.233 C 
HETATM   37  N4  UNL     1      44.365  47.229  42.336  1.00  0.00    -0.069 N 
ATOM     38  H42 UNL     1      43.997  47.204  43.287  1.00  0.00     0.277 HD
ATOM     39  H41 UNL     1      44.633  46.247  42.270  1.00  0.00     0.277 HD
ENDBRANCH  32  33
ENDBRANCH  29  32
ENDBRANCH  28  29
ENDBRANCH  27  28
ENDBRANCH   5  27
BRANCH   7  40
HETATM   40  N5  UNL     1      39.789  49.964  34.322  1.00  0.00    -0.398 N 
HETATM   41  C24 UNL     1      38.549  49.229  34.181  1.00  0.00     0.146 C 
ATOM     42  H5  UNL     1      40.115  50.588  33.584  1.00  0.00     0.158 HD
ENDBRANCH   7  40
TORSDOF 12
ENDMDL
MODEL 2
REMARK VINA RESULT: -8.667009435      1.516      2.717
REMARK  12 active torsions:
REMARK  status: ('A' for Active; 'I' for Inactive)
REMARK       I    between atoms: N1_2  and  C2_4 
REMARK    1  A    between atoms: C2_4  and  C3_6 
REMARK    2  A    between atoms: C3_6  and  C4_7 
REMARK    3  A    between atoms: C3_6  and  C9_14 
REMARK    4  A    between atoms: C4_7  and  C5_8 
REMARK       I    between atoms: C5_8  and  N2_10 
REMARK    5  A    between atoms: N2_10  and  C6_11 
REMARK    6  A    between atoms: C9_14  and  C10_15 
REMARK    7  A    between atoms: C14_19  and  C15_20 
REMARK    8  A    between atoms: C15_20  and  C16_21 
REMARK    9  A    between atoms: C16_21  and  N3_22 
REMARK   10  A    between atoms: N3_22  and  C17_25 
REMARK   11  A    between atoms: C17_25  and  C18_26 
REMARK   12  A    between atoms: C23_34  and  N5_35 
ROOT
HETATM    1  C10 UNL     1      44.407  51.795  38.504  1.00  0.00    -0.013 C 
HETATM    2  C11 UNL     1      45.058  50.527  37.991  1.00  0.00     0.009 C 
HETATM    3  C12 UNL     1      44.327  49.853  36.876  1.00  0.00    -0.012 C 
HETATM    4  C13 UNL     1      43.678  48.538  37.175  1.00  0.00     0.018 C 
HETATM    5  C14 UNL     1      42.211  48.508  37.299  1.00  0.00    -0.018 C 
HETATM    6  C22 UNL     1      41.335  48.952  36.237  1.00  0.00     0.007 C 
HETATM    7  C23 UNL     1      40.757  50.144  36.084  1.00  0.00     0.002 C 
HETATM    8  C25 UNL     1      41.018  51.299  37.067  1.00  0.00     0.066 C 
HETATM    9  C26 UNL     1      42.319  50.865  37.660  1.00  0.00    -0.034 C 
HETATM   10  C27 UNL     1      42.957  51.766  38.670  1.00  0.00     0.014 C 
HETATM   11  C28 UNL     1      43.252  50.805  36.497  1.00  0.00     0.014 C 
HETATM   12  C29 UNL     1      41.981  49.617  38.383  1.00  0.00     0.023 C 
ENDROOT
BRANCH   1  13
HETATM   13  C9  UNL     1      45.236  52.239  39.681  1.00  0.00     0.019 C 
BRANCH  13  14
HETATM   14  C3  UNL     1      44.853  51.728  41.015  1.00  0.00     0.088 C 
BRANCH  14  15
HETATM   15  C2  UNL     1      44.557  52.694  42.066  1.00  0.00     0.222 C 
HETATM   16  N1  UNL     1      44.758  52.496  43.450  1.00  0.00    -0.365 N 
HETATM   17  C1  UNL     1      44.459  53.491  44.495  1.00  0.00     0.149 C 
ATOM     18  H1  UNL     1      45.138  51.597  43.747  1.00  0.00     0.161 HD
HETATM   19  O1  UNL     1      44.081  53.840  41.780  1.00  0.00    -0.273 OA
ENDBRANCH  14  15
BRANCH  14  20
HETATM   20  C4  UNL     1      45.941  50.873  41.580  1.00  0.00     0.133 C 
BRANCH  20  21
HETATM   21  C5  UNL     1      47.359  51.433  41.522  1.00  0.00     0.287 C 
HETATM   22  O2  UNL     1      48.189  50.461  41.293  1.00  0.00    -0.258 OA
HETATM   23  N2  UNL     1      47.695  52.686  41.682  1.00  0.00    -0.410 NA
BRANCH  23  24
HETATM   24  C6  UNL     1      48.061  54.049  41.856  1.00  0.00     0.167 A 
HETATM   25  C7  UNL     1      48.383  54.257  43.372  1.00  0.00     0.042 A 
HETATM   26  C8  UNL     1      47.342  55.080  42.636  1.00  0.00     0.042 A 
ENDBRANCH  23  24
ENDBRANCH  20  21
ENDBRANCH  14  20
ENDBRANCH  13  14
ENDBRANCH   1  13
BRANCH   5  27
HETATM   27  C15 UNL     1      41.688  47.264  37.949  1.00  0.00     0.041 C 
BRANCH  27  28
HETATM   28  C16 UNL     1      42.266  46.909  39.274  1.00  0.00     0.233 C 
BRANCH  28  29
HETATM   29  N3  UNL     1      42.980  45.664  39.282  1.00  0.00    -0.073 N 
ATOM     30  H32 UNL     1      42.345  44.881  39.439  1.00  0.00     0.277 HD
ATOM     31  H31 UNL     1      43.309  45.426  38.346  1.00  0.00     0.277 HD
BRANCH  29  32
HETATM   32  C17 UNL     1      44.080  45.646  40.243  1.00  0.00     0.265 C 
BRANCH  32  33
HETATM   33  C18 UNL     1      44.588  47.083  40.342  1.00  0.00     0.211 C 
HETATM   34  C19 UNL     1      45.888  47.267  39.614  1.00  0.00     0.036 C 
HETATM   35  C20 UNL     1      46.891  46.776  40.642  1.00  0.00     0.029 C 
HETATM   36  C21 UNL     1      46.266  47.198  41.970  1.00  0.00     0.233 C 
HETATM   37  N4  UNL     1      44.863  47.445  41.724  1.00  0.00    -0.069 N 
ATOM     38  H42 UNL     1      44.583  48.399  41.949  1.00  0.00     0.277 HD
ATOM     39  H41 UNL     1      44.254  46.967  42.388  1.00  0.00     0.277 HD
ENDBRANCH  32  33
ENDBRANCH  29  32
ENDBRANCH  28  29
ENDBRANCH  27  28
ENDBRANCH   5  27
BRANCH   7  40
HETATM   40  N5  UNL     1      39.916  50.437  34.998  1.00  0.00    -0.398 N 
HETATM   41  C24 UNL     1      39.225  51.710  34.993  1.00  0.00     0.146 C 
ATOM     42  H5  UNL     1      39.794  49.772  34.235  1.00  0.00     0.158 HD
ENDBRANCH   7  40
TORSDOF 12
ENDMDL
MODEL 3
REMARK VINA RESULT: -8.495334129      5.161      8.509
REMARK  12 active torsions:
REMARK  status: ('A' for Active; 'I' for Inactive)
REMARK       I    between atoms: N1_2  and  C2_4 
REMARK    1  A    between atoms: C2_4  and  C3_6 
REMARK    2  A    between atoms: C3_6  and  C4_7 
REMARK    3  A    between atoms: C3_6  and  C9_14 
REMARK    4  A    between atoms: C4_7  and  C5_8 
REMARK       I    between atoms: C5_8  and  N2_10 
REMARK    5  A    between atoms: N2_10  and  C6_11 
REMARK    6  A    between atoms: C9_14  and  C10_15 
REMARK    7  A    between atoms: C14_19  and  C15_20 
REMARK    8  A    between atoms: C15_20  and  C16_21 
REMARK    9  A    between atoms: C16_21  and  N3_22 
REMARK   10  A    between atoms: N3_22  and  C17_25 
REMARK   11  A    between atoms: C17_25  and  C18_26 
REMARK   12  A    between atoms: C23_34  and  N5_35 
ROOT
HETATM    1  C10 UNL     1      45.267  47.695  44.821  1.00  0.00    -0.013 C 
HETATM    2  C11 UNL     1      45.393  46.653  43.729  1.00  0.00     0.009 C 
HETATM    3  C12 UNL     1      45.651  47.204  42.364  1.00  0.00    -0.012 C 
HETATM    4  C13 UNL     1      44.553  47.082  41.354  1.00  0.00     0.018 C 
HETATM    5  C14 UNL     1      43.803  48.299  41.004  1.00  0.00    -0.018 C 
HETATM    6  C22 UNL     1      44.450  49.486  40.488  1.00  0.00     0.007 C 
HETATM    7  C23 UNL     1      44.844  50.571  41.153  1.00  0.00     0.002 C 
HETATM    8  C25 UNL     1      44.697  50.678  42.682  1.00  0.00     0.066 C 
HETATM    9  C26 UNL     1      44.607  49.231  43.050  1.00  0.00    -0.034 C 
HETATM   10  C27 UNL     1      44.491  48.889  44.501  1.00  0.00     0.014 C 
HETATM   11  C28 UNL     1      45.899  48.652  42.580  1.00  0.00     0.014 C 
HETATM   12  C29 UNL     1      43.342  48.784  42.423  1.00  0.00     0.023 C 
ENDROOT
BRANCH   1  13
HETATM   13  C9  UNL     1      44.901  46.940  46.073  1.00  0.00     0.019 C 
BRANCH  13  14
HETATM   14  C3  UNL     1      45.897  45.984  46.607  1.00  0.00     0.088 C 
BRANCH  14  15
HETATM   15  C2  UNL     1      45.426  44.907  47.470  1.00  0.00     0.222 C 
HETATM   16  N1  UNL     1      44.944  45.058  48.788  1.00  0.00    -0.365 N 
HETATM   17  C1  UNL     1      44.465  43.955  49.640  1.00  0.00     0.149 C 
ATOM     18  H1  UNL     1      44.926  45.999  49.180  1.00  0.00     0.161 HD
HETATM   19  O1  UNL     1      45.415  43.703  47.058  1.00  0.00    -0.273 OA
ENDBRANCH  14  15
BRANCH  14  20
HETATM   20  C4  UNL     1      46.927  46.701  47.420  1.00  0.00     0.133 C 
BRANCH  20  21
HETATM   21  C5  UNL     1      48.029  45.849  48.043  1.00  0.00     0.287 C 
HETATM   22  O2  UNL     1      48.736  45.312  47.095  1.00  0.00    -0.258 OA
HETATM   23  N2  UNL     1      48.232  45.674  49.323  1.00  0.00    -0.410 NA
BRANCH  23  24
HETATM   24  C6  UNL     1      48.453  45.485  50.714  1.00  0.00     0.167 A 
HETATM   25  C7  UNL     1      48.327  46.883  51.403  1.00  0.00     0.042 A 
HETATM   26  C8  UNL     1      49.567  46.018  51.529  1.00  0.00     0.042 A 
ENDBRANCH  23  24
ENDBRANCH  20  21
ENDBRANCH  14  20
ENDBRANCH  13  14
ENDBRANCH   1  13
BRANCH   5  27
HETATM   27  C15 UNL     1      42.516  48.028  40.288  1.00  0.00     0.041 C 
BRANCH  27  28
HETATM   28  C16 UNL     1      42.287  46.629  39.833  1.00  0.00     0.233 C 
BRANCH  28  29
HETATM   29  N3  UNL     1      42.243  46.482  38.406  1.00  0.00    -0.073 N 
ATOM     30  H32 UNL     1      43.169  46.610  37.998  1.00  0.00     0.277 HD
ATOM     31  H31 UNL     1      42.078  45.510  38.144  1.00  0.00     0.277 HD
BRANCH  29  32
HETATM   32  C17 UNL     1      41.267  47.366  37.774  1.00  0.00     0.265 C 
BRANCH  32  33
HETATM   33  C18 UNL     1      41.891  47.825  36.457  1.00  0.00     0.211 C 
HETATM   34  C19 UNL     1      43.112  48.668  36.683  1.00  0.00     0.036 C 
HETATM   35  C20 UNL     1      42.501  50.034  36.941  1.00  0.00     0.029 C 
HETATM   36  C21 UNL     1      41.269  50.043  36.040  1.00  0.00     0.233 C 
HETATM   37  N4  UNL     1      40.971  48.667  35.709  1.00  0.00    -0.069 N 
ATOM     38  H42 UNL     1      40.993  48.487  34.706  1.00  0.00     0.277 HD
ATOM     39  H41 UNL     1      39.993  48.425  35.867  1.00  0.00     0.277 HD
ENDBRANCH  32  33
ENDBRANCH  29  32
ENDBRANCH  28  29
ENDBRANCH  27  28
ENDBRANCH   5  27
BRANCH   7  40
HETATM   40  N5  UNL     1      45.458  51.662  40.516  1.00  0.00    -0.398 N 
HETATM   41  C24 UNL     1      46.835  51.963  40.851  1.00  0.00     0.146 C 
ATOM     42  H5  UNL     1      44.948  52.226  39.837  1.00  0.00     0.158 HD
ENDBRANCH   7  40
TORSDOF 12
ENDMDL
MODEL 4
REMARK VINA RESULT: -8.449045914      2.451      7.130
REMARK  12 active torsions:
REMARK  status: ('A' for Active; 'I' for Inactive)
REMARK       I    between atoms: N1_2  and  C2_4 
REMARK    1  A    between atoms: C2_4  and  C3_6 
REMARK    2  A    between atoms: C3_6  and  C4_7 
REMARK    3  A    between atoms: C3_6  and  C9_14 
REMARK    4  A    between atoms: C4_7  and  C5_8 
REMARK       I    between atoms: C5_8  and  N2_10 
REMARK    5  A    between atoms: N2_10  and  C6_11 
REMARK    6  A    between atoms: C9_14  and  C10_15 
REMARK    7  A    between atoms: C14_19  and  C15_20 
REMARK    8  A    between atoms: C15_20  and  C16_21 
REMARK    9  A    between atoms: C16_21  and  N3_22 
REMARK   10  A    between atoms: N3_22  and  C17_25 
REMARK   11  A    between atoms: C17_25  and  C18_26 
REMARK   12  A    between atoms: C23_34  and  N5_35 
ROOT
HETATM    1  C10 UNL     1      43.804  47.246  38.802  1.00  0.00    -0.013 C 
HETATM    2  C11 UNL     1      45.169  46.589  38.825  1.00  0.00     0.009 C 
HETATM    3  C12 UNL     1      45.712  46.318  40.191  1.00  0.00    -0.012 C 
HETATM    4  C13 UNL     1      46.892  47.124  40.634  1.00  0.00     0.018 C 
HETATM    5  C14 UNL     1      46.666  48.181  41.633  1.00  0.00    -0.018 C 
HETATM    6  C22 UNL     1      46.082  47.910  42.929  1.00  0.00     0.007 C 
HETATM    7  C23 UNL     1      44.809  48.031  43.306  1.00  0.00     0.002 C 
HETATM    8  C25 UNL     1      43.711  48.455  42.314  1.00  0.00     0.066 C 
HETATM    9  C26 UNL     1      44.361  48.097  41.016  1.00  0.00    -0.034 C 
HETATM   10  C27 UNL     1      43.580  48.324  39.761  1.00  0.00     0.014 C 
HETATM   11  C28 UNL     1      44.590  46.625  41.113  1.00  0.00     0.014 C 
HETATM   12  C29 UNL     1      45.527  49.008  40.941  1.00  0.00     0.023 C 
ENDROOT
BRANCH   1  13
HETATM   13  C9  UNL     1      43.504  47.527  37.354  1.00  0.00     0.019 C 
BRANCH  13  14
HETATM   14  C3  UNL     1      42.615  48.671  37.052  1.00  0.00     0.088 C 
BRANCH  14  15
HETATM   15  C2  UNL     1      41.365  48.408  36.348  1.00  0.00     0.222 C 
HETATM   16  N1  UNL     1      40.775  49.242  35.374  1.00  0.00    -0.365 N 
HETATM   17  C1  UNL     1      39.514  48.952  34.669  1.00  0.00     0.149 C 
ATOM     18  H1  UNL     1      41.257  50.111  35.142  1.00  0.00     0.161 HD
HETATM   19  O1  UNL     1      40.701  47.346  36.579  1.00  0.00    -0.273 OA
ENDBRANCH  14  15
BRANCH  14  20
HETATM   20  C4  UNL     1      43.324  49.676  36.204  1.00  0.00     0.133 C 
BRANCH  20  21
HETATM   21  C5  UNL     1      43.418  51.098  36.751  1.00  0.00     0.287 C 
HETATM   22  O2  UNL     1      42.522  51.836  36.169  1.00  0.00    -0.258 OA
HETATM   23  N2  UNL     1      44.265  51.517  37.655  1.00  0.00    -0.410 NA
BRANCH  23  24
HETATM   24  C6  UNL     1      45.186  51.973  38.636  1.00  0.00     0.167 A 
HETATM   25  C7  UNL     1      44.370  52.295  39.931  1.00  0.00     0.042 A 
HETATM   26  C8  UNL     1      45.258  53.319  39.247  1.00  0.00     0.042 A 
ENDBRANCH  23  24
ENDBRANCH  20  21
ENDBRANCH  14  20
ENDBRANCH  13  14
ENDBRANCH   1  13
BRANCH   5  27
HETATM   27  C15 UNL     1      47.796  49.158  41.742  1.00  0.00     0.041 C 
BRANCH  27  28
HETATM   28  C16 UNL     1      47.477  50.583  41.448  1.00  0.00     0.233 C 
BRANCH  28  29
HETATM   29  N3  UNL     1      47.101  51.345  42.604  1.00  0.00    -0.073 N 
ATOM     30  H32 UNL     1      46.230  50.996  43.003  1.00  0.00     0.277 HD
ATOM     31  H31 UNL     1      47.730  51.157  43.385  1.00  0.00     0.277 HD
BRANCH  29  32
HETATM   32  C17 UNL     1      47.016  52.779  42.336  1.00  0.00     0.265 C 
BRANCH  32  33
HETATM   33  C18 UNL     1      46.514  53.428  43.625  1.00  0.00     0.211 C 
HETATM   34  C19 UNL     1      45.485  52.579  44.312  1.00  0.00     0.036 C 
HETATM   35  C20 UNL     1      44.221  52.953  43.558  1.00  0.00     0.029 C 
HETATM   36  C21 UNL     1      44.436  54.428  43.227  1.00  0.00     0.233 C 
HETATM   37  N4  UNL     1      45.852  54.693  43.348  1.00  0.00    -0.069 N 
ATOM     38  H42 UNL     1      46.063  55.411  44.041  1.00  0.00     0.277 HD
ATOM     39  H41 UNL     1      46.237  55.173  42.535  1.00  0.00     0.277 HD
ENDBRANCH  32  33
ENDBRANCH  29  32
ENDBRANCH  28  29
ENDBRANCH  27  28
ENDBRANCH   5  27
BRANCH   7  40
HETATM   40  N5  UNL     1      44.380  47.737  44.611  1.00  0.00    -0.398 N 
HETATM   41  C24 UNL     1      45.219  46.887  45.431  1.00  0.00     0.146 C 
ATOM     42  H5  UNL     1      43.503  48.112  44.970  1.00  0.00     0.158 HD
ENDBRANCH   7  40
TORSDOF 12
ENDMDL
MODEL 5
REMARK VINA RESULT: -8.443660959      2.308      5.039
REMARK  12 active torsions:
REMARK  status: ('A' for Active; 'I' for Inactive)
REMARK       I    between atoms: N1_2  and  C2_4 
REMARK    1  A    between atoms: C2_4  and  C3_6 
REMARK    2  A    between atoms: C3_6  and  C4_7 
REMARK    3  A    between atoms: C3_6  and  C9_14 
REMARK    4  A    between atoms: C4_7  and  C5_8 
REMARK       I    between atoms: C5_8  and  N2_10 
REMARK    5  A    between atoms: N2_10  and  C6_11 
REMARK    6  A    between atoms: C9_14  and  C10_15 
REMARK    7  A    between atoms: C14_19  and  C15_20 
REMARK    8  A    between atoms: C15_20  and  C16_21 
REMARK    9  A    between atoms: C16_21  and  N3_22 
REMARK   10  A    between atoms: N3_22  and  C17_25 
REMARK   11  A    between atoms: C17_25  and  C18_26 
REMARK   12  A    between atoms: C23_34  and  N5_35 
ROOT
HETATM    1  C10 UNL     1      43.141  46.749  39.942  1.00  0.00    -0.013 C 
HETATM    2  C11 UNL     1      42.410  47.902  40.599  1.00  0.00     0.009 C 
HETATM    3  C12 UNL     1      41.452  48.626  39.710  1.00  0.00    -0.012 C 
HETATM    4  C13 UNL     1      41.806  50.024  39.312  1.00  0.00     0.018 C 
HETATM    5  C14 UNL     1      42.263  50.251  37.931  1.00  0.00    -0.018 C 
HETATM    6  C22 UNL     1      41.463  49.888  36.781  1.00  0.00     0.007 C 
HETATM    7  C23 UNL     1      41.525  48.778  36.046  1.00  0.00     0.002 C 
HETATM    8  C25 UNL     1      42.495  47.634  36.392  1.00  0.00     0.066 C 
HETATM    9  C26 UNL     1      42.743  47.914  37.840  1.00  0.00    -0.034 C 
HETATM   10  C27 UNL     1      43.635  46.974  38.586  1.00  0.00     0.014 C 
HETATM   11  C28 UNL     1      41.395  47.811  38.470  1.00  0.00     0.014 C 
HETATM   12  C29 UNL     1      43.442  49.220  37.833  1.00  0.00     0.023 C 
ENDROOT
BRANCH   1  13
HETATM   13  C9  UNL     1      44.121  46.241  40.967  1.00  0.00     0.019 C 
BRANCH  13  14
HETATM   14  C3  UNL     1      44.829  47.248  41.788  1.00  0.00     0.088 C 
BRANCH  14  15
HETATM   15  C2  UNL     1      46.088  47.787  41.286  1.00  0.00     0.222 C 
HETATM   16  N1  UNL     1      47.379  47.385  41.695  1.00  0.00    -0.365 N 
HETATM   17  C1  UNL     1      48.639  47.937  41.168  1.00  0.00     0.149 C 
ATOM     18  H1  UNL     1      47.443  46.658  42.408  1.00  0.00     0.161 HD
HETATM   19  O1  UNL     1      46.096  48.695  40.394  1.00  0.00    -0.273 OA
ENDBRANCH  14  15
BRANCH  14  20
HETATM   20  C4  UNL     1      45.165  46.685  43.131  1.00  0.00     0.133 C 
BRANCH  20  21
HETATM   21  C5  UNL     1      45.792  47.641  44.142  1.00  0.00     0.287 C 
HETATM   22  O2  UNL     1      46.848  47.083  44.654  1.00  0.00    -0.258 OA
HETATM   23  N2  UNL     1      45.344  48.828  44.456  1.00  0.00    -0.410 NA
BRANCH  23  24
HETATM   24  C6  UNL     1      44.856  50.119  44.797  1.00  0.00     0.167 A 
HETATM   25  C7  UNL     1      44.418  50.820  43.470  1.00  0.00     0.042 A 
HETATM   26  C8  UNL     1      45.433  51.428  44.419  1.00  0.00     0.042 A 
ENDBRANCH  23  24
ENDBRANCH  20  21
ENDBRANCH  14  20
ENDBRANCH  13  14
ENDBRANCH   1  13
BRANCH   5  27
HETATM   27  C15 UNL     1      42.934  51.575  37.728  1.00  0.00     0.041 C 
BRANCH  27  28
HETATM   28  C16 UNL     1      44.423  51.578  37.745  1.00  0.00     0.233 C 
BRANCH  28  29
HETATM   29  N3  UNL     1      44.994  52.718  38.405  1.00  0.00    -0.073 N 
ATOM     30  H32 UNL     1      45.062  53.511  37.768  1.00  0.00     0.277 HD
ATOM     31  H31 UNL     1      44.343  53.108  39.087  1.00  0.00     0.277 HD
BRANCH  29  32
HETATM   32  C17 UNL     1      46.286  52.429  39.022  1.00  0.00     0.265 C 
BRANCH  32  33
HETATM   33  C18 UNL     1      46.010  52.183  40.504  1.00  0.00     0.211 C 
HETATM   34  C19 UNL     1      45.915  53.468  41.274  1.00  0.00     0.036 C 
HETATM   35  C20 UNL     1      47.377  53.781  41.535  1.00  0.00     0.029 C 
HETATM   36  C21 UNL     1      48.006  52.400  41.708  1.00  0.00     0.233 C 
HETATM   37  N4  UNL     1      47.098  51.440  41.121  1.00  0.00    -0.069 N 
ATOM     38  H42 UNL     1      46.773  50.742  41.790  1.00  0.00     0.277 HD
ATOM     39  H41 UNL     1      47.559  50.802  40.474  1.00  0.00     0.277 HD
ENDBRANCH  32  33
ENDBRANCH  29  32
ENDBRANCH  28  29
ENDBRANCH  27  28
ENDBRANCH   5  27
BRANCH   7  40
HETATM   40  N5  UNL     1      40.685  48.560  34.942  1.00  0.00    -0.398 N 
HETATM   41  C24 UNL     1      39.615  49.507  34.699  1.00  0.00     0.146 C 
ATOM     42  H5  UNL     1      40.823  47.757  34.329  1.00  0.00     0.158 HD
ENDBRANCH   7  40
TORSDOF 12
ENDMDL
