MODEL 1
REMARK VINA RESULT: -8.265275622      0.000      0.000
REMARK  14 active torsions:
REMARK  status: ('A' for Active; 'I' for Inactive)
REMARK    1  A    between atoms: C2_2  and  C4_4 
REMARK    2  A    between atoms: C4_4  and  C5_5 
REMARK    3  A    between atoms: C5_5  and  C6_6 
REMARK    4  A    between atoms: C5_5  and  C7_9 
REMARK    5  A    between atoms: C6_6  and  O1_7 
REMARK    6  A    between atoms: C7_9  and  N1_11 
REMARK    7  A    between atoms: N1_11  and  C9_13 
REMARK    8  A    between atoms: C9_13  and  C10_14 
REMARK    9  A    between atoms: C9_13  and  C14_22 
REMARK   10  A    between atoms: C10_14  and  C11_15 
REMARK   11  A    between atoms: C11_15  and  C12_16 
REMARK   12  A    between atoms: C12_16  and  N2_17 
REMARK       I    between atoms: C14_22  and  N5_24 
REMARK   13  A    between atoms: N5_24  and  C15_26 
REMARK   14  A    between atoms: C15_26  and  C16_27 
ROOT
HETATM    1  C9  UNL     1      46.475  47.569  43.152  1.00  0.00     0.170 C 
ENDROOT
BRANCH   1   2
HETATM    2  N1  UNL     1      46.300  48.952  43.238  1.00  0.00    -0.405 N 
ATOM      3  H1  UNL     1      47.043  49.410  43.765  1.00  0.00     0.154 HD
BRANCH   2   4
HETATM    4  C7  UNL     1      45.373  49.819  42.784  1.00  0.00     0.079 C 
HETATM    5  C8  UNL     1      44.783  50.517  44.058  1.00  0.00     0.032 C 
BRANCH   4   6
HETATM    6  C5  UNL     1      45.807  50.916  41.863  1.00  0.00     0.031 C 
BRANCH   6   7
HETATM    7  C4  UNL     1      44.802  52.004  41.965  1.00  0.00     0.012 C 
BRANCH   7   8
HETATM    8  C2  UNL     1      45.245  53.404  41.934  1.00  0.00    -0.022 C 
HETATM    9  C1  UNL     1      44.248  54.112  40.962  1.00  0.00     0.009 C 
HETATM   10  C3  UNL     1      45.204  54.184  43.195  1.00  0.00     0.009 C 
ENDBRANCH   7   8
ENDBRANCH   6   7
BRANCH   6  11
HETATM   11  C6  UNL     1      47.240  51.250  41.885  1.00  0.00     0.170 C 
BRANCH  11  12
HETATM   12  O1  UNL     1      47.906  50.218  41.161  1.00  0.00    -0.400 OA
ATOM     13  H1  UNL     1      48.727  50.058  41.613  1.00  0.00     0.209 HD
ENDBRANCH  11  12
ENDBRANCH   6  11
ENDBRANCH   4   6
ENDBRANCH   2   4
ENDBRANCH   1   2
BRANCH   1  14
HETATM   14  C10 UNL     1      45.420  46.996  44.093  1.00  0.00     0.039 C 
BRANCH  14  15
HETATM   15  C11 UNL     1      45.446  47.199  45.509  1.00  0.00     0.047 C 
BRANCH  15  16
HETATM   16  C12 UNL     1      45.282  46.032  46.434  1.00  0.00     0.063 C 
BRANCH  16  17
HETATM   17  N2  UNL     1      46.069  46.261  47.552  1.00  0.00    -0.347 N 
HETATM   18  C13 UNL     1      47.219  46.274  47.910  1.00  0.00     0.200 C 
HETATM   19  N3  UNL     1      48.347  45.991  47.083  1.00  0.00    -0.067 NA
HETATM   20  N4  UNL     1      47.580  46.625  49.280  1.00  0.00    -0.067 NA
ATOM     21  H2  UNL     1      45.469  46.501  48.341  1.00  0.00     0.167 HD
ENDBRANCH  16  17
ENDBRANCH  15  16
ENDBRANCH  14  15
ENDBRANCH   1  14
BRANCH   1  22
HETATM   22  C14 UNL     1      46.016  47.236  41.726  1.00  0.00     0.243 C 
HETATM   23  O2  UNL     1      46.879  47.432  40.840  1.00  0.00    -0.271 OA
HETATM   24  N5  UNL     1      44.749  46.757  41.386  1.00  0.00    -0.339 N 
ATOM     25  H5  UNL     1      44.094  46.572  42.146  1.00  0.00     0.167 HD
BRANCH  24  26
HETATM   26  C15 UNL     1      44.304  46.510  40.055  1.00  0.00     0.069 C 
BRANCH  26  27
HETATM   27  C16 UNL     1      43.423  47.403  39.320  1.00  0.00     0.029 C 
HETATM   28  C17 UNL     1      42.765  48.538  40.003  1.00  0.00     0.013 C 
HETATM   29  C18 UNL     1      41.695  49.246  39.203  1.00  0.00     0.031 C 
HETATM   30  C19 UNL     1      42.168  50.272  38.224  1.00  0.00     0.028 C 
HETATM   31  C20 UNL     1      42.950  51.396  38.832  1.00  0.00     0.038 C 
HETATM   32  C21 UNL     1      40.948  50.875  37.541  1.00  0.00     0.034 C 
HETATM   33  N6  UNL     1      42.916  49.625  37.132  1.00  0.00    -0.381 N 
HETATM   34  C22 UNL     1      41.326  51.808  36.428  1.00  0.00     0.031 C 
HETATM   35  C23 UNL     1      42.580  51.461  35.739  1.00  0.00    -0.010 C 
HETATM   36  C24 UNL     1      43.339  50.433  36.058  1.00  0.00     0.082 C 
HETATM   37  C25 UNL     1      43.300  48.234  37.015  1.00  0.00     0.128 C 
HETATM   38  C26 UNL     1      44.270  48.017  38.181  1.00  0.00     0.008 C 
HETATM   39  C27 UNL     1      45.376  47.122  37.743  1.00  0.00     0.012 C 
ENDBRANCH  26  27
ENDBRANCH  24  26
ENDBRANCH   1  22
TORSDOF 14
ENDMDL
MODEL 2
REMARK VINA RESULT: -8.234112526      1.462      1.808
REMARK  14 active torsions:
REMARK  status: ('A' for Active; 'I' for Inactive)
REMARK    1  A    between atoms: C2_2  and  C4_4 
REMARK    2  A    between atoms: C4_4  and  C5_5 
REMARK    3  A    between atoms: C5_5  and  C6_6 
REMARK    4  A    between atoms: C5_5  and  C7_9 
REMARK    5  A    between atoms: C6_6  and  O1_7 
REMARK    6  A    between atoms: C7_9  and  N1_11 
REMARK    7  A    between atoms: N1_11  and  C9_13 
REMARK    8  A    between atoms: C9_13  and  C10_14 
REMARK    9  A    between atoms: C9_13  and  C14_22 
REMARK   10  A    between atoms: C10_14  and  C11_15 
REMARK   11  A    between atoms: C11_15  and  C12_16 
REMARK   12  A    between atoms: C12_16  and  N2_17 
REMARK       I    between atoms: C14_22  and  N5_24 
REMARK   13  A    between atoms: N5_24  and  C15_26 
REMARK   14  A    between atoms: C15_26  and  C16_27 
ROOT
HETATM    1  C9  UNL     1      46.637  47.522  43.201  1.00  0.00     0.170 C 
ENDROOT
BRANCH   1   2
HETATM    2  N1  UNL     1      46.389  48.893  43.105  1.00  0.00    -0.405 N 
ATOM      3  H1  UNL     1      47.000  49.445  43.706  1.00  0.00     0.154 HD
BRANCH   2   4
HETATM    4  C7  UNL     1      45.528  49.653  42.400  1.00  0.00     0.079 C 
HETATM    5  C8  UNL     1      44.941  50.689  43.421  1.00  0.00     0.032 C 
BRANCH   4   6
HETATM    6  C5  UNL     1      46.050  50.447  41.245  1.00  0.00     0.031 C 
BRANCH   6   7
HETATM    7  C4  UNL     1      44.910  51.210  40.679  1.00  0.00     0.012 C 
BRANCH   7   8
HETATM    8  C2  UNL     1      45.160  52.478  39.983  1.00  0.00    -0.022 C 
HETATM    9  C1  UNL     1      45.293  52.084  38.477  1.00  0.00     0.009 C 
HETATM   10  C3  UNL     1      44.115  53.530  40.035  1.00  0.00     0.009 C 
ENDBRANCH   7   8
ENDBRANCH   6   7
BRANCH   6  11
HETATM   11  C6  UNL     1      47.340  51.124  41.457  1.00  0.00     0.170 C 
BRANCH  11  12
HETATM   12  O1  UNL     1      48.349  50.129  41.300  1.00  0.00    -0.400 OA
ATOM     13  H1  UNL     1      48.525  50.069  40.368  1.00  0.00     0.209 HD
ENDBRANCH  11  12
ENDBRANCH   6  11
ENDBRANCH   4   6
ENDBRANCH   2   4
ENDBRANCH   1   2
BRANCH   1  14
HETATM   14  C10 UNL     1      45.375  46.955  43.843  1.00  0.00     0.039 C 
BRANCH  14  15
HETATM   15  C11 UNL     1      45.037  47.168  45.217  1.00  0.00     0.047 C 
BRANCH  15  16
HETATM   16  C12 UNL     1      45.974  46.717  46.295  1.00  0.00     0.063 C 
BRANCH  16  17
HETATM   17  N2  UNL     1      45.221  46.103  47.285  1.00  0.00    -0.347 N 
HETATM   18  C13 UNL     1      44.935  45.015  47.714  1.00  0.00     0.200 C 
HETATM   19  N3  UNL     1      45.409  43.771  47.200  1.00  0.00    -0.067 NA
HETATM   20  N4  UNL     1      44.060  44.867  48.873  1.00  0.00    -0.067 NA
ATOM     21  H2  UNL     1      44.746  46.818  47.836  1.00  0.00     0.167 HD
ENDBRANCH  16  17
ENDBRANCH  15  16
ENDBRANCH  14  15
ENDBRANCH   1  14
BRANCH   1  22
HETATM   22  C14 UNL     1      46.631  47.052  41.739  1.00  0.00     0.243 C 
HETATM   23  O2  UNL     1      47.751  47.084  41.177  1.00  0.00    -0.271 OA
HETATM   24  N5  UNL     1      45.501  46.622  41.043  1.00  0.00    -0.339 N 
ATOM     25  H5  UNL     1      44.620  46.572  41.555  1.00  0.00     0.167 HD
BRANCH  24  26
HETATM   26  C15 UNL     1      45.487  46.248  39.668  1.00  0.00     0.069 C 
BRANCH  26  27
HETATM   27  C16 UNL     1      44.472  46.684  38.722  1.00  0.00     0.029 C 
HETATM   28  C17 UNL     1      43.056  46.789  39.138  1.00  0.00     0.013 C 
HETATM   29  C18 UNL     1      42.066  47.018  38.019  1.00  0.00     0.031 C 
HETATM   30  C19 UNL     1      41.904  48.430  37.555  1.00  0.00     0.028 C 
HETATM   31  C20 UNL     1      41.455  49.385  38.618  1.00  0.00     0.038 C 
HETATM   32  C21 UNL     1      40.859  48.449  36.447  1.00  0.00     0.034 C 
HETATM   33  N6  UNL     1      43.140  48.895  36.900  1.00  0.00    -0.381 N 
HETATM   34  C22 UNL     1      40.737  49.801  35.807  1.00  0.00     0.031 C 
HETATM   35  C23 UNL     1      41.983  50.585  35.791  1.00  0.00    -0.010 C 
HETATM   36  C24 UNL     1      43.125  50.168  36.300  1.00  0.00     0.082 C 
HETATM   37  C25 UNL     1      44.408  48.206  36.799  1.00  0.00     0.128 C 
HETATM   38  C26 UNL     1      44.889  48.097  38.251  1.00  0.00     0.008 C 
HETATM   39  C27 UNL     1      46.361  48.306  38.300  1.00  0.00     0.012 C 
ENDBRANCH  26  27
ENDBRANCH  24  26
ENDBRANCH   1  22
TORSDOF 14
ENDMDL
MODEL 3
REMARK VINA RESULT: -8.197474788      2.958     10.435
REMARK  14 active torsions:
REMARK  status: ('A' for Active; 'I' for Inactive)
REMARK    1  A    between atoms: C2_2  and  C4_4 
REMARK    2  A    between atoms: C4_4  and  C5_5 
REMARK    3  A    between atoms: C5_5  and  C6_6 
REMARK    4  A    between atoms: C5_5  and  C7_9 
REMARK    5  A    between atoms: C6_6  and  O1_7 
REMARK    6  A    between atoms: C7_9  and  N1_11 
REMARK    7  A    between atoms: N1_11  and  C9_13 
REMARK    8  A    between atoms: C9_13  and  C10_14 
REMARK    9  A    between atoms: C9_13  and  C14_22 
REMARK   10  A    between atoms: C10_14  and  C11_15 
REMARK   11  A    between atoms: C11_15  and  C12_16 
REMARK   12  A    between atoms: C12_16  and  N2_17 
REMARK       I    between atoms: C14_22  and  N5_24 
REMARK   13  A    between atoms: N5_24  and  C15_26 
REMARK   14  A    between atoms: C15_26  and  C16_27 
ROOT
HETATM    1  C9  UNL     1      45.938  47.845  44.187  1.00  0.00     0.170 C 
ENDROOT
BRANCH   1   2
HETATM    2  N1  UNL     1      45.786  47.172  42.972  1.00  0.00    -0.405 N 
ATOM      3  H1  UNL     1      45.213  46.333  43.057  1.00  0.00     0.154 HD
BRANCH   2   4
HETATM    4  C7  UNL     1      46.222  47.378  41.714  1.00  0.00     0.079 C 
HETATM    5  C8  UNL     1      47.712  46.889  41.696  1.00  0.00     0.032 C 
BRANCH   4   6
HETATM    6  C5  UNL     1      45.531  46.672  40.590  1.00  0.00     0.031 C 
BRANCH   6   7
HETATM    7  C4  UNL     1      44.094  46.570  40.946  1.00  0.00     0.012 C 
BRANCH   7   8
HETATM    8  C2  UNL     1      43.152  47.581  40.449  1.00  0.00    -0.022 C 
HETATM    9  C1  UNL     1      42.092  46.769  39.638  1.00  0.00     0.009 C 
HETATM   10  C3  UNL     1      42.382  48.375  41.439  1.00  0.00     0.009 C 
ENDBRANCH   7   8
ENDBRANCH   6   7
BRANCH   6  11
HETATM   11  C6  UNL     1      45.913  47.092  39.232  1.00  0.00     0.170 C 
BRANCH  11  12
HETATM   12  O1  UNL     1      46.069  48.508  39.277  1.00  0.00    -0.400 OA
ATOM     13  H1  UNL     1      45.664  48.849  38.487  1.00  0.00     0.209 HD
ENDBRANCH  11  12
ENDBRANCH   6  11
ENDBRANCH   4   6
ENDBRANCH   2   4
ENDBRANCH   1   2
BRANCH   1  14
HETATM   14  C10 UNL     1      44.761  48.814  44.231  1.00  0.00     0.039 C 
BRANCH  14  15
HETATM   15  C11 UNL     1      44.911  50.228  44.081  1.00  0.00     0.047 C 
BRANCH  15  16
HETATM   16  C12 UNL     1      44.946  50.834  42.711  1.00  0.00     0.063 C 
BRANCH  16  17
HETATM   17  N2  UNL     1      46.270  50.887  42.303  1.00  0.00    -0.347 N 
HETATM   18  C13 UNL     1      46.949  51.099  41.331  1.00  0.00     0.200 C 
HETATM   19  N3  UNL     1      46.458  51.432  40.033  1.00  0.00    -0.067 NA
HETATM   20  N4  UNL     1      48.406  51.060  41.406  1.00  0.00    -0.067 NA
ATOM     21  H2  UNL     1      46.874  50.675  43.096  1.00  0.00     0.167 HD
ENDBRANCH  16  17
ENDBRANCH  15  16
ENDBRANCH  14  15
ENDBRANCH   1  14
BRANCH   1  22
HETATM   22  C14 UNL     1      45.651  46.761  45.236  1.00  0.00     0.243 C 
HETATM   23  O2  UNL     1      45.041  45.759  44.798  1.00  0.00    -0.271 OA
HETATM   24  N5  UNL     1      46.012  46.838  46.583  1.00  0.00    -0.339 N 
ATOM     25  H5  UNL     1      46.545  47.653  46.884  1.00  0.00     0.167 HD
BRANCH  24  26
HETATM   26  C15 UNL     1      45.688  45.860  47.567  1.00  0.00     0.069 C 
BRANCH  26  27
HETATM   27  C16 UNL     1      46.641  45.347  48.539  1.00  0.00     0.029 C 
HETATM   28  C17 UNL     1      47.644  46.245  49.151  1.00  0.00     0.013 C 
HETATM   29  C18 UNL     1      48.725  45.559  49.957  1.00  0.00     0.031 C 
HETATM   30  C19 UNL     1      48.374  45.196  51.364  1.00  0.00     0.028 C 
HETATM   31  C20 UNL     1      47.982  46.357  52.225  1.00  0.00     0.038 C 
HETATM   32  C21 UNL     1      49.590  44.538  52.002  1.00  0.00     0.034 C 
HETATM   33  N6  UNL     1      47.341  44.144  51.375  1.00  0.00    -0.381 N 
HETATM   34  C22 UNL     1      49.289  43.997  53.369  1.00  0.00     0.031 C 
HETATM   35  C23 UNL     1      47.902  43.539  53.553  1.00  0.00    -0.010 C 
HETATM   36  C24 UNL     1      46.973  43.601  52.621  1.00  0.00     0.082 C 
HETATM   37  C25 UNL     1      46.623  43.588  50.249  1.00  0.00     0.128 C 
HETATM   38  C26 UNL     1      45.809  44.769  49.707  1.00  0.00     0.008 C 
HETATM   39  C27 UNL     1      44.470  44.287  49.273  1.00  0.00     0.012 C 
ENDBRANCH  26  27
ENDBRANCH  24  26
ENDBRANCH   1  22
TORSDOF 14
ENDMDL
MODEL 4
REMARK VINA RESULT: -8.171143474      3.738      7.553
REMARK  14 active torsions:
REMARK  status: ('A' for Active; 'I' for Inactive)
REMARK    1  A    between atoms: C2_2  and  C4_4 
REMARK    2  A    between atoms: C4_4  and  C5_5 
REMARK    3  A    between atoms: C5_5  and  C6_6 
REMARK    4  A    between atoms: C5_5  and  C7_9 
REMARK    5  A    between atoms: C6_6  and  O1_7 
REMARK    6  A    between atoms: C7_9  and  N1_11 
REMARK    7  A    between atoms: N1_11  and  C9_13 
REMARK    8  A    between atoms: C9_13  and  C10_14 
REMARK    9  A    between atoms: C9_13  and  C14_22 
REMARK   10  A    between atoms: C10_14  and  C11_15 
REMARK   11  A    between atoms: C11_15  and  C12_16 
REMARK   12  A    between atoms: C12_16  and  N2_17 
REMARK       I    between atoms: C14_22  and  N5_24 
REMARK   13  A    between atoms: N5_24  and  C15_26 
REMARK   14  A    between atoms: C15_26  and  C16_27 
ROOT
HETATM    1  C9  UNL     1      45.520  44.650  47.731  1.00  0.00     0.170 C 
ENDROOT
BRANCH   1   2
HETATM    2  N1  UNL     1      46.666  45.204  48.307  1.00  0.00    -0.405 N 
ATOM      3  H1  UNL     1      46.483  46.097  48.764  1.00  0.00     0.154 HD
BRANCH   2   4
HETATM    4  C7  UNL     1      47.957  44.829  48.398  1.00  0.00     0.079 C 
HETATM    5  C8  UNL     1      48.789  46.024  47.817  1.00  0.00     0.032 C 
BRANCH   4   6
HETATM    6  C5  UNL     1      48.526  44.535  49.751  1.00  0.00     0.031 C 
BRANCH   6   7
HETATM    7  C4  UNL     1      48.143  45.657  50.645  1.00  0.00     0.012 C 
BRANCH   7   8
HETATM    8  C2  UNL     1      48.635  45.679  52.029  1.00  0.00    -0.022 C 
HETATM    9  C1  UNL     1      50.086  46.249  51.924  1.00  0.00     0.009 C 
HETATM   10  C3  UNL     1      47.933  46.539  53.013  1.00  0.00     0.009 C 
ENDBRANCH   7   8
ENDBRANCH   6   7
BRANCH   6  11
HETATM   11  C6  UNL     1      48.383  43.150  50.225  1.00  0.00     0.170 C 
BRANCH  11  12
HETATM   12  O1  UNL     1      47.914  42.389  49.114  1.00  0.00    -0.400 OA
ATOM     13  H1  UNL     1      48.289  42.789  48.337  1.00  0.00     0.209 HD
ENDBRANCH  11  12
ENDBRANCH   6  11
ENDBRANCH   4   6
ENDBRANCH   2   4
ENDBRANCH   1   2
BRANCH   1  14
HETATM   14  C10 UNL     1      44.529  44.547  48.885  1.00  0.00     0.039 C 
BRANCH  14  15
HETATM   15  C11 UNL     1      44.897  44.089  50.189  1.00  0.00     0.047 C 
BRANCH  15  16
HETATM   16  C12 UNL     1      44.397  42.766  50.685  1.00  0.00     0.063 C 
BRANCH  16  17
HETATM   17  N2  UNL     1      45.046  41.771  49.969  1.00  0.00    -0.347 N 
HETATM   18  C13 UNL     1      44.849  40.705  49.446  1.00  0.00     0.200 C 
HETATM   19  N3  UNL     1      43.599  40.017  49.412  1.00  0.00    -0.067 NA
HETATM   20  N4  UNL     1      45.916  40.000  48.741  1.00  0.00    -0.067 NA
ATOM     21  H2  UNL     1      46.024  42.032  49.844  1.00  0.00     0.167 HD
ENDBRANCH  16  17
ENDBRANCH  15  16
ENDBRANCH  14  15
ENDBRANCH   1  14
BRANCH   1  22
HETATM   22  C14 UNL     1      45.005  45.766  46.811  1.00  0.00     0.243 C 
HETATM   23  O2  UNL     1      43.792  45.677  46.511  1.00  0.00    -0.271 OA
HETATM   24  N5  UNL     1      45.782  46.814  46.314  1.00  0.00    -0.339 N 
ATOM     25  H5  UNL     1      46.753  46.869  46.620  1.00  0.00     0.167 HD
BRANCH  24  26
HETATM   26  C15 UNL     1      45.317  47.812  45.409  1.00  0.00     0.069 C 
BRANCH  26  27
HETATM   27  C16 UNL     1      45.628  47.822  43.989  1.00  0.00     0.029 C 
HETATM   28  C17 UNL     1      45.117  46.754  43.102  1.00  0.00     0.013 C 
HETATM   29  C18 UNL     1      45.698  46.736  41.706  1.00  0.00     0.031 C 
HETATM   30  C19 UNL     1      45.083  47.676  40.720  1.00  0.00     0.028 C 
HETATM   31  C20 UNL     1      43.618  47.465  40.490  1.00  0.00     0.038 C 
HETATM   32  C21 UNL     1      45.791  47.492  39.383  1.00  0.00     0.034 C 
HETATM   33  N6  UNL     1      45.374  49.071  41.098  1.00  0.00    -0.381 N 
HETATM   34  C22 UNL     1      45.349  48.503  38.365  1.00  0.00     0.031 C 
HETATM   35  C23 UNL     1      44.956  49.806  38.928  1.00  0.00    -0.010 C 
HETATM   36  C24 UNL     1      44.966  50.088  40.214  1.00  0.00     0.082 C 
HETATM   37  C25 UNL     1      46.028  49.552  42.296  1.00  0.00     0.128 C 
HETATM   38  C26 UNL     1      45.073  49.152  43.427  1.00  0.00     0.008 C 
HETATM   39  C27 UNL     1      45.037  50.234  44.447  1.00  0.00     0.012 C 
ENDBRANCH  26  27
ENDBRANCH  24  26
ENDBRANCH   1  22
TORSDOF 14
ENDMDL
MODEL 5
REMARK VINA RESULT: -8.128917843      2.826     10.332
REMARK  14 active torsions:
REMARK  status: ('A' for Active; 'I' for Inactive)
REMARK    1  A    between atoms: C2_2  and  C4_4 
REMARK    2  A    between atoms: C4_4  and  C5_5 
REMARK    3  A    between atoms: C5_5  and  C6_6 
REMARK    4  A    between atoms: C5_5  and  C7_9 
REMARK    5  A    between atoms: C6_6  and  O1_7 
REMARK    6  A    between atoms: C7_9  and  N1_11 
REMARK    7  A    between atoms: N1_11  and  C9_13 
REMARK    8  A    between atoms: C9_13  and  C10_14 
REMARK    9  A    between atoms: C9_13  and  C14_22 
REMARK   10  A    between atoms: C10_14  and  C11_15 
REMARK   11  A    between atoms: C11_15  and  C12_16 
REMARK   12  A    between atoms: C12_16  and  N2_17 
REMARK       I    between atoms: C14_22  and  N5_24 
REMARK   13  A    between atoms: N5_24  and  C15_26 
REMARK   14  A    between atoms: C15_26  and  C16_27 
ROOT
HETATM    1  C9  UNL     1      45.631  47.899  43.986  1.00  0.00     0.170 C 
ENDROOT
BRANCH   1   2
HETATM    2  N1  UNL     1      44.988  47.421  42.841  1.00  0.00    -0.405 N 
ATOM      3  H1  UNL     1      44.277  46.721  43.053  1.00  0.00     0.154 HD
BRANCH   2   4
HETATM    4  C7  UNL     1      45.093  47.671  41.522  1.00  0.00     0.079 C 
HETATM    5  C8  UNL     1      46.418  46.970  41.059  1.00  0.00     0.032 C 
BRANCH   4   6
HETATM    6  C5  UNL     1      44.013  47.180  40.609  1.00  0.00     0.031 C 
BRANCH   6   7
HETATM    7  C4  UNL     1      43.922  48.135  39.477  1.00  0.00     0.012 C 
BRANCH   7   8
HETATM    8  C2  UNL     1      44.274  47.689  38.123  1.00  0.00    -0.022 C 
HETATM    9  C1  UNL     1      43.201  48.349  37.198  1.00  0.00     0.009 C 
HETATM   10  C3  UNL     1      45.589  48.091  37.568  1.00  0.00     0.009 C 
ENDBRANCH   7   8
ENDBRANCH   6   7
BRANCH   6  11
HETATM   11  C6  UNL     1      44.005  45.734  40.339  1.00  0.00     0.170 C 
BRANCH  11  12
HETATM   12  O1  UNL     1      42.674  45.404  39.947  1.00  0.00    -0.400 OA
ATOM     13  H1  UNL     1      42.712  45.186  39.023  1.00  0.00     0.209 HD
ENDBRANCH  11  12
ENDBRANCH   6  11
ENDBRANCH   4   6
ENDBRANCH   2   4
ENDBRANCH   1   2
BRANCH   1  14
HETATM   14  C10 UNL     1      44.737  49.035  44.473  1.00  0.00     0.039 C 
BRANCH  14  15
HETATM   15  C11 UNL     1      45.081  50.415  44.325  1.00  0.00     0.047 C 
BRANCH  15  16
HETATM   16  C12 UNL     1      45.008  51.062  42.975  1.00  0.00     0.063 C 
BRANCH  16  17
HETATM   17  N2  UNL     1      46.288  51.083  42.443  1.00  0.00    -0.347 N 
HETATM   18  C13 UNL     1      46.875  51.000  41.395  1.00  0.00     0.200 C 
HETATM   19  N3  UNL     1      46.267  50.817  40.117  1.00  0.00    -0.067 NA
HETATM   20  N4  UNL     1      48.329  51.115  41.333  1.00  0.00    -0.067 NA
ATOM     21  H2  UNL     1      46.962  51.213  43.197  1.00  0.00     0.167 HD
ENDBRANCH  16  17
ENDBRANCH  15  16
ENDBRANCH  14  15
ENDBRANCH   1  14
BRANCH   1  22
HETATM   22  C14 UNL     1      45.469  46.752  44.994  1.00  0.00     0.243 C 
HETATM   23  O2  UNL     1      45.075  45.672  44.497  1.00  0.00    -0.271 OA
HETATM   24  N5  UNL     1      45.718  46.852  46.364  1.00  0.00    -0.339 N 
ATOM     25  H5  UNL     1      46.078  47.740  46.716  1.00  0.00     0.167 HD
BRANCH  24  26
HETATM   26  C15 UNL     1      45.505  45.805  47.307  1.00  0.00     0.069 C 
BRANCH  26  27
HETATM   27  C16 UNL     1      46.506  45.369  48.267  1.00  0.00     0.029 C 
HETATM   28  C17 UNL     1      47.563  46.298  48.723  1.00  0.00     0.013 C 
HETATM   29  C18 UNL     1      48.678  45.669  49.528  1.00  0.00     0.031 C 
HETATM   30  C19 UNL     1      48.409  45.460  50.984  1.00  0.00     0.028 C 
HETATM   31  C20 UNL     1      48.095  46.712  51.743  1.00  0.00     0.038 C 
HETATM   32  C21 UNL     1      49.649  44.838  51.612  1.00  0.00     0.034 C 
HETATM   33  N6  UNL     1      47.358  44.442  51.165  1.00  0.00    -0.381 N 
HETATM   34  C22 UNL     1      49.423  44.446  53.043  1.00  0.00     0.031 C 
HETATM   35  C23 UNL     1      48.041  44.046  53.356  1.00  0.00    -0.010 C 
HETATM   36  C24 UNL     1      47.058  44.037  52.480  1.00  0.00     0.082 C 
HETATM   37  C25 UNL     1      46.560  43.793  50.147  1.00  0.00     0.128 C 
HETATM   38  C26 UNL     1      45.738  44.934  49.537  1.00  0.00     0.008 C 
HETATM   39  C27 UNL     1      44.365  44.445  49.236  1.00  0.00     0.012 C 
ENDBRANCH  26  27
ENDBRANCH  24  26
ENDBRANCH   1  22
TORSDOF 14
ENDMDL
