MODEL 1
REMARK VINA RESULT: -9.223579100      0.000      0.000
REMARK  11 active torsions:
REMARK  status: ('A' for Active; 'I' for Inactive)
REMARK    1  A    between atoms: C2_2  and  C4_4 
REMARK    2  A    between atoms: C4_4  and  N1_5 
REMARK    3  A    between atoms: C4_4  and  C13_18 
REMARK       I    between atoms: N1_5  and  C5_7 
REMARK       I    between atoms: C5_7  and  N2_9 
REMARK    4  A    between atoms: N2_9  and  C6_11 
REMARK       I    between atoms: C13_18  and  N3_20 
REMARK    5  A    between atoms: N3_20  and  C14_22 
REMARK    6  A    between atoms: C14_22  and  C22_30 
REMARK    7  A    between atoms: C15_23  and  C16_24 
REMARK    8  A    between atoms: C22_30  and  C23_31 
REMARK    9  A    between atoms: C22_30  and  N5_36 
REMARK   10  A    between atoms: C24_32  and  C25_33 
REMARK       I    between atoms: N5_36  and  C26_38 
REMARK   11  A    between atoms: C26_38  and  C27_40 
ROOT
HETATM    1  C13 UNL     1      48.483  43.753  52.207  1.00  0.00     0.245 C 
HETATM    2  O2  UNL     1      49.438  42.925  52.067  1.00  0.00    -0.271 OA
HETATM    3  N3  UNL     1      47.174  43.269  52.164  1.00  0.00    -0.327 N 
ATOM      4  H3  UNL     1      46.422  43.945  52.298  1.00  0.00     0.168 HD
ENDROOT
BRANCH   3   5
HETATM    5  C14 UNL     1      46.787  41.876  51.942  1.00  0.00     0.035 C 
HETATM    6  C15 UNL     1      46.227  41.268  53.109  1.00  0.00     0.005 C 
BRANCH   6   7
HETATM    7  C16 UNL     1      45.059  41.764  53.871  1.00  0.00     0.010 C 
HETATM    8  C17 UNL     1      45.439  41.894  55.357  1.00  0.00     0.008 C 
HETATM    9  C18 UNL     1      44.990  40.788  56.221  1.00  0.00     0.001 C 
HETATM   10  C19 UNL     1      43.487  40.546  56.038  1.00  0.00     0.000 C 
HETATM   11  C20 UNL     1      43.325  40.057  54.639  1.00  0.00     0.001 C 
HETATM   12  C21 UNL     1      43.782  41.089  53.667  1.00  0.00     0.008 C 
ENDBRANCH   6   7
BRANCH   5  13
HETATM   13  C22 UNL     1      46.319  41.722  50.538  1.00  0.00     0.158 C 
BRANCH  13  14
HETATM   14  C23 UNL     1      46.090  40.244  50.359  1.00  0.00     0.009 C 
HETATM   15  C24 UNL     1      44.988  39.636  49.670  1.00  0.00     0.069 C 
BRANCH  15  16
HETATM   16  C25 UNL     1      43.611  39.665  50.142  1.00  0.00     0.254 C 
HETATM   17  N4  UNL     1      43.176  38.680  51.116  1.00  0.00    -0.058 NA
HETATM   18  O3  UNL     1      42.754  40.480  49.779  1.00  0.00    -0.272 OA
ENDBRANCH  15  16
ENDBRANCH  13  14
BRANCH  13  19
HETATM   19  N5  UNL     1      45.351  42.616  50.090  1.00  0.00    -0.339 N 
HETATM   20  C26 UNL     1      45.311  43.415  48.914  1.00  0.00     0.319 C 
HETATM   21  O4  UNL     1      46.285  43.337  48.124  1.00  0.00    -0.261 OA
ATOM     22  H5  UNL     1      44.541  42.713  50.702  1.00  0.00     0.164 HD
BRANCH  20  23
HETATM   23  C27 UNL     1      44.227  44.311  48.553  1.00  0.00     0.270 C 
HETATM   24  O5  UNL     1      43.430  44.614  49.462  1.00  0.00    -0.640 OA
HETATM   25  O6  UNL     1      44.096  44.785  47.295  1.00  0.00    -0.640 OA
ENDBRANCH  20  23
ENDBRANCH  13  19
ENDBRANCH   5  13
ENDBRANCH   3   5
BRANCH   1  26
HETATM   26  C4  UNL     1      48.827  45.164  52.398  1.00  0.00     0.182 C 
BRANCH  26  27
HETATM   27  C2  UNL     1      47.660  46.124  52.414  1.00  0.00     0.009 C 
HETATM   28  C1  UNL     1      47.201  46.376  53.854  1.00  0.00     0.012 C 
HETATM   29  C3  UNL     1      47.948  47.471  51.840  1.00  0.00     0.012 C 
ENDBRANCH  26  27
BRANCH  26  30
HETATM   30  N1  UNL     1      49.540  45.312  53.699  1.00  0.00    -0.330 N 
HETATM   31  C5  UNL     1      50.839  45.931  53.753  1.00  0.00     0.317 C 
HETATM   32  O1  UNL     1      51.302  46.338  52.668  1.00  0.00    -0.247 OA
HETATM   33  N2  UNL     1      51.506  46.049  54.953  1.00  0.00    -0.338 N 
ATOM     34  H2  UNL     1      51.012  45.691  55.771  1.00  0.00     0.164 HD
ATOM     35  H1  UNL     1      49.105  44.972  54.557  1.00  0.00     0.165 HD
BRANCH  33  36
HETATM   36  C6  UNL     1      52.834  46.621  55.211  1.00  0.00     0.087 C 
HETATM   37  C7  UNL     1      52.648  47.477  56.368  1.00  0.00     0.026 C 
HETATM   38  C8  UNL     1      53.694  48.352  56.992  1.00  0.00     0.013 C 
HETATM   39  C9  UNL     1      54.756  47.498  57.783  1.00  0.00     0.080 C 
HETATM   40  C10 UNL     1      54.798  46.290  57.049  1.00  0.00    -0.183 C 
HETATM   41  C11 UNL     1      54.701  45.151  56.256  1.00  0.00     0.082 C 
HETATM   42  C12 UNL     1      53.739  45.450  55.094  1.00  0.00     0.036 C 
ENDBRANCH  33  36
ENDBRANCH  26  30
ENDBRANCH   1  26
TORSDOF 11
ENDMDL
MODEL 2
REMARK VINA RESULT: -9.194516455      2.345      4.503
REMARK  11 active torsions:
REMARK  status: ('A' for Active; 'I' for Inactive)
REMARK    1  A    between atoms: C2_2  and  C4_4 
REMARK    2  A    between atoms: C4_4  and  N1_5 
REMARK    3  A    between atoms: C4_4  and  C13_18 
REMARK       I    between atoms: N1_5  and  C5_7 
REMARK       I    between atoms: C5_7  and  N2_9 
REMARK    4  A    between atoms: N2_9  and  C6_11 
REMARK       I    between atoms: C13_18  and  N3_20 
REMARK    5  A    between atoms: N3_20  and  C14_22 
REMARK    6  A    between atoms: C14_22  and  C22_30 
REMARK    7  A    between atoms: C15_23  and  C16_24 
REMARK    8  A    between atoms: C22_30  and  C23_31 
REMARK    9  A    between atoms: C22_30  and  N5_36 
REMARK   10  A    between atoms: C24_32  and  C25_33 
REMARK       I    between atoms: N5_36  and  C26_38 
REMARK   11  A    between atoms: C26_38  and  C27_40 
ROOT
HETATM    1  C13 UNL     1      45.932  44.486  54.066  1.00  0.00     0.245 C 
HETATM    2  O2  UNL     1      44.994  45.285  53.751  1.00  0.00    -0.271 OA
HETATM    3  N3  UNL     1      46.139  43.359  53.267  1.00  0.00    -0.327 N 
ATOM      4  H3  UNL     1      46.909  42.740  53.524  1.00  0.00     0.168 HD
ENDROOT
BRANCH   3   5
HETATM    5  C14 UNL     1      45.349  42.989  52.093  1.00  0.00     0.035 C 
HETATM    6  C15 UNL     1      45.681  43.764  50.939  1.00  0.00     0.005 C 
BRANCH   6   7
HETATM    7  C16 UNL     1      47.028  43.896  50.339  1.00  0.00     0.010 C 
HETATM    8  C17 UNL     1      47.569  45.310  50.608  1.00  0.00     0.008 C 
HETATM    9  C18 UNL     1      47.447  46.256  49.484  1.00  0.00     0.001 C 
HETATM   10  C19 UNL     1      48.049  45.650  48.210  1.00  0.00     0.000 C 
HETATM   11  C20 UNL     1      47.175  44.494  47.863  1.00  0.00     0.001 C 
HETATM   12  C21 UNL     1      47.192  43.477  48.950  1.00  0.00     0.008 C 
ENDBRANCH   6   7
BRANCH   5  13
HETATM   13  C22 UNL     1      45.067  41.528  52.142  1.00  0.00     0.158 C 
BRANCH  13  14
HETATM   14  C23 UNL     1      44.288  41.319  53.414  1.00  0.00     0.009 C 
HETATM   15  C24 UNL     1      44.191  40.094  54.154  1.00  0.00     0.069 C 
BRANCH  15  16
HETATM   16  C25 UNL     1      43.498  38.904  53.681  1.00  0.00     0.254 C 
HETATM   17  N4  UNL     1      42.755  38.094  54.629  1.00  0.00    -0.058 NA
HETATM   18  O3  UNL     1      43.482  38.512  52.508  1.00  0.00    -0.272 OA
ENDBRANCH  15  16
ENDBRANCH  13  14
BRANCH  13  19
HETATM   19  N5  UNL     1      44.619  40.929  50.967  1.00  0.00    -0.339 N 
HETATM   20  C26 UNL     1      45.333  40.197  49.979  1.00  0.00     0.319 C 
HETATM   21  O4  UNL     1      46.568  40.041  50.148  1.00  0.00    -0.261 OA
ATOM     22  H5  UNL     1      43.621  41.032  50.787  1.00  0.00     0.164 HD
BRANCH  20  23
HETATM   23  C27 UNL     1      44.741  39.609  48.791  1.00  0.00     0.270 C 
HETATM   24  O5  UNL     1      43.509  39.739  48.661  1.00  0.00    -0.640 OA
HETATM   25  O6  UNL     1      45.494  38.955  47.880  1.00  0.00    -0.640 OA
ENDBRANCH  20  23
ENDBRANCH  13  19
ENDBRANCH   5  13
ENDBRANCH   3   5
BRANCH   1  26
HETATM   26  C4  UNL     1      46.727  44.802  55.255  1.00  0.00     0.182 C 
BRANCH  26  27
HETATM   27  C2  UNL     1      46.603  43.826  56.402  1.00  0.00     0.009 C 
HETATM   28  C1  UNL     1      45.177  43.269  56.472  1.00  0.00     0.012 C 
HETATM   29  C3  UNL     1      47.499  42.636  56.312  1.00  0.00     0.012 C 
ENDBRANCH  26  27
BRANCH  26  30
HETATM   30  N1  UNL     1      48.166  44.853  54.869  1.00  0.00    -0.330 N 
HETATM   31  C5  UNL     1      48.957  46.022  55.153  1.00  0.00     0.317 C 
HETATM   32  O1  UNL     1      48.373  46.954  55.742  1.00  0.00    -0.247 OA
HETATM   33  N2  UNL     1      50.282  46.076  54.778  1.00  0.00    -0.338 N 
ATOM     34  H2  UNL     1      50.646  45.241  54.318  1.00  0.00     0.164 HD
ATOM     35  H1  UNL     1      48.594  44.054  54.401  1.00  0.00     0.165 HD
BRANCH  33  36
HETATM   36  C6  UNL     1      51.240  47.175  54.954  1.00  0.00     0.087 C 
HETATM   37  C7  UNL     1      51.533  47.185  56.375  1.00  0.00     0.026 C 
HETATM   38  C8  UNL     1      52.410  48.173  57.086  1.00  0.00     0.013 C 
HETATM   39  C9  UNL     1      53.932  47.921  56.765  1.00  0.00     0.080 C 
HETATM   40  C10 UNL     1      53.895  47.414  55.445  1.00  0.00    -0.183 C 
HETATM   41  C11 UNL     1      53.699  46.892  54.170  1.00  0.00     0.082 C 
HETATM   42  C12 UNL     1      52.199  46.973  53.839  1.00  0.00     0.036 C 
ENDBRANCH  33  36
ENDBRANCH  26  30
ENDBRANCH   1  26
TORSDOF 11
ENDMDL
MODEL 3
REMARK VINA RESULT: -9.082632987      9.376     13.935
REMARK  11 active torsions:
REMARK  status: ('A' for Active; 'I' for Inactive)
REMARK    1  A    between atoms: C2_2  and  C4_4 
REMARK    2  A    between atoms: C4_4  and  N1_5 
REMARK    3  A    between atoms: C4_4  and  C13_18 
REMARK       I    between atoms: N1_5  and  C5_7 
REMARK       I    between atoms: C5_7  and  N2_9 
REMARK    4  A    between atoms: N2_9  and  C6_11 
REMARK       I    between atoms: C13_18  and  N3_20 
REMARK    5  A    between atoms: N3_20  and  C14_22 
REMARK    6  A    between atoms: C14_22  and  C22_30 
REMARK    7  A    between atoms: C15_23  and  C16_24 
REMARK    8  A    between atoms: C22_30  and  C23_31 
REMARK    9  A    between atoms: C22_30  and  N5_36 
REMARK   10  A    between atoms: C24_32  and  C25_33 
REMARK       I    between atoms: N5_36  and  C26_38 
REMARK   11  A    between atoms: C26_38  and  C27_40 
ROOT
HETATM    1  C13 UNL     1      45.779  49.044  42.590  1.00  0.00     0.245 C 
HETATM    2  O2  UNL     1      47.020  48.856  42.386  1.00  0.00    -0.271 OA
HETATM    3  N3  UNL     1      45.224  50.271  42.218  1.00  0.00    -0.327 N 
ATOM      4  H3  UNL     1      44.223  50.395  42.371  1.00  0.00     0.168 HD
ENDROOT
BRANCH   3   5
HETATM    5  C14 UNL     1      45.952  51.391  41.626  1.00  0.00     0.035 C 
HETATM    6  C15 UNL     1      45.631  51.592  40.247  1.00  0.00     0.005 C 
BRANCH   6   7
HETATM    7  C16 UNL     1      44.275  51.818  39.696  1.00  0.00     0.010 C 
HETATM    8  C17 UNL     1      43.491  50.495  39.715  1.00  0.00     0.008 C 
HETATM    9  C18 UNL     1      43.427  49.782  38.426  1.00  0.00     0.001 C 
HETATM   10  C19 UNL     1      42.930  50.722  37.321  1.00  0.00     0.000 C 
HETATM   11  C20 UNL     1      43.994  51.753  37.161  1.00  0.00     0.001 C 
HETATM   12  C21 UNL     1      44.173  52.523  38.423  1.00  0.00     0.008 C 
ENDBRANCH   6   7
BRANCH   5  13
HETATM   13  C22 UNL     1      46.150  52.441  42.662  1.00  0.00     0.158 C 
BRANCH  13  14
HETATM   14  C23 UNL     1      47.228  53.339  42.114  1.00  0.00     0.009 C 
HETATM   15  C24 UNL     1      47.071  54.714  41.735  1.00  0.00     0.069 C 
BRANCH  15  16
HETATM   16  C25 UNL     1      46.288  55.164  40.593  1.00  0.00     0.254 C 
HETATM   17  N4  UNL     1      44.851  55.314  40.734  1.00  0.00    -0.058 NA
HETATM   18  O3  UNL     1      46.753  55.441  39.480  1.00  0.00    -0.272 OA
ENDBRANCH  15  16
ENDBRANCH  13  14
BRANCH  13  19
HETATM   19  N5  UNL     1      45.006  53.014  43.212  1.00  0.00    -0.339 N 
HETATM   20  C26 UNL     1      44.626  53.185  44.571  1.00  0.00     0.319 C 
HETATM   21  O4  UNL     1      45.416  52.766  45.454  1.00  0.00    -0.261 OA
ATOM     22  H5  UNL     1      44.334  53.366  42.531  1.00  0.00     0.164 HD
BRANCH  20  23
HETATM   23  C27 UNL     1      43.396  53.814  45.018  1.00  0.00     0.270 C 
HETATM   24  O5  UNL     1      42.499  53.950  44.164  1.00  0.00    -0.640 OA
HETATM   25  O6  UNL     1      43.240  54.227  46.294  1.00  0.00    -0.640 OA
ENDBRANCH  20  23
ENDBRANCH  13  19
ENDBRANCH   5  13
ENDBRANCH   3   5
BRANCH   1  26
HETATM   26  C4  UNL     1      45.018  47.958  43.212  1.00  0.00     0.182 C 
BRANCH  26  27
HETATM   27  C2  UNL     1      44.434  46.941  42.260  1.00  0.00     0.009 C 
HETATM   28  C1  UNL     1      43.084  47.429  41.724  1.00  0.00     0.012 C 
HETATM   29  C3  UNL     1      45.269  46.659  41.054  1.00  0.00     0.012 C 
ENDBRANCH  26  27
BRANCH  26  30
HETATM   30  N1  UNL     1      45.912  47.223  44.152  1.00  0.00    -0.330 N 
HETATM   31  C5  UNL     1      45.483  46.939  45.497  1.00  0.00     0.317 C 
HETATM   32  O1  UNL     1      44.337  47.327  45.804  1.00  0.00    -0.247 OA
HETATM   33  N2  UNL     1      46.319  46.278  46.371  1.00  0.00    -0.338 N 
ATOM     34  H2  UNL     1      47.224  46.000  45.992  1.00  0.00     0.164 HD
ATOM     35  H1  UNL     1      46.835  46.919  43.840  1.00  0.00     0.165 HD
BRANCH  33  36
HETATM   36  C6  UNL     1      46.078  45.920  47.775  1.00  0.00     0.087 C 
HETATM   37  C7  UNL     1      45.649  44.535  47.733  1.00  0.00     0.026 C 
HETATM   38  C8  UNL     1      45.209  43.715  48.910  1.00  0.00     0.013 C 
HETATM   39  C9  UNL     1      46.433  43.318  49.819  1.00  0.00     0.080 C 
HETATM   40  C10 UNL     1      47.310  44.415  49.662  1.00  0.00    -0.183 C 
HETATM   41  C11 UNL     1      48.083  45.537  49.379  1.00  0.00     0.082 C 
HETATM   42  C12 UNL     1      47.263  46.474  48.476  1.00  0.00     0.036 C 
ENDBRANCH  33  36
ENDBRANCH  26  30
ENDBRANCH   1  26
TORSDOF 11
ENDMDL
MODEL 4
REMARK VINA RESULT: -9.055535334      2.896      7.922
REMARK  11 active torsions:
REMARK  status: ('A' for Active; 'I' for Inactive)
REMARK    1  A    between atoms: C2_2  and  C4_4 
REMARK    2  A    between atoms: C4_4  and  N1_5 
REMARK    3  A    between atoms: C4_4  and  C13_18 
REMARK       I    between atoms: N1_5  and  C5_7 
REMARK       I    between atoms: C5_7  and  N2_9 
REMARK    4  A    between atoms: N2_9  and  C6_11 
REMARK       I    between atoms: C13_18  and  N3_20 
REMARK    5  A    between atoms: N3_20  and  C14_22 
REMARK    6  A    between atoms: C14_22  and  C22_30 
REMARK    7  A    between atoms: C15_23  and  C16_24 
REMARK    8  A    between atoms: C22_30  and  C23_31 
REMARK    9  A    between atoms: C22_30  and  N5_36 
REMARK   10  A    between atoms: C24_32  and  C25_33 
REMARK       I    between atoms: N5_36  and  C26_38 
REMARK   11  A    between atoms: C26_38  and  C27_40 
ROOT
HETATM    1  C13 UNL     1      45.493  43.890  53.522  1.00  0.00     0.245 C 
HETATM    2  O2  UNL     1      44.927  45.003  53.763  1.00  0.00    -0.271 OA
HETATM    3  N3  UNL     1      46.365  43.811  52.435  1.00  0.00    -0.327 N 
ATOM      4  H3  UNL     1      46.824  42.914  52.269  1.00  0.00     0.168 HD
ENDROOT
BRANCH   3   5
HETATM    5  C14 UNL     1      46.679  44.901  51.512  1.00  0.00     0.035 C 
HETATM    6  C15 UNL     1      47.548  45.878  52.089  1.00  0.00     0.005 C 
BRANCH   6   7
HETATM    7  C16 UNL     1      48.883  45.615  52.675  1.00  0.00     0.010 C 
HETATM    8  C17 UNL     1      48.767  45.575  54.209  1.00  0.00     0.008 C 
HETATM    9  C18 UNL     1      49.181  46.808  54.903  1.00  0.00     0.001 C 
HETATM   10  C19 UNL     1      50.584  47.230  54.450  1.00  0.00     0.000 C 
HETATM   11  C20 UNL     1      50.448  47.602  53.014  1.00  0.00     0.001 C 
HETATM   12  C21 UNL     1      49.998  46.432  52.209  1.00  0.00     0.008 C 
ENDBRANCH   6   7
BRANCH   5  13
HETATM   13  C22 UNL     1      46.730  44.362  50.126  1.00  0.00     0.158 C 
BRANCH  13  14
HETATM   14  C23 UNL     1      46.197  42.957  50.229  1.00  0.00     0.009 C 
HETATM   15  C24 UNL     1      45.026  42.447  49.576  1.00  0.00     0.069 C 
BRANCH  15  16
HETATM   16  C25 UNL     1      43.666  42.853  49.899  1.00  0.00     0.254 C 
HETATM   17  N4  UNL     1      43.254  44.221  49.639  1.00  0.00    -0.058 NA
HETATM   18  O3  UNL     1      42.803  42.115  50.389  1.00  0.00    -0.272 OA
ENDBRANCH  15  16
ENDBRANCH  13  14
BRANCH  13  19
HETATM   19  N5  UNL     1      46.267  45.189  49.106  1.00  0.00    -0.339 N 
HETATM   20  C26 UNL     1      46.712  45.330  47.764  1.00  0.00     0.319 C 
HETATM   21  O4  UNL     1      47.678  44.617  47.392  1.00  0.00    -0.261 OA
ATOM     22  H5  UNL     1      45.483  45.789  49.363  1.00  0.00     0.164 HD
BRANCH  20  23
HETATM   23  C27 UNL     1      46.132  46.232  46.785  1.00  0.00     0.270 C 
HETATM   24  O5  UNL     1      46.928  46.808  46.019  1.00  0.00    -0.640 OA
HETATM   25  O6  UNL     1      44.798  46.432  46.717  1.00  0.00    -0.640 OA
ENDBRANCH  20  23
ENDBRANCH  13  19
ENDBRANCH   5  13
ENDBRANCH   3   5
BRANCH   1  26
HETATM   26  C4  UNL     1      45.180  42.762  54.403  1.00  0.00     0.182 C 
BRANCH  26  27
HETATM   27  C2  UNL     1      44.711  43.129  55.792  1.00  0.00     0.009 C 
HETATM   28  C1  UNL     1      43.918  41.970  56.408  1.00  0.00     0.012 C 
HETATM   29  C3  UNL     1      45.803  43.432  56.763  1.00  0.00     0.012 C 
ENDBRANCH  26  27
BRANCH  26  30
HETATM   30  N1  UNL     1      44.103  41.945  53.773  1.00  0.00    -0.330 N 
HETATM   31  C5  UNL     1      44.423  40.721  53.086  1.00  0.00     0.317 C 
HETATM   32  O1  UNL     1      45.627  40.395  53.071  1.00  0.00    -0.247 OA
HETATM   33  N2  UNL     1      43.429  39.978  52.486  1.00  0.00    -0.338 N 
ATOM     34  H2  UNL     1      42.482  40.345  52.584  1.00  0.00     0.164 HD
ATOM     35  H1  UNL     1      43.133  42.256  53.829  1.00  0.00     0.165 HD
BRANCH  33  36
HETATM   36  C6  UNL     1      43.553  38.727  51.725  1.00  0.00     0.087 C 
HETATM   37  C7  UNL     1      44.438  39.053  50.623  1.00  0.00     0.026 C 
HETATM   38  C8  UNL     1      44.829  38.131  49.507  1.00  0.00     0.013 C 
HETATM   39  C9  UNL     1      45.839  37.028  50.004  1.00  0.00     0.080 C 
HETATM   40  C10 UNL     1      45.452  36.831  51.350  1.00  0.00    -0.183 C 
HETATM   41  C11 UNL     1      44.988  36.776  52.660  1.00  0.00     0.082 C 
HETATM   42  C12 UNL     1      43.769  37.706  52.781  1.00  0.00     0.036 C 
ENDBRANCH  33  36
ENDBRANCH  26  30
ENDBRANCH   1  26
TORSDOF 11
ENDMDL
MODEL 5
REMARK VINA RESULT: -9.035545027      2.911      8.569
REMARK  11 active torsions:
REMARK  status: ('A' for Active; 'I' for Inactive)
REMARK    1  A    between atoms: C2_2  and  C4_4 
REMARK    2  A    between atoms: C4_4  and  N1_5 
REMARK    3  A    between atoms: C4_4  and  C13_18 
REMARK       I    between atoms: N1_5  and  C5_7 
REMARK       I    between atoms: C5_7  and  N2_9 
REMARK    4  A    between atoms: N2_9  and  C6_11 
REMARK       I    between atoms: C13_18  and  N3_20 
REMARK    5  A    between atoms: N3_20  and  C14_22 
REMARK    6  A    between atoms: C14_22  and  C22_30 
REMARK    7  A    between atoms: C15_23  and  C16_24 
REMARK    8  A    between atoms: C22_30  and  C23_31 
REMARK    9  A    between atoms: C22_30  and  N5_36 
REMARK   10  A    between atoms: C24_32  and  C25_33 
REMARK       I    between atoms: N5_36  and  C26_38 
REMARK   11  A    between atoms: C26_38  and  C27_40 
ROOT
HETATM    1  C13 UNL     1      45.617  44.056  53.552  1.00  0.00     0.245 C 
HETATM    2  O2  UNL     1      45.039  45.177  53.711  1.00  0.00    -0.271 OA
HETATM    3  N3  UNL     1      46.639  43.965  52.604  1.00  0.00    -0.327 N 
ATOM      4  H3  UNL     1      47.104  43.062  52.505  1.00  0.00     0.168 HD
ENDROOT
BRANCH   3   5
HETATM    5  C14 UNL     1      47.102  45.052  51.743  1.00  0.00     0.035 C 
HETATM    6  C15 UNL     1      47.587  46.174  52.483  1.00  0.00     0.005 C 
BRANCH   6   7
HETATM    7  C16 UNL     1      48.666  46.144  53.497  1.00  0.00     0.010 C 
HETATM    8  C17 UNL     1      48.815  47.542  54.123  1.00  0.00     0.008 C 
HETATM    9  C18 UNL     1      49.925  48.354  53.593  1.00  0.00     0.001 C 
HETATM   10  C19 UNL     1      51.238  47.563  53.649  1.00  0.00     0.000 C 
HETATM   11  C20 UNL     1      51.069  46.434  52.691  1.00  0.00     0.001 C 
HETATM   12  C21 UNL     1      49.943  45.555  53.109  1.00  0.00     0.008 C 
ENDBRANCH   6   7
BRANCH   5  13
HETATM   13  C22 UNL     1      47.691  44.471  50.506  1.00  0.00     0.158 C 
BRANCH  13  14
HETATM   14  C23 UNL     1      48.131  45.654  49.685  1.00  0.00     0.009 C 
HETATM   15  C24 UNL     1      47.307  46.413  48.788  1.00  0.00     0.069 C 
BRANCH  15  16
HETATM   16  C25 UNL     1      46.773  45.900  47.534  1.00  0.00     0.254 C 
HETATM   17  N4  UNL     1      46.960  46.670  46.318  1.00  0.00    -0.058 NA
HETATM   18  O3  UNL     1      46.158  44.834  47.409  1.00  0.00    -0.272 OA
ENDBRANCH  15  16
ENDBRANCH  13  14
BRANCH  13  19
HETATM   19  N5  UNL     1      48.560  43.394  50.662  1.00  0.00    -0.339 N 
HETATM   20  C26 UNL     1      48.408  42.029  50.295  1.00  0.00     0.319 C 
HETATM   21  O4  UNL     1      47.332  41.692  49.740  1.00  0.00    -0.261 OA
ATOM     22  H5  UNL     1      49.447  43.621  51.111  1.00  0.00     0.164 HD
BRANCH  20  23
HETATM   23  C27 UNL     1      49.405  40.995  50.507  1.00  0.00     0.270 C 
HETATM   24  O5  UNL     1      50.554  41.380  50.792  1.00  0.00    -0.640 OA
HETATM   25  O6  UNL     1      49.093  39.685  50.398  1.00  0.00    -0.640 OA
ENDBRANCH  20  23
ENDBRANCH  13  19
ENDBRANCH   5  13
ENDBRANCH   3   5
BRANCH   1  26
HETATM   26  C4  UNL     1      45.161  42.931  54.373  1.00  0.00     0.182 C 
BRANCH  26  27
HETATM   27  C2  UNL     1      44.694  43.287  55.765  1.00  0.00     0.009 C 
HETATM   28  C1  UNL     1      43.725  42.221  56.288  1.00  0.00     0.012 C 
HETATM   29  C3  UNL     1      45.779  43.383  56.786  1.00  0.00     0.012 C 
ENDBRANCH  26  27
BRANCH  26  30
HETATM   30  N1  UNL     1      44.022  42.263  53.680  1.00  0.00    -0.330 N 
HETATM   31  C5  UNL     1      44.265  41.228  52.709  1.00  0.00     0.317 C 
HETATM   32  O1  UNL     1      45.460  40.929  52.507  1.00  0.00    -0.247 OA
HETATM   33  N2  UNL     1      43.212  40.626  52.055  1.00  0.00    -0.338 N 
ATOM     34  H2  UNL     1      42.282  40.949  52.321  1.00  0.00     0.164 HD
ATOM     35  H1  UNL     1      43.065  42.541  53.896  1.00  0.00     0.165 HD
BRANCH  33  36
HETATM   36  C6  UNL     1      43.253  39.579  51.024  1.00  0.00     0.087 C 
HETATM   37  C7  UNL     1      44.047  40.148  49.952  1.00  0.00     0.026 C 
HETATM   38  C8  UNL     1      44.329  39.503  48.628  1.00  0.00     0.013 C 
HETATM   39  C9  UNL     1      45.360  38.320  48.777  1.00  0.00     0.080 C 
HETATM   40  C10 UNL     1      45.084  37.823  50.072  1.00  0.00    -0.183 C 
HETATM   41  C11 UNL     1      44.730  37.472  51.371  1.00  0.00     0.082 C 
HETATM   42  C12 UNL     1      43.540  38.347  51.801  1.00  0.00     0.036 C 
ENDBRANCH  33  36
ENDBRANCH  26  30
ENDBRANCH   1  26
TORSDOF 11
ENDMDL
