MODEL 1
REMARK VINA RESULT: -8.956463965      0.000      0.000
REMARK  15 active torsions:
REMARK  status: ('A' for Active; 'I' for Inactive)
REMARK    1  A    between atoms: C2_2  and  N5_22 
REMARK    2  A    between atoms: N1_3  and  C3_5 
REMARK    3  A    between atoms: C6_10  and  N3_11 
REMARK    4  A    between atoms: N3_11  and  C7_13 
REMARK    5  A    between atoms: C7_13  and  C8_14 
REMARK    6  A    between atoms: N5_22  and  C14_24 
REMARK    7  A    between atoms: C14_24  and  C15_25 
REMARK    8  A    between atoms: C15_25  and  C16_26 
REMARK    9  A    between atoms: C16_26  and  C17_27 
REMARK   10  A    between atoms: C17_27  and  C20_30 
REMARK       I    between atoms: C20_30  and  N6_32 
REMARK   11  A    between atoms: N6_32  and  C21_34 
REMARK   12  A    between atoms: C21_34  and  C22_35 
REMARK   13  A    between atoms: C21_34  and  C25_42 
REMARK   14  A    between atoms: C22_35  and  C23_36 
REMARK   15  A    between atoms: C23_36  and  N7_37 
REMARK       I    between atoms: N7_37  and  C24_39 
ROOT
HETATM    1  N5  UNL     1      45.748  44.820  48.449  1.00  0.00    -0.380 N 
ATOM      2  H5  UNL     1      45.296  45.044  49.336  1.00  0.00     0.160 HD
ENDROOT
BRANCH   1   3
HETATM    3  C2  UNL     1      45.774  45.739  47.376  1.00  0.00     0.089 C 
HETATM    4  C1  UNL     1      47.019  46.453  47.035  1.00  0.00     0.089 C 
HETATM    5  N1  UNL     1      44.708  45.945  46.704  1.00  0.00    -0.181 N 
ATOM      6  H1  UNL     1      43.848  45.450  46.939  1.00  0.00     0.185 HD
BRANCH   5   7
HETATM    7  C3  UNL     1      44.731  46.867  45.627  1.00  0.00     0.684 A 
HETATM    8  N2  UNL     1      44.397  48.159  45.778  1.00  0.00    -0.202 N 
HETATM    9  C4  UNL     1      44.434  49.018  44.724  1.00  0.00     0.110 A 
ATOM     10  H2  UNL     1      44.110  48.501  46.695  1.00  0.00     0.183 HD
HETATM   11  C5  UNL     1      44.824  48.540  43.494  1.00  0.00     0.066 A 
HETATM   12  C6  UNL     1      45.177  47.200  43.312  1.00  0.00     0.118 A 
HETATM   13  N4  UNL     1      45.110  46.426  44.407  1.00  0.00    -0.177 N 
ATOM     14  H4  UNL     1      45.361  45.443  44.312  1.00  0.00     0.186 HD
BRANCH  12  15
HETATM   15  N3  UNL     1      45.539  46.796  42.144  1.00  0.00    -0.376 N 
ATOM     16  H3  UNL     1      45.005  46.043  41.708  1.00  0.00     0.161 HD
BRANCH  15  17
HETATM   17  C7  UNL     1      46.648  47.344  41.422  1.00  0.00     0.126 C 
BRANCH  17  18
HETATM   18  C8  UNL     1      46.432  47.297  39.906  1.00  0.00     0.003 C 
HETATM   19  C9  UNL     1      45.428  46.254  39.530  1.00  0.00     0.006 C 
HETATM   20  C10 UNL     1      44.160  46.888  38.972  1.00  0.00     0.000 C 
HETATM   21  C11 UNL     1      44.556  47.648  37.717  1.00  0.00     0.000 C 
HETATM   22  C12 UNL     1      45.523  48.744  38.065  1.00  0.00     0.000 C 
HETATM   23  C13 UNL     1      46.021  48.684  39.478  1.00  0.00     0.006 C 
ENDBRANCH  17  18
ENDBRANCH  15  17
ENDBRANCH  12  15
ENDBRANCH   5   7
ENDBRANCH   1   3
BRANCH   1  24
HETATM   24  C14 UNL     1      46.411  43.513  48.220  1.00  0.00     0.121 C 
BRANCH  24  25
HETATM   25  C15 UNL     1      47.293  43.195  49.380  1.00  0.00     0.021 C 
BRANCH  25  26
HETATM   26  C16 UNL     1      48.024  44.341  49.925  1.00  0.00     0.020 C 
BRANCH  26  27
HETATM   27  C17 UNL     1      48.121  44.595  51.369  1.00  0.00     0.034 C 
HETATM   28  C18 UNL     1      49.140  43.889  52.171  1.00  0.00     0.025 C 
HETATM   29  C19 UNL     1      48.297  46.111  51.581  1.00  0.00     0.025 C 
BRANCH  27  30
HETATM   30  C20 UNL     1      46.761  44.264  51.956  1.00  0.00     0.226 C 
HETATM   31  O1  UNL     1      45.738  44.881  51.578  1.00  0.00    -0.273 OA
HETATM   32  N6  UNL     1      46.659  43.253  52.935  1.00  0.00    -0.355 N 
ATOM     33  H6  UNL     1      47.502  42.762  53.230  1.00  0.00     0.162 HD
BRANCH  32  34
HETATM   34  C21 UNL     1      45.356  42.882  53.549  1.00  0.00     0.093 C 
BRANCH  34  35
HETATM   35  C22 UNL     1      45.110  41.493  53.089  1.00  0.00     0.045 C 
BRANCH  35  36
HETATM   36  C23 UNL     1      44.068  41.265  52.064  1.00  0.00     0.126 C 
BRANCH  36  37
HETATM   37  N7  UNL     1      43.662  42.571  51.523  1.00  0.00    -0.345 N 
HETATM   38  C24 UNL     1      43.327  42.702  50.147  1.00  0.00     0.328 C 
HETATM   39  N8  UNL     1      42.935  43.956  49.614  1.00  0.00    -0.040 NA
HETATM   40  O2  UNL     1      43.369  41.721  49.373  1.00  0.00    -0.251 OA
ATOM     41  H7  UNL     1      43.621  43.385  52.136  1.00  0.00     0.163 HD
ENDBRANCH  36  37
ENDBRANCH  35  36
ENDBRANCH  34  35
BRANCH  34  42
HETATM   42  C25 UNL     1      45.564  43.084  55.014  1.00  0.00    -0.031 C 
HETATM   43  C26 UNL     1      46.465  42.094  55.690  1.00  0.00     0.016 C 
HETATM   44  C27 UNL     1      46.110  44.463  55.333  1.00  0.00     0.016 C 
HETATM   45  C28 UNL     1      44.200  43.014  55.721  1.00  0.00     0.016 C 
ENDBRANCH  34  42
ENDBRANCH  32  34
ENDBRANCH  27  30
ENDBRANCH  26  27
ENDBRANCH  25  26
ENDBRANCH  24  25
ENDBRANCH   1  24
TORSDOF 15
ENDMDL
MODEL 2
REMARK VINA RESULT: -8.914194837      3.366      4.925
REMARK  15 active torsions:
REMARK  status: ('A' for Active; 'I' for Inactive)
REMARK    1  A    between atoms: C2_2  and  N5_22 
REMARK    2  A    between atoms: N1_3  and  C3_5 
REMARK    3  A    between atoms: C6_10  and  N3_11 
REMARK    4  A    between atoms: N3_11  and  C7_13 
REMARK    5  A    between atoms: C7_13  and  C8_14 
REMARK    6  A    between atoms: N5_22  and  C14_24 
REMARK    7  A    between atoms: C14_24  and  C15_25 
REMARK    8  A    between atoms: C15_25  and  C16_26 
REMARK    9  A    between atoms: C16_26  and  C17_27 
REMARK   10  A    between atoms: C17_27  and  C20_30 
REMARK       I    between atoms: C20_30  and  N6_32 
REMARK   11  A    between atoms: N6_32  and  C21_34 
REMARK   12  A    between atoms: C21_34  and  C22_35 
REMARK   13  A    between atoms: C21_34  and  C25_42 
REMARK   14  A    between atoms: C22_35  and  C23_36 
REMARK   15  A    between atoms: C23_36  and  N7_37 
REMARK       I    between atoms: N7_37  and  C24_39 
ROOT
HETATM    1  N5  UNL     1      45.484  44.865  48.438  1.00  0.00    -0.380 N 
ATOM      2  H5  UNL     1      45.501  45.179  49.408  1.00  0.00     0.160 HD
ENDROOT
BRANCH   1   3
HETATM    3  C2  UNL     1      45.573  45.775  47.361  1.00  0.00     0.089 C 
HETATM    4  C1  UNL     1      46.852  46.439  47.048  1.00  0.00     0.089 C 
HETATM    5  N1  UNL     1      44.533  46.018  46.661  1.00  0.00    -0.181 N 
ATOM      6  H1  UNL     1      43.648  45.557  46.878  1.00  0.00     0.185 HD
BRANCH   5   7
HETATM    7  C3  UNL     1      44.618  46.932  45.581  1.00  0.00     0.684 A 
HETATM    8  N2  UNL     1      44.369  48.243  45.725  1.00  0.00    -0.202 N 
HETATM    9  C4  UNL     1      44.465  49.093  44.667  1.00  0.00     0.110 A 
ATOM     10  H2  UNL     1      44.104  48.608  46.640  1.00  0.00     0.183 HD
HETATM   11  C5  UNL     1      44.824  48.585  43.440  1.00  0.00     0.066 A 
HETATM   12  C6  UNL     1      45.088  47.224  43.265  1.00  0.00     0.118 A 
HETATM   13  N4  UNL     1      44.969  46.461  44.363  1.00  0.00    -0.177 N 
ATOM     14  H4  UNL     1      45.154  45.463  44.272  1.00  0.00     0.186 HD
BRANCH  12  15
HETATM   15  N3  UNL     1      45.424  46.792  42.099  1.00  0.00    -0.376 N 
ATOM     16  H3  UNL     1      44.799  46.135  41.630  1.00  0.00     0.161 HD
BRANCH  15  17
HETATM   17  C7  UNL     1      46.626  47.181  41.424  1.00  0.00     0.126 C 
BRANCH  17  18
HETATM   18  C8  UNL     1      46.441  47.247  39.905  1.00  0.00     0.003 C 
HETATM   19  C9  UNL     1      45.456  46.226  39.430  1.00  0.00     0.006 C 
HETATM   20  C10 UNL     1      44.192  46.888  38.896  1.00  0.00     0.000 C 
HETATM   21  C11 UNL     1      44.604  47.746  37.711  1.00  0.00     0.000 C 
HETATM   22  C12 UNL     1      45.552  48.821  38.160  1.00  0.00     0.000 C 
HETATM   23  C13 UNL     1      46.023  48.658  39.575  1.00  0.00     0.006 C 
ENDBRANCH  17  18
ENDBRANCH  15  17
ENDBRANCH  12  15
ENDBRANCH   5   7
ENDBRANCH   1   3
BRANCH   1  24
HETATM   24  C14 UNL     1      45.366  43.429  48.085  1.00  0.00     0.121 C 
BRANCH  24  25
HETATM   25  C15 UNL     1      44.394  42.771  49.006  1.00  0.00     0.021 C 
BRANCH  25  26
HETATM   26  C16 UNL     1      44.945  41.661  49.787  1.00  0.00     0.020 C 
BRANCH  26  27
HETATM   27  C17 UNL     1      44.158  40.952  50.805  1.00  0.00     0.034 C 
HETATM   28  C18 UNL     1      43.928  41.578  52.122  1.00  0.00     0.025 C 
HETATM   29  C19 UNL     1      42.791  40.589  50.191  1.00  0.00     0.025 C 
BRANCH  27  30
HETATM   30  C20 UNL     1      44.855  39.624  51.040  1.00  0.00     0.226 C 
HETATM   31  O1  UNL     1      45.654  39.485  51.996  1.00  0.00    -0.273 OA
HETATM   32  N6  UNL     1      44.596  38.544  50.171  1.00  0.00    -0.355 N 
ATOM     33  H6  UNL     1      43.943  38.675  49.398  1.00  0.00     0.162 HD
BRANCH  32  34
HETATM   34  C21 UNL     1      45.246  37.218  50.347  1.00  0.00     0.093 C 
BRANCH  34  35
HETATM   35  C22 UNL     1      44.255  36.415  51.105  1.00  0.00     0.045 C 
BRANCH  35  36
HETATM   36  C23 UNL     1      44.517  36.140  52.535  1.00  0.00     0.126 C 
BRANCH  36  37
HETATM   37  N7  UNL     1      43.225  36.092  53.237  1.00  0.00    -0.345 N 
HETATM   38  C24 UNL     1      42.872  37.117  54.157  1.00  0.00     0.328 C 
HETATM   39  N8  UNL     1      41.630  37.082  54.840  1.00  0.00    -0.040 NA
HETATM   40  O2  UNL     1      43.643  38.075  54.389  1.00  0.00    -0.251 OA
ATOM     41  H7  UNL     1      42.580  35.320  53.064  1.00  0.00     0.163 HD
ENDBRANCH  36  37
ENDBRANCH  35  36
ENDBRANCH  34  35
BRANCH  34  42
HETATM   42  C25 UNL     1      45.561  36.770  48.958  1.00  0.00    -0.031 C 
HETATM   43  C26 UNL     1      45.383  37.798  47.882  1.00  0.00     0.016 C 
HETATM   44  C27 UNL     1      46.979  36.243  48.832  1.00  0.00     0.016 C 
HETATM   45  C28 UNL     1      44.654  35.579  48.606  1.00  0.00     0.016 C 
ENDBRANCH  34  42
ENDBRANCH  32  34
ENDBRANCH  27  30
ENDBRANCH  26  27
ENDBRANCH  25  26
ENDBRANCH  24  25
ENDBRANCH   1  24
TORSDOF 15
ENDMDL
MODEL 3
REMARK VINA RESULT: -8.800059262      5.105     10.058
REMARK  15 active torsions:
REMARK  status: ('A' for Active; 'I' for Inactive)
REMARK    1  A    between atoms: C2_2  and  N5_22 
REMARK    2  A    between atoms: N1_3  and  C3_5 
REMARK    3  A    between atoms: C6_10  and  N3_11 
REMARK    4  A    between atoms: N3_11  and  C7_13 
REMARK    5  A    between atoms: C7_13  and  C8_14 
REMARK    6  A    between atoms: N5_22  and  C14_24 
REMARK    7  A    between atoms: C14_24  and  C15_25 
REMARK    8  A    between atoms: C15_25  and  C16_26 
REMARK    9  A    between atoms: C16_26  and  C17_27 
REMARK   10  A    between atoms: C17_27  and  C20_30 
REMARK       I    between atoms: C20_30  and  N6_32 
REMARK   11  A    between atoms: N6_32  and  C21_34 
REMARK   12  A    between atoms: C21_34  and  C22_35 
REMARK   13  A    between atoms: C21_34  and  C25_42 
REMARK   14  A    between atoms: C22_35  and  C23_36 
REMARK   15  A    between atoms: C23_36  and  N7_37 
REMARK       I    between atoms: N7_37  and  C24_39 
ROOT
HETATM    1  N5  UNL     1      42.311  45.820  39.113  1.00  0.00    -0.380 N 
ATOM      2  H5  UNL     1      41.891  45.019  38.642  1.00  0.00     0.160 HD
ENDROOT
BRANCH   1   3
HETATM    3  C2  UNL     1      41.899  47.144  38.838  1.00  0.00     0.089 C 
HETATM    4  C1  UNL     1      40.870  47.793  39.671  1.00  0.00     0.089 C 
HETATM    5  N1  UNL     1      42.428  47.772  37.860  1.00  0.00    -0.181 N 
ATOM      6  H1  UNL     1      43.141  47.322  37.285  1.00  0.00     0.185 HD
BRANCH   5   7
HETATM    7  C3  UNL     1      42.016  49.099  37.581  1.00  0.00     0.684 A 
HETATM    8  N2  UNL     1      40.991  49.378  36.759  1.00  0.00    -0.202 N 
HETATM    9  C4  UNL     1      40.619  50.663  36.517  1.00  0.00     0.110 A 
ATOM     10  H2  UNL     1      40.484  48.615  36.310  1.00  0.00     0.183 HD
HETATM   11  C5  UNL     1      41.313  51.681  37.132  1.00  0.00     0.066 A 
HETATM   12  C6  UNL     1      42.383  51.416  37.991  1.00  0.00     0.118 A 
HETATM   13  N4  UNL     1      42.679  50.119  38.170  1.00  0.00    -0.177 N 
ATOM     14  H4  UNL     1      43.455  49.888  38.791  1.00  0.00     0.186 HD
BRANCH  12  15
HETATM   15  N3  UNL     1      43.003  52.398  38.547  1.00  0.00    -0.376 N 
ATOM     16  H3  UNL     1      42.457  53.209  38.840  1.00  0.00     0.161 HD
BRANCH  15  17
HETATM   17  C7  UNL     1      44.417  52.416  38.777  1.00  0.00     0.126 C 
BRANCH  17  18
HETATM   18  C8  UNL     1      44.948  53.834  39.010  1.00  0.00     0.003 C 
HETATM   19  C9  UNL     1      43.915  54.705  39.651  1.00  0.00     0.006 C 
HETATM   20  C10 UNL     1      44.321  55.089  41.069  1.00  0.00     0.000 C 
HETATM   21  C11 UNL     1      45.616  55.877  40.964  1.00  0.00     0.000 C 
HETATM   22  C12 UNL     1      46.695  55.014  40.376  1.00  0.00     0.000 C 
HETATM   23  C13 UNL     1      46.198  53.703  39.844  1.00  0.00     0.006 C 
ENDBRANCH  17  18
ENDBRANCH  15  17
ENDBRANCH  12  15
ENDBRANCH   5   7
ENDBRANCH   1   3
BRANCH   1  24
HETATM   24  C14 UNL     1      43.386  45.656  40.123  1.00  0.00     0.121 C 
BRANCH  24  25
HETATM   25  C15 UNL     1      44.707  45.943  39.490  1.00  0.00     0.021 C 
BRANCH  25  26
HETATM   26  C16 UNL     1      45.682  46.585  40.374  1.00  0.00     0.020 C 
BRANCH  26  27
HETATM   27  C17 UNL     1      46.035  48.006  40.251  1.00  0.00     0.034 C 
HETATM   28  C18 UNL     1      47.365  48.472  40.692  1.00  0.00     0.025 C 
HETATM   29  C19 UNL     1      45.832  48.428  38.782  1.00  0.00     0.025 C 
BRANCH  27  30
HETATM   30  C20 UNL     1      44.991  48.779  41.036  1.00  0.00     0.226 C 
HETATM   31  O1  UNL     1      43.922  49.141  40.490  1.00  0.00    -0.273 OA
HETATM   32  N6  UNL     1      45.234  49.087  42.392  1.00  0.00    -0.355 N 
ATOM     33  H6  UNL     1      46.109  48.784  42.819  1.00  0.00     0.162 HD
BRANCH  32  34
HETATM   34  C21 UNL     1      44.252  49.841  43.215  1.00  0.00     0.093 C 
BRANCH  34  35
HETATM   35  C22 UNL     1      44.229  49.125  44.515  1.00  0.00     0.045 C 
BRANCH  35  36
HETATM   36  C23 UNL     1      44.957  47.841  44.625  1.00  0.00     0.126 C 
BRANCH  36  37
HETATM   37  N7  UNL     1      44.148  46.923  45.440  1.00  0.00    -0.345 N 
HETATM   38  C24 UNL     1      44.770  46.094  46.414  1.00  0.00     0.328 C 
HETATM   39  N8  UNL     1      44.000  45.205  47.207  1.00  0.00    -0.040 NA
HETATM   40  O2  UNL     1      46.007  46.126  46.599  1.00  0.00    -0.251 OA
ATOM     41  H7  UNL     1      43.137  46.880  45.306  1.00  0.00     0.163 HD
ENDBRANCH  36  37
ENDBRANCH  35  36
ENDBRANCH  34  35
BRANCH  34  42
HETATM   42  C25 UNL     1      44.770  51.242  43.223  1.00  0.00    -0.031 C 
HETATM   43  C26 UNL     1      44.930  51.873  44.574  1.00  0.00     0.016 C 
HETATM   44  C27 UNL     1      46.108  51.364  42.520  1.00  0.00     0.016 C 
HETATM   45  C28 UNL     1      43.806  52.129  42.417  1.00  0.00     0.016 C 
ENDBRANCH  34  42
ENDBRANCH  32  34
ENDBRANCH  27  30
ENDBRANCH  26  27
ENDBRANCH  25  26
ENDBRANCH  24  25
ENDBRANCH   1  24
TORSDOF 15
ENDMDL
MODEL 4
REMARK VINA RESULT: -8.782775013      4.257     12.694
REMARK  15 active torsions:
REMARK  status: ('A' for Active; 'I' for Inactive)
REMARK    1  A    between atoms: C2_2  and  N5_22 
REMARK    2  A    between atoms: N1_3  and  C3_5 
REMARK    3  A    between atoms: C6_10  and  N3_11 
REMARK    4  A    between atoms: N3_11  and  C7_13 
REMARK    5  A    between atoms: C7_13  and  C8_14 
REMARK    6  A    between atoms: N5_22  and  C14_24 
REMARK    7  A    between atoms: C14_24  and  C15_25 
REMARK    8  A    between atoms: C15_25  and  C16_26 
REMARK    9  A    between atoms: C16_26  and  C17_27 
REMARK   10  A    between atoms: C17_27  and  C20_30 
REMARK       I    between atoms: C20_30  and  N6_32 
REMARK   11  A    between atoms: N6_32  and  C21_34 
REMARK   12  A    between atoms: C21_34  and  C22_35 
REMARK   13  A    between atoms: C21_34  and  C25_42 
REMARK   14  A    between atoms: C22_35  and  C23_36 
REMARK   15  A    between atoms: C23_36  and  N7_37 
REMARK       I    between atoms: N7_37  and  C24_39 
ROOT
HETATM    1  N5  UNL     1      44.296  46.552  45.600  1.00  0.00    -0.380 N 
ATOM      2  H5  UNL     1      43.303  46.397  45.426  1.00  0.00     0.160 HD
ENDROOT
BRANCH   1   3
HETATM    3  C2  UNL     1      44.919  46.112  46.789  1.00  0.00     0.089 C 
HETATM    4  C1  UNL     1      44.142  45.396  47.818  1.00  0.00     0.089 C 
HETATM    5  N1  UNL     1      46.163  46.342  46.965  1.00  0.00    -0.181 N 
ATOM      6  H1  UNL     1      46.700  46.836  46.252  1.00  0.00     0.185 HD
BRANCH   5   7
HETATM    7  C3  UNL     1      46.790  45.903  48.158  1.00  0.00     0.684 A 
HETATM    8  N2  UNL     1      47.152  44.625  48.354  1.00  0.00    -0.202 N 
HETATM    9  C4  UNL     1      47.757  44.239  49.509  1.00  0.00     0.110 A 
ATOM     10  H2  UNL     1      46.971  43.933  47.626  1.00  0.00     0.183 HD
HETATM   11  C5  UNL     1      47.995  45.185  50.480  1.00  0.00     0.066 A 
HETATM   12  C6  UNL     1      47.628  46.521  50.299  1.00  0.00     0.118 A 
HETATM   13  N4  UNL     1      47.036  46.810  49.129  1.00  0.00    -0.177 N 
ATOM     14  H4  UNL     1      46.755  47.776  48.963  1.00  0.00     0.186 HD
BRANCH  12  15
HETATM   15  N3  UNL     1      47.872  47.374  51.233  1.00  0.00    -0.376 N 
ATOM     16  H3  UNL     1      47.702  48.362  51.040  1.00  0.00     0.161 HD
BRANCH  15  17
HETATM   17  C7  UNL     1      48.368  47.014  52.528  1.00  0.00     0.126 C 
BRANCH  17  18
HETATM   18  C8  UNL     1      49.842  47.387  52.707  1.00  0.00     0.003 C 
HETATM   19  C9  UNL     1      50.013  48.460  53.735  1.00  0.00     0.006 C 
HETATM   20  C10 UNL     1      50.736  47.930  54.968  1.00  0.00     0.000 C 
HETATM   21  C11 UNL     1      52.113  47.475  54.515  1.00  0.00     0.000 C 
HETATM   22  C12 UNL     1      51.984  46.356  53.522  1.00  0.00     0.000 C 
HETATM   23  C13 UNL     1      50.576  46.118  53.061  1.00  0.00     0.006 C 
ENDBRANCH  17  18
ENDBRANCH  15  17
ENDBRANCH  12  15
ENDBRANCH   5   7
ENDBRANCH   1   3
BRANCH   1  24
HETATM   24  C14 UNL     1      45.161  47.248  44.616  1.00  0.00     0.121 C 
BRANCH  24  25
HETATM   25  C15 UNL     1      44.451  47.334  43.306  1.00  0.00     0.021 C 
BRANCH  25  26
HETATM   26  C16 UNL     1      45.262  46.959  42.145  1.00  0.00     0.020 C 
BRANCH  26  27
HETATM   27  C17 UNL     1      45.842  47.959  41.238  1.00  0.00     0.034 C 
HETATM   28  C18 UNL     1      46.792  48.960  41.762  1.00  0.00     0.025 C 
HETATM   29  C19 UNL     1      46.512  47.216  40.066  1.00  0.00     0.025 C 
BRANCH  27  30
HETATM   30  C20 UNL     1      44.675  48.709  40.621  1.00  0.00     0.226 C 
HETATM   31  O1  UNL     1      44.382  49.863  41.013  1.00  0.00    -0.273 OA
HETATM   32  N6  UNL     1      43.921  48.094  39.599  1.00  0.00    -0.355 N 
ATOM     33  H6  UNL     1      44.175  47.155  39.294  1.00  0.00     0.162 HD
BRANCH  32  34
HETATM   34  C21 UNL     1      42.768  48.775  38.955  1.00  0.00     0.093 C 
BRANCH  34  35
HETATM   35  C22 UNL     1      43.310  49.294  37.674  1.00  0.00     0.045 C 
BRANCH  35  36
HETATM   36  C23 UNL     1      43.179  50.740  37.388  1.00  0.00     0.126 C 
BRANCH  36  37
HETATM   37  N7  UNL     1      43.792  51.485  38.499  1.00  0.00    -0.345 N 
HETATM   38  C24 UNL     1      45.110  52.003  38.370  1.00  0.00     0.328 C 
HETATM   39  N8  UNL     1      45.712  52.723  39.434  1.00  0.00    -0.040 NA
HETATM   40  O2  UNL     1      45.772  51.839  37.322  1.00  0.00    -0.251 OA
ATOM     41  H7  UNL     1      43.270  51.630  39.363  1.00  0.00     0.163 HD
ENDBRANCH  36  37
ENDBRANCH  35  36
ENDBRANCH  34  35
BRANCH  34  42
HETATM   42  C25 UNL     1      41.714  47.721  38.866  1.00  0.00    -0.031 C 
HETATM   43  C26 UNL     1      41.114  47.507  37.509  1.00  0.00     0.016 C 
HETATM   44  C27 UNL     1      42.211  46.369  39.344  1.00  0.00     0.016 C 
HETATM   45  C28 UNL     1      40.565  48.090  39.819  1.00  0.00     0.016 C 
ENDBRANCH  34  42
ENDBRANCH  32  34
ENDBRANCH  27  30
ENDBRANCH  26  27
ENDBRANCH  25  26
ENDBRANCH  24  25
ENDBRANCH   1  24
TORSDOF 15
ENDMDL
MODEL 5
REMARK VINA RESULT: -8.749141637      4.019     12.111
REMARK  15 active torsions:
REMARK  status: ('A' for Active; 'I' for Inactive)
REMARK    1  A    between atoms: C2_2  and  N5_22 
REMARK    2  A    between atoms: N1_3  and  C3_5 
REMARK    3  A    between atoms: C6_10  and  N3_11 
REMARK    4  A    between atoms: N3_11  and  C7_13 
REMARK    5  A    between atoms: C7_13  and  C8_14 
REMARK    6  A    between atoms: N5_22  and  C14_24 
REMARK    7  A    between atoms: C14_24  and  C15_25 
REMARK    8  A    between atoms: C15_25  and  C16_26 
REMARK    9  A    between atoms: C16_26  and  C17_27 
REMARK   10  A    between atoms: C17_27  and  C20_30 
REMARK       I    between atoms: C20_30  and  N6_32 
REMARK   11  A    between atoms: N6_32  and  C21_34 
REMARK   12  A    between atoms: C21_34  and  C22_35 
REMARK   13  A    between atoms: C21_34  and  C25_42 
REMARK   14  A    between atoms: C22_35  and  C23_36 
REMARK   15  A    between atoms: C23_36  and  N7_37 
REMARK       I    between atoms: N7_37  and  C24_39 
ROOT
HETATM    1  N5  UNL     1      44.296  46.508  45.492  1.00  0.00    -0.380 N 
ATOM      2  H5  UNL     1      43.500  46.008  45.097  1.00  0.00     0.160 HD
ENDROOT
BRANCH   1   3
HETATM    3  C2  UNL     1      44.882  46.122  46.719  1.00  0.00     0.089 C 
HETATM    4  C1  UNL     1      44.068  45.467  47.760  1.00  0.00     0.089 C 
HETATM    5  N1  UNL     1      46.122  46.348  46.917  1.00  0.00    -0.181 N 
ATOM      6  H1  UNL     1      46.685  46.800  46.195  1.00  0.00     0.185 HD
BRANCH   5   7
HETATM    7  C3  UNL     1      46.712  45.963  48.147  1.00  0.00     0.684 A 
HETATM    8  N2  UNL     1      47.077  46.856  49.081  1.00  0.00    -0.202 N 
HETATM    9  C4  UNL     1      47.637  46.453  50.253  1.00  0.00     0.110 A 
ATOM     10  H2  UNL     1      46.934  47.852  48.909  1.00  0.00     0.183 HD
HETATM   11  C5  UNL     1      47.823  45.107  50.469  1.00  0.00     0.066 A 
HETATM   12  C6  UNL     1      47.451  44.158  49.513  1.00  0.00     0.118 A 
HETATM   13  N4  UNL     1      46.908  44.647  48.387  1.00  0.00    -0.177 N 
ATOM     14  H4  UNL     1      46.624  43.984  47.667  1.00  0.00     0.186 HD
BRANCH  12  15
HETATM   15  N3  UNL     1      47.641  42.908  49.757  1.00  0.00    -0.376 N 
ATOM     16  H3  UNL     1      48.447  42.450  49.329  1.00  0.00     0.161 HD
BRANCH  15  17
HETATM   17  C7  UNL     1      46.785  42.124  50.596  1.00  0.00     0.126 C 
BRANCH  17  18
HETATM   18  C8  UNL     1      45.439  41.823  49.930  1.00  0.00     0.003 C 
HETATM   19  C9  UNL     1      45.160  40.354  49.901  1.00  0.00     0.006 C 
HETATM   20  C10 UNL     1      43.983  39.999  50.802  1.00  0.00     0.000 C 
HETATM   21  C11 UNL     1      42.768  40.730  50.257  1.00  0.00     0.000 C 
HETATM   22  C12 UNL     1      42.988  42.214  50.323  1.00  0.00     0.000 C 
HETATM   23  C13 UNL     1      44.391  42.601  50.687  1.00  0.00     0.006 C 
ENDBRANCH  17  18
ENDBRANCH  15  17
ENDBRANCH  12  15
ENDBRANCH   5   7
ENDBRANCH   1   3
BRANCH   1  24
HETATM   24  C14 UNL     1      44.900  47.677  44.806  1.00  0.00     0.121 C 
BRANCH  24  25
HETATM   25  C15 UNL     1      45.824  47.200  43.736  1.00  0.00     0.021 C 
BRANCH  25  26
HETATM   26  C16 UNL     1      45.234  47.146  42.397  1.00  0.00     0.020 C 
BRANCH  26  27
HETATM   27  C17 UNL     1      45.811  47.869  41.256  1.00  0.00     0.034 C 
HETATM   28  C18 UNL     1      46.937  48.800  41.471  1.00  0.00     0.025 C 
HETATM   29  C19 UNL     1      46.227  46.836  40.191  1.00  0.00     0.025 C 
BRANCH  27  30
HETATM   30  C20 UNL     1      44.676  48.656  40.626  1.00  0.00     0.226 C 
HETATM   31  O1  UNL     1      44.412  49.818  41.019  1.00  0.00    -0.273 OA
HETATM   32  N6  UNL     1      43.917  48.068  39.592  1.00  0.00    -0.355 N 
ATOM     33  H6  UNL     1      44.146  47.123  39.286  1.00  0.00     0.162 HD
BRANCH  32  34
HETATM   34  C21 UNL     1      42.793  48.787  38.935  1.00  0.00     0.093 C 
BRANCH  34  35
HETATM   35  C22 UNL     1      43.381  49.336  37.688  1.00  0.00     0.045 C 
BRANCH  35  36
HETATM   36  C23 UNL     1      43.221  50.781  37.411  1.00  0.00     0.126 C 
BRANCH  36  37
HETATM   37  N7  UNL     1      43.832  51.531  38.520  1.00  0.00    -0.345 N 
HETATM   38  C24 UNL     1      45.143  52.065  38.384  1.00  0.00     0.328 C 
HETATM   39  N8  UNL     1      45.742  52.790  39.446  1.00  0.00    -0.040 NA
HETATM   40  O2  UNL     1      45.801  51.912  37.332  1.00  0.00    -0.251 OA
ATOM     41  H7  UNL     1      43.314  51.668  39.388  1.00  0.00     0.163 HD
ENDBRANCH  36  37
ENDBRANCH  35  36
ENDBRANCH  34  35
BRANCH  34  42
HETATM   42  C25 UNL     1      41.728  47.752  38.783  1.00  0.00    -0.031 C 
HETATM   43  C26 UNL     1      41.137  47.617  37.411  1.00  0.00     0.016 C 
HETATM   44  C27 UNL     1      42.204  46.371  39.193  1.00  0.00     0.016 C 
HETATM   45  C28 UNL     1      40.575  48.084  39.745  1.00  0.00     0.016 C 
ENDBRANCH  34  42
ENDBRANCH  32  34
ENDBRANCH  27  30
ENDBRANCH  26  27
ENDBRANCH  25  26
ENDBRANCH  24  25
ENDBRANCH   1  24
TORSDOF 15
ENDMDL
