MODEL 1
REMARK VINA RESULT: -9.618330859      0.000      0.000
REMARK  13 active torsions:
REMARK  status: ('A' for Active; 'I' for Inactive)
REMARK    1  A    between atoms: C2_2  and  C5_5 
REMARK    2  A    between atoms: C5_5  and  C6_6 
REMARK    3  A    between atoms: C5_5  and  N4_32 
REMARK    4  A    between atoms: C6_6  and  N1_7 
REMARK       I    between atoms: N1_7  and  C7_9 
REMARK    5  A    between atoms: C7_9  and  C8_11 
REMARK    6  A    between atoms: C8_11  and  C9_12 
REMARK    7  A    between atoms: C8_11  and  N2_19 
REMARK    8  A    between atoms: C9_12  and  C10_13 
REMARK       I    between atoms: N2_19  and  C16_21 
REMARK    9  A    between atoms: C16_21  and  C17_23 
REMARK   10  A    between atoms: C17_23  and  N3_24 
REMARK   11  A    between atoms: C17_23  and  C18_28 
REMARK   12  A    between atoms: C18_28  and  C19_29 
REMARK       I    between atoms: N4_32  and  C20_34 
REMARK       I    between atoms: C20_34  and  N5_36 
REMARK   13  A    between atoms: C21_38  and  C22_40 
ROOT
HETATM    1  N1  UNL     1      45.268  50.670  43.116  1.00  0.00    -0.357 N 
ATOM      2  H1  UNL     1      46.190  50.399  42.775  1.00  0.00     0.162 HD
HETATM    3  C7  UNL     1      44.400  49.658  43.536  1.00  0.00     0.240 C 
HETATM    4  O1  UNL     1      43.263  49.983  43.960  1.00  0.00    -0.271 OA
ENDROOT
BRANCH   3   5
HETATM    5  C8  UNL     1      44.711  48.185  43.527  1.00  0.00     0.177 C 
BRANCH   5   6
HETATM    6  C9  UNL     1      45.844  47.931  42.634  1.00  0.00     0.039 C 
BRANCH   6   7
HETATM    7  C10 UNL     1      45.866  46.753  41.736  1.00  0.00    -0.012 C 
HETATM    8  C11 UNL     1      44.380  46.672  41.206  1.00  0.00     0.005 C 
HETATM    9  C12 UNL     1      44.395  45.775  40.012  1.00  0.00     0.000 C 
HETATM   10  C13 UNL     1      44.885  46.613  38.838  1.00  0.00     0.000 C 
HETATM   11  C14 UNL     1      46.013  47.487  39.350  1.00  0.00     0.000 C 
HETATM   12  C15 UNL     1      46.724  46.797  40.520  1.00  0.00     0.005 C 
ENDBRANCH   6   7
ENDBRANCH   5   6
BRANCH   5  13
HETATM   13  N2  UNL     1      44.976  47.882  44.915  1.00  0.00    -0.346 N 
HETATM   14  C16 UNL     1      44.859  46.583  45.475  1.00  0.00     0.249 C 
HETATM   15  O2  UNL     1      44.502  45.601  44.741  1.00  0.00    -0.271 OA
ATOM     16  H2  UNL     1      45.263  48.646  45.527  1.00  0.00     0.163 HD
BRANCH  14  17
HETATM   17  C17 UNL     1      45.156  46.392  46.914  1.00  0.00     0.284 C 
BRANCH  17  18
HETATM   18  N3  UNL     1      46.444  45.752  47.061  1.00  0.00    -0.066 N 
ATOM     19  H33 UNL     1      46.542  44.939  46.454  1.00  0.00     0.275 HD
ATOM     20  H32 UNL     1      47.200  46.317  46.674  1.00  0.00     0.275 HD
ATOM     21  H31 UNL     1      46.600  45.520  48.043  1.00  0.00     0.275 HD
ENDBRANCH  17  18
BRANCH  17  22
HETATM   22  C18 UNL     1      44.100  45.595  47.635  1.00  0.00     0.155 C 
BRANCH  22  23
HETATM   23  C19 UNL     1      44.717  44.357  48.160  1.00  0.00     0.175 C 
HETATM   24  O3  UNL     1      44.743  43.368  47.383  1.00  0.00    -0.648 OA
HETATM   25  O4  UNL     1      45.222  44.333  49.435  1.00  0.00    -0.648 OA
ENDBRANCH  22  23
ENDBRANCH  17  22
ENDBRANCH  14  17
ENDBRANCH   5  13
ENDBRANCH   3   5
BRANCH   1  26
HETATM   26  C6  UNL     1      44.942  52.050  43.136  1.00  0.00     0.148 C 
BRANCH  26  27
HETATM   27  C5  UNL     1      45.218  52.903  41.957  1.00  0.00     0.111 C 
BRANCH  27  28
HETATM   28  C2  UNL     1      46.568  53.445  41.820  1.00  0.00    -0.029 C 
HETATM   29  C1  UNL     1      46.605  54.716  40.951  1.00  0.00     0.016 C 
HETATM   30  C3  UNL     1      47.184  53.895  43.138  1.00  0.00     0.016 C 
HETATM   31  C4  UNL     1      47.526  52.443  41.244  1.00  0.00     0.016 C 
ENDBRANCH  27  28
BRANCH  27  32
HETATM   32  N4  UNL     1      44.766  52.105  40.821  1.00  0.00    -0.336 N 
HETATM   33  C20 UNL     1      43.910  52.503  39.817  1.00  0.00     0.321 C 
HETATM   34  O5  UNL     1      43.435  53.670  39.830  1.00  0.00    -0.247 OA
HETATM   35  N5  UNL     1      43.540  51.655  38.770  1.00  0.00    -0.300 N 
HETATM   36  C21 UNL     1      43.259  50.429  38.774  1.00  0.00     0.101 C 
ATOM     37  H5  UNL     1      43.488  52.102  37.855  1.00  0.00     0.171 HD
HETATM   38  N6  UNL     1      43.289  49.689  39.981  1.00  0.00    -0.087 NA
ATOM     39  H4  UNL     1      45.122  51.151  40.764  1.00  0.00     0.164 HD
BRANCH  36  40
HETATM   40  C22 UNL     1      42.892  49.669  37.520  1.00  0.00     0.051 C 
HETATM   41  C23 UNL     1      42.142  48.449  37.917  1.00  0.00     0.012 C 
HETATM   42  C24 UNL     1      41.266  47.846  36.875  1.00  0.00     0.001 C 
HETATM   43  C25 UNL     1      41.072  48.720  35.659  1.00  0.00     0.000 C 
HETATM   44  C26 UNL     1      40.815  50.119  36.184  1.00  0.00     0.001 C 
HETATM   45  C27 UNL     1      42.166  50.623  36.640  1.00  0.00     0.012 C 
ENDBRANCH  36  40
ENDBRANCH  27  32
ENDBRANCH  26  27
ENDBRANCH   1  26
TORSDOF 13
ENDMDL
MODEL 2
REMARK VINA RESULT: -9.371037754      8.031     15.011
REMARK  13 active torsions:
REMARK  status: ('A' for Active; 'I' for Inactive)
REMARK    1  A    between atoms: C2_2  and  C5_5 
REMARK    2  A    between atoms: C5_5  and  C6_6 
REMARK    3  A    between atoms: C5_5  and  N4_32 
REMARK    4  A    between atoms: C6_6  and  N1_7 
REMARK       I    between atoms: N1_7  and  C7_9 
REMARK    5  A    between atoms: C7_9  and  C8_11 
REMARK    6  A    between atoms: C8_11  and  C9_12 
REMARK    7  A    between atoms: C8_11  and  N2_19 
REMARK    8  A    between atoms: C9_12  and  C10_13 
REMARK       I    between atoms: N2_19  and  C16_21 
REMARK    9  A    between atoms: C16_21  and  C17_23 
REMARK   10  A    between atoms: C17_23  and  N3_24 
REMARK   11  A    between atoms: C17_23  and  C18_28 
REMARK   12  A    between atoms: C18_28  and  C19_29 
REMARK       I    between atoms: N4_32  and  C20_34 
REMARK       I    between atoms: C20_34  and  N5_36 
REMARK   13  A    between atoms: C21_38  and  C22_40 
ROOT
HETATM    1  N1  UNL     1      44.084  40.915  49.861  1.00  0.00    -0.357 N 
ATOM      2  H1  UNL     1      43.212  41.296  50.227  1.00  0.00     0.162 HD
HETATM    3  C7  UNL     1      45.255  41.653  50.052  1.00  0.00     0.240 C 
HETATM    4  O1  UNL     1      46.334  41.190  49.607  1.00  0.00    -0.271 OA
ENDROOT
BRANCH   3   5
HETATM    5  C8  UNL     1      45.342  42.980  50.758  1.00  0.00     0.177 C 
BRANCH   5   6
HETATM    6  C9  UNL     1      46.383  42.919  51.786  1.00  0.00     0.039 C 
BRANCH   6   7
HETATM    7  C10 UNL     1      46.070  43.162  53.213  1.00  0.00    -0.012 C 
HETATM    8  C11 UNL     1      47.494  43.187  53.898  1.00  0.00     0.005 C 
HETATM    9  C12 UNL     1      47.315  43.807  55.245  1.00  0.00     0.000 C 
HETATM   10  C13 UNL     1      47.268  45.315  55.033  1.00  0.00     0.000 C 
HETATM   11  C14 UNL     1      46.446  45.567  53.785  1.00  0.00     0.000 C 
HETATM   12  C15 UNL     1      45.419  44.446  53.595  1.00  0.00     0.005 C 
ENDBRANCH   6   7
ENDBRANCH   5   6
BRANCH   5  13
HETATM   13  N2  UNL     1      45.620  43.917  49.693  1.00  0.00    -0.346 N 
HETATM   14  C16 UNL     1      44.621  44.678  49.031  1.00  0.00     0.249 C 
HETATM   15  O2  UNL     1      43.396  44.556  49.371  1.00  0.00    -0.271 OA
ATOM     16  H2  UNL     1      46.589  44.037  49.399  1.00  0.00     0.163 HD
BRANCH  14  17
HETATM   17  C17 UNL     1      45.024  45.608  47.951  1.00  0.00     0.284 C 
BRANCH  17  18
HETATM   18  N3  UNL     1      45.193  44.872  46.718  1.00  0.00    -0.066 N 
ATOM     19  H33 UNL     1      45.924  45.271  46.129  1.00  0.00     0.275 HD
ATOM     20  H32 UNL     1      45.613  43.955  46.872  1.00  0.00     0.275 HD
ATOM     21  H31 UNL     1      44.299  44.810  46.232  1.00  0.00     0.275 HD
ENDBRANCH  17  18
BRANCH  17  22
HETATM   22  C18 UNL     1      46.280  46.376  48.269  1.00  0.00     0.155 C 
BRANCH  22  23
HETATM   23  C19 UNL     1      47.225  46.227  47.140  1.00  0.00     0.175 C 
HETATM   24  O3  UNL     1      48.219  45.481  47.333  1.00  0.00    -0.648 OA
HETATM   25  O4  UNL     1      46.991  46.888  45.962  1.00  0.00    -0.648 OA
ENDBRANCH  22  23
ENDBRANCH  17  22
ENDBRANCH  14  17
ENDBRANCH   5  13
ENDBRANCH   3   5
BRANCH   1  26
HETATM   26  C6  UNL     1      44.037  39.667  49.189  1.00  0.00     0.148 C 
BRANCH  26  27
HETATM   27  C5  UNL     1      44.162  38.401  49.947  1.00  0.00     0.111 C 
BRANCH  27  28
HETATM   28  C2  UNL     1      45.230  37.484  49.556  1.00  0.00    -0.029 C 
HETATM   29  C1  UNL     1      44.838  36.008  49.747  1.00  0.00     0.016 C 
HETATM   30  C3  UNL     1      45.599  37.568  48.081  1.00  0.00     0.016 C 
HETATM   31  C4  UNL     1      46.504  37.743  50.309  1.00  0.00     0.016 C 
ENDBRANCH  27  28
BRANCH  27  32
HETATM   32  N4  UNL     1      44.203  38.820  51.344  1.00  0.00    -0.336 N 
HETATM   33  C20 UNL     1      43.489  38.281  52.392  1.00  0.00     0.321 C 
HETATM   34  O5  UNL     1      42.700  37.322  52.180  1.00  0.00    -0.247 OA
HETATM   35  N5  UNL     1      43.603  38.761  53.701  1.00  0.00    -0.300 N 
HETATM   36  C21 UNL     1      43.700  39.938  54.132  1.00  0.00     0.101 C 
ATOM     37  H5  UNL     1      43.609  38.039  54.422  1.00  0.00     0.171 HD
HETATM   38  N6  UNL     1      43.702  41.034  53.235  1.00  0.00    -0.087 NA
ATOM     39  H4  UNL     1      44.827  39.594  51.569  1.00  0.00     0.164 HD
BRANCH  36  40
HETATM   40  C22 UNL     1      43.833  40.264  55.602  1.00  0.00     0.051 C 
HETATM   41  C23 UNL     1      45.270  40.180  55.970  1.00  0.00     0.012 C 
HETATM   42  C24 UNL     1      45.684  40.934  57.185  1.00  0.00     0.001 C 
HETATM   43  C25 UNL     1      44.629  41.883  57.704  1.00  0.00     0.000 C 
HETATM   44  C26 UNL     1      44.073  42.599  56.489  1.00  0.00     0.001 C 
HETATM   45  C27 UNL     1      43.183  41.585  55.807  1.00  0.00     0.012 C 
ENDBRANCH  36  40
ENDBRANCH  27  32
ENDBRANCH  26  27
ENDBRANCH   1  26
TORSDOF 13
ENDMDL
MODEL 3
REMARK VINA RESULT: -9.349430304      6.459     14.702
REMARK  13 active torsions:
REMARK  status: ('A' for Active; 'I' for Inactive)
REMARK    1  A    between atoms: C2_2  and  C5_5 
REMARK    2  A    between atoms: C5_5  and  C6_6 
REMARK    3  A    between atoms: C5_5  and  N4_32 
REMARK    4  A    between atoms: C6_6  and  N1_7 
REMARK       I    between atoms: N1_7  and  C7_9 
REMARK    5  A    between atoms: C7_9  and  C8_11 
REMARK    6  A    between atoms: C8_11  and  C9_12 
REMARK    7  A    between atoms: C8_11  and  N2_19 
REMARK    8  A    between atoms: C9_12  and  C10_13 
REMARK       I    between atoms: N2_19  and  C16_21 
REMARK    9  A    between atoms: C16_21  and  C17_23 
REMARK   10  A    between atoms: C17_23  and  N3_24 
REMARK   11  A    between atoms: C17_23  and  C18_28 
REMARK   12  A    between atoms: C18_28  and  C19_29 
REMARK       I    between atoms: N4_32  and  C20_34 
REMARK       I    between atoms: C20_34  and  N5_36 
REMARK   13  A    between atoms: C21_38  and  C22_40 
ROOT
HETATM    1  N1  UNL     1      44.033  40.947  49.536  1.00  0.00    -0.357 N 
ATOM      2  H1  UNL     1      43.238  41.281  50.081  1.00  0.00     0.162 HD
HETATM    3  C7  UNL     1      45.164  41.764  49.456  1.00  0.00     0.240 C 
HETATM    4  O1  UNL     1      46.148  41.358  48.790  1.00  0.00    -0.271 OA
ENDROOT
BRANCH   3   5
HETATM    5  C8  UNL     1      45.312  43.112  50.110  1.00  0.00     0.177 C 
BRANCH   5   6
HETATM    6  C9  UNL     1      46.210  43.000  51.261  1.00  0.00     0.039 C 
BRANCH   6   7
HETATM    7  C10 UNL     1      46.641  44.198  52.019  1.00  0.00    -0.012 C 
HETATM    8  C11 UNL     1      45.452  44.434  53.033  1.00  0.00     0.005 C 
HETATM    9  C12 UNL     1      45.961  45.362  54.087  1.00  0.00     0.000 C 
HETATM   10  C13 UNL     1      46.772  44.517  55.062  1.00  0.00     0.000 C 
HETATM   11  C14 UNL     1      47.572  43.527  54.241  1.00  0.00     0.000 C 
HETATM   12  C15 UNL     1      47.870  44.111  52.855  1.00  0.00     0.005 C 
ENDBRANCH   6   7
ENDBRANCH   5   6
BRANCH   5  13
HETATM   13  N2  UNL     1      45.817  43.953  49.048  1.00  0.00    -0.346 N 
HETATM   14  C16 UNL     1      45.000  44.806  48.261  1.00  0.00     0.249 C 
HETATM   15  O2  UNL     1      43.742  44.859  48.474  1.00  0.00    -0.271 OA
ATOM     16  H2  UNL     1      46.818  43.932  48.854  1.00  0.00     0.163 HD
BRANCH  14  17
HETATM   17  C17 UNL     1      45.629  45.623  47.197  1.00  0.00     0.284 C 
BRANCH  17  18
HETATM   18  N3  UNL     1      46.346  46.727  47.796  1.00  0.00    -0.066 N 
ATOM     19  H33 UNL     1      46.050  46.902  48.756  1.00  0.00     0.275 HD
ATOM     20  H32 UNL     1      47.322  46.495  47.984  1.00  0.00     0.275 HD
ATOM     21  H31 UNL     1      46.252  47.554  47.207  1.00  0.00     0.275 HD
ENDBRANCH  17  18
BRANCH  17  22
HETATM   22  C18 UNL     1      44.640  46.140  46.185  1.00  0.00     0.155 C 
BRANCH  22  23
HETATM   23  C19 UNL     1      45.294  47.194  45.380  1.00  0.00     0.175 C 
HETATM   24  O3  UNL     1      44.724  48.315  45.352  1.00  0.00    -0.648 OA
HETATM   25  O4  UNL     1      46.461  46.920  44.713  1.00  0.00    -0.648 OA
ENDBRANCH  22  23
ENDBRANCH  17  22
ENDBRANCH  14  17
ENDBRANCH   5  13
ENDBRANCH   3   5
BRANCH   1  26
HETATM   26  C6  UNL     1      43.925  39.681  48.906  1.00  0.00     0.148 C 
BRANCH  26  27
HETATM   27  C5  UNL     1      44.175  38.438  49.671  1.00  0.00     0.111 C 
BRANCH  27  28
HETATM   28  C2  UNL     1      45.286  37.594  49.240  1.00  0.00    -0.029 C 
HETATM   29  C1  UNL     1      46.587  37.899  50.003  1.00  0.00     0.016 C 
HETATM   30  C3  UNL     1      45.062  36.109  49.494  1.00  0.00     0.016 C 
HETATM   31  C4  UNL     1      45.555  37.718  47.768  1.00  0.00     0.016 C 
ENDBRANCH  27  28
BRANCH  27  32
HETATM   32  N4  UNL     1      44.251  38.879  51.060  1.00  0.00    -0.336 N 
HETATM   33  C20 UNL     1      43.559  38.360  52.133  1.00  0.00     0.321 C 
HETATM   34  O5  UNL     1      42.760  37.402  51.955  1.00  0.00    -0.247 OA
HETATM   35  N5  UNL     1      43.706  38.860  53.431  1.00  0.00    -0.300 N 
HETATM   36  C21 UNL     1      43.820  40.044  53.841  1.00  0.00     0.101 C 
ATOM     37  H5  UNL     1      43.725  38.150  54.163  1.00  0.00     0.171 HD
HETATM   38  N6  UNL     1      43.806  41.125  52.927  1.00  0.00    -0.087 NA
ATOM     39  H4  UNL     1      44.884  39.653  51.258  1.00  0.00     0.164 HD
BRANCH  36  40
HETATM   40  C22 UNL     1      43.989  40.391  55.302  1.00  0.00     0.051 C 
HETATM   41  C23 UNL     1      45.441  40.526  55.584  1.00  0.00     0.012 C 
HETATM   42  C24 UNL     1      45.808  41.339  56.777  1.00  0.00     0.001 C 
HETATM   43  C25 UNL     1      44.655  42.120  57.361  1.00  0.00     0.000 C 
HETATM   44  C26 UNL     1      43.927  42.740  56.185  1.00  0.00     0.001 C 
HETATM   45  C27 UNL     1      43.160  41.601  55.551  1.00  0.00     0.012 C 
ENDBRANCH  36  40
ENDBRANCH  27  32
ENDBRANCH  26  27
ENDBRANCH   1  26
TORSDOF 13
ENDMDL
MODEL 4
REMARK VINA RESULT: -9.302141576      0.794      1.317
REMARK  13 active torsions:
REMARK  status: ('A' for Active; 'I' for Inactive)
REMARK    1  A    between atoms: C2_2  and  C5_5 
REMARK    2  A    between atoms: C5_5  and  C6_6 
REMARK    3  A    between atoms: C5_5  and  N4_32 
REMARK    4  A    between atoms: C6_6  and  N1_7 
REMARK       I    between atoms: N1_7  and  C7_9 
REMARK    5  A    between atoms: C7_9  and  C8_11 
REMARK    6  A    between atoms: C8_11  and  C9_12 
REMARK    7  A    between atoms: C8_11  and  N2_19 
REMARK    8  A    between atoms: C9_12  and  C10_13 
REMARK       I    between atoms: N2_19  and  C16_21 
REMARK    9  A    between atoms: C16_21  and  C17_23 
REMARK   10  A    between atoms: C17_23  and  N3_24 
REMARK   11  A    between atoms: C17_23  and  C18_28 
REMARK   12  A    between atoms: C18_28  and  C19_29 
REMARK       I    between atoms: N4_32  and  C20_34 
REMARK       I    between atoms: C20_34  and  N5_36 
REMARK   13  A    between atoms: C21_38  and  C22_40 
ROOT
HETATM    1  N1  UNL     1      44.069  50.990  42.873  1.00  0.00    -0.357 N 
ATOM      2  H1  UNL     1      43.736  50.597  41.993  1.00  0.00     0.162 HD
HETATM    3  C7  UNL     1      44.383  50.107  43.909  1.00  0.00     0.240 C 
HETATM    4  O1  UNL     1      44.796  50.582  44.996  1.00  0.00    -0.271 OA
ENDROOT
BRANCH   3   5
HETATM    5  C8  UNL     1      44.268  48.607  43.840  1.00  0.00     0.177 C 
BRANCH   5   6
HETATM    6  C9  UNL     1      45.139  48.100  42.778  1.00  0.00     0.039 C 
BRANCH   6   7
HETATM    7  C10 UNL     1      44.722  48.138  41.357  1.00  0.00    -0.012 C 
HETATM    8  C11 UNL     1      45.985  47.573  40.592  1.00  0.00     0.005 C 
HETATM    9  C12 UNL     1      45.529  47.207  39.217  1.00  0.00     0.000 C 
HETATM   10  C13 UNL     1      44.848  45.848  39.327  1.00  0.00     0.000 C 
HETATM   11  C14 UNL     1      44.025  45.859  40.598  1.00  0.00     0.000 C 
HETATM   12  C15 UNL     1      43.578  47.289  40.924  1.00  0.00     0.005 C 
ENDBRANCH   6   7
ENDBRANCH   5   6
BRANCH   5  13
HETATM   13  N2  UNL     1      44.644  48.173  45.167  1.00  0.00    -0.346 N 
HETATM   14  C16 UNL     1      44.762  46.811  45.546  1.00  0.00     0.249 C 
HETATM   15  O2  UNL     1      44.532  45.888  44.694  1.00  0.00    -0.271 OA
ATOM     16  H2  UNL     1      44.834  48.887  45.869  1.00  0.00     0.163 HD
BRANCH  14  17
HETATM   17  C17 UNL     1      45.153  46.484  46.938  1.00  0.00     0.284 C 
BRANCH  17  18
HETATM   18  N3  UNL     1      46.496  45.947  46.949  1.00  0.00    -0.066 N 
ATOM     19  H33 UNL     1      46.946  46.018  46.037  1.00  0.00     0.275 HD
ATOM     20  H32 UNL     1      47.141  46.535  47.477  1.00  0.00     0.275 HD
ATOM     21  H31 UNL     1      46.477  44.988  47.295  1.00  0.00     0.275 HD
ENDBRANCH  17  18
BRANCH  17  22
HETATM   22  C18 UNL     1      44.208  45.522  47.608  1.00  0.00     0.155 C 
BRANCH  22  23
HETATM   23  C19 UNL     1      44.928  44.257  47.871  1.00  0.00     0.175 C 
HETATM   24  O3  UNL     1      45.049  43.466  46.901  1.00  0.00    -0.648 OA
HETATM   25  O4  UNL     1      45.421  44.000  49.125  1.00  0.00    -0.648 OA
ENDBRANCH  22  23
ENDBRANCH  17  22
ENDBRANCH  14  17
ENDBRANCH   5  13
ENDBRANCH   3   5
BRANCH   1  26
HETATM   26  C6  UNL     1      44.186  52.400  42.973  1.00  0.00     0.148 C 
BRANCH  26  27
HETATM   27  C5  UNL     1      44.856  53.175  41.903  1.00  0.00     0.111 C 
BRANCH  27  28
HETATM   28  C2  UNL     1      46.285  53.434  42.055  1.00  0.00    -0.029 C 
HETATM   29  C1  UNL     1      47.152  52.282  41.516  1.00  0.00     0.016 C 
HETATM   30  C3  UNL     1      46.774  54.646  41.272  1.00  0.00     0.016 C 
HETATM   31  C4  UNL     1      46.667  53.693  43.484  1.00  0.00     0.016 C 
ENDBRANCH  27  28
BRANCH  27  32
HETATM   32  N4  UNL     1      44.492  52.480  40.673  1.00  0.00    -0.336 N 
HETATM   33  C20 UNL     1      43.870  53.021  39.568  1.00  0.00     0.321 C 
HETATM   34  O5  UNL     1      43.558  54.242  39.564  1.00  0.00    -0.247 OA
HETATM   35  N5  UNL     1      43.565  52.261  38.434  1.00  0.00    -0.300 N 
HETATM   36  C21 UNL     1      43.127  51.087  38.334  1.00  0.00     0.101 C 
ATOM     37  H5  UNL     1      43.723  52.737  37.546  1.00  0.00     0.171 HD
HETATM   38  N6  UNL     1      42.863  50.316  39.492  1.00  0.00    -0.087 NA
ATOM     39  H4  UNL     1      44.722  51.488  40.625  1.00  0.00     0.164 HD
BRANCH  36  40
HETATM   40  C22 UNL     1      42.870  50.420  37.002  1.00  0.00     0.051 C 
HETATM   41  C23 UNL     1      43.097  48.961  37.159  1.00  0.00     0.012 C 
HETATM   42  C24 UNL     1      42.429  48.079  36.162  1.00  0.00     0.001 C 
HETATM   43  C25 UNL     1      41.409  48.789  35.305  1.00  0.00     0.000 C 
HETATM   44  C26 UNL     1      40.600  49.659  36.246  1.00  0.00     0.001 C 
HETATM   45  C27 UNL     1      41.503  50.826  36.578  1.00  0.00     0.012 C 
ENDBRANCH  36  40
ENDBRANCH  27  32
ENDBRANCH  26  27
ENDBRANCH   1  26
TORSDOF 13
ENDMDL
MODEL 5
REMARK VINA RESULT: -9.291133648      4.930      9.808
REMARK  13 active torsions:
REMARK  status: ('A' for Active; 'I' for Inactive)
REMARK    1  A    between atoms: C2_2  and  C5_5 
REMARK    2  A    between atoms: C5_5  and  C6_6 
REMARK    3  A    between atoms: C5_5  and  N4_32 
REMARK    4  A    between atoms: C6_6  and  N1_7 
REMARK       I    between atoms: N1_7  and  C7_9 
REMARK    5  A    between atoms: C7_9  and  C8_11 
REMARK    6  A    between atoms: C8_11  and  C9_12 
REMARK    7  A    between atoms: C8_11  and  N2_19 
REMARK    8  A    between atoms: C9_12  and  C10_13 
REMARK       I    between atoms: N2_19  and  C16_21 
REMARK    9  A    between atoms: C16_21  and  C17_23 
REMARK   10  A    between atoms: C17_23  and  N3_24 
REMARK   11  A    between atoms: C17_23  and  C18_28 
REMARK   12  A    between atoms: C18_28  and  C19_29 
REMARK       I    between atoms: N4_32  and  C20_34 
REMARK       I    between atoms: C20_34  and  N5_36 
REMARK   13  A    between atoms: C21_38  and  C22_40 
ROOT
HETATM    1  N1  UNL     1      45.375  42.715  48.010  1.00  0.00    -0.357 N 
ATOM      2  H1  UNL     1      44.425  42.840  47.660  1.00  0.00     0.162 HD
HETATM    3  C7  UNL     1      45.653  41.570  48.761  1.00  0.00     0.240 C 
HETATM    4  O1  UNL     1      46.821  41.408  49.194  1.00  0.00    -0.271 OA
ENDROOT
BRANCH   3   5
HETATM    5  C8  UNL     1      44.660  40.492  49.106  1.00  0.00     0.177 C 
BRANCH   5   6
HETATM    6  C9  UNL     1      45.144  39.204  48.604  1.00  0.00     0.039 C 
BRANCH   6   7
HETATM    7  C10 UNL     1      44.968  37.959  49.387  1.00  0.00    -0.012 C 
HETATM    8  C11 UNL     1      44.889  36.839  48.275  1.00  0.00     0.005 C 
HETATM    9  C12 UNL     1      45.106  35.531  48.962  1.00  0.00     0.000 C 
HETATM   10  C13 UNL     1      46.609  35.383  49.164  1.00  0.00     0.000 C 
HETATM   11  C14 UNL     1      47.143  36.740  49.574  1.00  0.00     0.000 C 
HETATM   12  C15 UNL     1      46.057  37.533  50.309  1.00  0.00     0.005 C 
ENDBRANCH   6   7
ENDBRANCH   5   6
BRANCH   5  13
HETATM   13  N2  UNL     1      44.562  40.564  50.546  1.00  0.00    -0.346 N 
HETATM   14  C16 UNL     1      43.583  41.329  51.233  1.00  0.00     0.249 C 
HETATM   15  O2  UNL     1      42.723  42.005  50.573  1.00  0.00    -0.271 OA
ATOM     16  H2  UNL     1      45.235  40.036  51.101  1.00  0.00     0.163 HD
BRANCH  14  17
HETATM   17  C17 UNL     1      43.580  41.329  52.714  1.00  0.00     0.284 C 
BRANCH  17  18
HETATM   18  N3  UNL     1      44.495  42.337  53.200  1.00  0.00    -0.066 N 
ATOM     19  H33 UNL     1      44.523  43.156  52.594  1.00  0.00     0.275 HD
ATOM     20  H32 UNL     1      44.153  42.792  54.046  1.00  0.00     0.275 HD
ATOM     21  H31 UNL     1      45.419  41.924  53.331  1.00  0.00     0.275 HD
ENDBRANCH  17  18
BRANCH  17  22
HETATM   22  C18 UNL     1      43.928  39.988  53.306  1.00  0.00     0.155 C 
BRANCH  22  23
HETATM   23  C19 UNL     1      43.209  39.836  54.590  1.00  0.00     0.175 C 
HETATM   24  O3  UNL     1      42.913  38.663  54.933  1.00  0.00    -0.648 OA
HETATM   25  O4  UNL     1      42.899  40.945  55.335  1.00  0.00    -0.648 OA
ENDBRANCH  22  23
ENDBRANCH  17  22
ENDBRANCH  14  17
ENDBRANCH   5  13
ENDBRANCH   3   5
BRANCH   1  26
HETATM   26  C6  UNL     1      46.335  43.714  47.706  1.00  0.00     0.148 C 
BRANCH  26  27
HETATM   27  C5  UNL     1      46.288  45.030  48.383  1.00  0.00     0.111 C 
BRANCH  27  28
HETATM   28  C2  UNL     1      47.490  45.466  49.090  1.00  0.00    -0.029 C 
HETATM   29  C1  UNL     1      48.647  45.800  48.132  1.00  0.00     0.016 C 
HETATM   30  C3  UNL     1      47.300  46.751  49.885  1.00  0.00     0.016 C 
HETATM   31  C4  UNL     1      47.968  44.443  50.081  1.00  0.00     0.016 C 
ENDBRANCH  27  28
BRANCH  27  32
HETATM   32  N4  UNL     1      45.824  45.951  47.351  1.00  0.00    -0.336 N 
HETATM   33  C20 UNL     1      44.578  45.977  46.763  1.00  0.00     0.321 C 
HETATM   34  O5  UNL     1      43.705  45.139  47.115  1.00  0.00    -0.247 OA
HETATM   35  N5  UNL     1      44.235  46.908  45.777  1.00  0.00    -0.300 N 
HETATM   36  C21 UNL     1      44.903  47.353  44.809  1.00  0.00     0.101 C 
ATOM     37  H5  UNL     1      43.291  47.286  45.855  1.00  0.00     0.171 HD
HETATM   38  N6  UNL     1      46.229  46.908  44.585  1.00  0.00    -0.087 NA
ATOM     39  H4  UNL     1      46.494  46.650  47.029  1.00  0.00     0.164 HD
BRANCH  36  40
HETATM   40  C22 UNL     1      44.361  48.382  43.844  1.00  0.00     0.051 C 
HETATM   41  C23 UNL     1      44.320  49.695  44.538  1.00  0.00     0.012 C 
HETATM   42  C24 UNL     1      44.313  50.902  43.665  1.00  0.00     0.001 C 
HETATM   43  C25 UNL     1      44.618  50.608  42.215  1.00  0.00     0.000 C 
HETATM   44  C26 UNL     1      45.792  49.650  42.217  1.00  0.00     0.001 C 
HETATM   45  C27 UNL     1      45.210  48.315  42.625  1.00  0.00     0.012 C 
ENDBRANCH  36  40
ENDBRANCH  27  32
ENDBRANCH  26  27
ENDBRANCH   1  26
TORSDOF 13
ENDMDL
