MODEL 1
REMARK VINA RESULT: -5.604292825      0.000      0.000
REMARK  4 active torsions:
REMARK  status: ('A' for Active; 'I' for Inactive)
REMARK    1  A    between atoms: C1_2  and  C2_4 
REMARK    2  A    between atoms: C2_4  and  C3_6 
REMARK    3  A    between atoms: N2_11  and  N3_12 
REMARK    4  A    between atoms: N3_12  and  O3_14 
ROOT
HETATM    1  C3  UNL     1      -5.004   2.769  14.122  1.00  0.00     0.177 C 
HETATM    2  O2  UNL     1      -3.637   2.934  13.940  1.00  0.00    -0.379 OA
HETATM    3  C4  UNL     1      -3.259   4.032  14.702  1.00  0.00     0.175 C 
HETATM    4  C5  UNL     1      -4.445   4.938  14.818  1.00  0.00     0.037 C 
HETATM    5  C6  UNL     1      -4.250   6.196  14.037  1.00  0.00     0.151 C 
HETATM    6  N2  UNL     1      -5.214   6.131  12.939  1.00  0.00    -0.308 N 
HETATM    7  C7  UNL     1      -5.517   4.731  12.735  1.00  0.00     0.152 C 
HETATM    8  C8  UNL     1      -5.548   4.179  14.122  1.00  0.00     0.047 C 
ENDROOT
BRANCH   1   9
HETATM    9  C2  UNL     1      -5.213   2.098  15.430  1.00  0.00     0.103 C 
HETATM   10  S1  UNL     1      -6.360   2.582  16.480  1.00  0.00    -0.077 SA
BRANCH   9  11
HETATM   11  C1  UNL     1      -4.358   0.978  15.768  1.00  0.00     0.274 C 
HETATM   12  N1  UNL     1      -4.571  -0.318  15.236  1.00  0.00    -0.057 NA
HETATM   13  O1  UNL     1      -3.400   1.160  16.555  1.00  0.00    -0.270 OA
ENDBRANCH   9  11
ENDBRANCH   1   9
BRANCH   6  14
HETATM   14  N3  UNL     1      -5.713   7.246  12.254  1.00  0.00    -0.212 N 
ATOM     15  H3  UNL     1      -5.062   7.826  11.726  1.00  0.00     0.215 HD
BRANCH  14  16
HETATM   16  O3  UNL     1      -6.902   7.555  12.262  1.00  0.00    -0.275 OA
ATOM     17  H3  UNL     1      -7.282   8.160  11.635  1.00  0.00     0.246 HD
ENDBRANCH  14  16
ENDBRANCH   6  14
TORSDOF 4
ENDMDL
MODEL 2
REMARK VINA RESULT: -5.545020090      4.254      6.493
REMARK  4 active torsions:
REMARK  status: ('A' for Active; 'I' for Inactive)
REMARK    1  A    between atoms: C1_2  and  C2_4 
REMARK    2  A    between atoms: C2_4  and  C3_6 
REMARK    3  A    between atoms: N2_11  and  N3_12 
REMARK    4  A    between atoms: N3_12  and  O3_14 
ROOT
HETATM    1  C3  UNL     1      -2.930   2.293  10.848  1.00  0.00     0.177 C 
HETATM    2  O2  UNL     1      -4.233   2.083  10.418  1.00  0.00    -0.379 OA
HETATM    3  C4  UNL     1      -4.900   1.440  11.454  1.00  0.00     0.175 C 
HETATM    4  C5  UNL     1      -3.889   0.665  12.237  1.00  0.00     0.037 C 
HETATM    5  C6  UNL     1      -4.061  -0.807  12.045  1.00  0.00     0.151 C 
HETATM    6  N2  UNL     1      -2.879  -1.248  11.304  1.00  0.00    -0.308 N 
HETATM    7  C7  UNL     1      -2.370  -0.087  10.606  1.00  0.00     0.152 C 
HETATM    8  C8  UNL     1      -2.576   1.022  11.585  1.00  0.00     0.047 C 
ENDROOT
BRANCH   1   9
HETATM    9  C2  UNL     1      -2.932   3.471  11.752  1.00  0.00     0.103 C 
HETATM   10  S1  UNL     1      -4.145   4.557  11.758  1.00  0.00    -0.077 SA
BRANCH   9  11
HETATM   11  C1  UNL     1      -1.809   3.644  12.650  1.00  0.00     0.274 C 
HETATM   12  N1  UNL     1      -1.974   4.099  13.982  1.00  0.00    -0.057 NA
HETATM   13  O1  UNL     1      -0.654   3.384  12.238  1.00  0.00    -0.270 OA
ENDBRANCH   9  11
ENDBRANCH   1   9
BRANCH   6  14
HETATM   14  N3  UNL     1      -2.383  -2.557  11.308  1.00  0.00    -0.212 N 
ATOM     15  H3  UNL     1      -1.428  -2.718  10.989  1.00  0.00     0.215 HD
BRANCH  14  16
HETATM   16  O3  UNL     1      -3.048  -3.521  11.681  1.00  0.00    -0.275 OA
ATOM     17  H3  UNL     1      -2.721  -4.165  12.298  1.00  0.00     0.246 HD
ENDBRANCH  14  16
ENDBRANCH   6  14
TORSDOF 4
ENDMDL
MODEL 3
REMARK VINA RESULT: -5.458076418      2.793      5.336
REMARK  4 active torsions:
REMARK  status: ('A' for Active; 'I' for Inactive)
REMARK    1  A    between atoms: C1_2  and  C2_4 
REMARK    2  A    between atoms: C2_4  and  C3_6 
REMARK    3  A    between atoms: N2_11  and  N3_12 
REMARK    4  A    between atoms: N3_12  and  O3_14 
ROOT
HETATM    1  C3  UNL     1      -4.237   2.706  12.983  1.00  0.00     0.177 C 
HETATM    2  O2  UNL     1      -5.597   2.726  12.699  1.00  0.00    -0.379 OA
HETATM    3  C4  UNL     1      -6.200   3.507  13.677  1.00  0.00     0.175 C 
HETATM    4  C5  UNL     1      -5.362   3.422  14.913  1.00  0.00     0.037 C 
HETATM    5  C6  UNL     1      -6.052   2.646  15.988  1.00  0.00     0.151 C 
HETATM    6  N2  UNL     1      -5.273   1.418  16.148  1.00  0.00    -0.308 N 
HETATM    7  C7  UNL     1      -4.569   1.207  14.902  1.00  0.00     0.152 C 
HETATM    8  C8  UNL     1      -4.178   2.588  14.489  1.00  0.00     0.047 C 
ENDROOT
BRANCH   1   9
HETATM    9  C2  UNL     1      -3.652   3.985  12.507  1.00  0.00     0.103 C 
HETATM   10  S1  UNL     1      -2.624   4.860  13.417  1.00  0.00    -0.077 SA
BRANCH   9  11
HETATM   11  C1  UNL     1      -4.020   4.455  11.187  1.00  0.00     0.274 C 
HETATM   12  N1  UNL     1      -3.547   3.828  10.007  1.00  0.00    -0.057 NA
HETATM   13  O1  UNL     1      -4.781   5.446  11.084  1.00  0.00    -0.270 OA
ENDBRANCH   9  11
ENDBRANCH   1   9
BRANCH   6  14
HETATM   14  N3  UNL     1      -5.252   0.638  17.311  1.00  0.00    -0.212 N 
ATOM     15  H3  UNL     1      -4.626   0.907  18.069  1.00  0.00     0.215 HD
BRANCH  14  16
HETATM   16  O3  UNL     1      -5.957  -0.358  17.457  1.00  0.00    -0.275 OA
ATOM     17  H3  UNL     1      -6.498  -0.498  18.225  1.00  0.00     0.246 HD
ENDBRANCH  14  16
ENDBRANCH   6  14
TORSDOF 4
ENDMDL
MODEL 4
REMARK VINA RESULT: -5.439526906      3.016      5.077
REMARK  4 active torsions:
REMARK  status: ('A' for Active; 'I' for Inactive)
REMARK    1  A    between atoms: C1_2  and  C2_4 
REMARK    2  A    between atoms: C2_4  and  C3_6 
REMARK    3  A    between atoms: N2_11  and  N3_12 
REMARK    4  A    between atoms: N3_12  and  O3_14 
ROOT
HETATM    1  C3  UNL     1      -4.244   3.133  13.281  1.00  0.00     0.177 C 
HETATM    2  O2  UNL     1      -5.561   3.058  12.846  1.00  0.00    -0.379 OA
HETATM    3  C4  UNL     1      -6.330   3.758  13.768  1.00  0.00     0.175 C 
HETATM    4  C5  UNL     1      -5.630   3.696  15.088  1.00  0.00     0.037 C 
HETATM    5  C6  UNL     1      -6.370   2.834  16.059  1.00  0.00     0.151 C 
HETATM    6  N2  UNL     1      -5.518   1.665  16.277  1.00  0.00    -0.308 N 
HETATM    7  C7  UNL     1      -4.666   1.550  15.113  1.00  0.00     0.152 C 
HETATM    8  C8  UNL     1      -4.343   2.970  14.781  1.00  0.00     0.047 C 
ENDROOT
BRANCH   1   9
HETATM    9  C2  UNL     1      -3.714   4.468  12.906  1.00  0.00     0.103 C 
HETATM   10  S1  UNL     1      -4.103   5.191  11.500  1.00  0.00    -0.077 SA
BRANCH   9  11
HETATM   11  C1  UNL     1      -2.822   5.134  13.834  1.00  0.00     0.274 C 
HETATM   12  N1  UNL     1      -1.550   4.605  14.166  1.00  0.00    -0.057 NA
HETATM   13  O1  UNL     1      -3.186   6.213  14.359  1.00  0.00    -0.270 OA
ENDBRANCH   9  11
ENDBRANCH   1   9
BRANCH   6  14
HETATM   14  N3  UNL     1      -5.564   0.850  17.414  1.00  0.00    -0.212 N 
ATOM     15  H3  UNL     1      -5.298   1.251  18.313  1.00  0.00     0.215 HD
BRANCH  14  16
HETATM   16  O3  UNL     1      -5.912  -0.328  17.376  1.00  0.00    -0.275 OA
ATOM     17  H3  UNL     1      -5.426  -1.023  17.804  1.00  0.00     0.246 HD
ENDBRANCH  14  16
ENDBRANCH   6  14
TORSDOF 4
ENDMDL
MODEL 5
REMARK VINA RESULT: -5.323846522      4.410      6.910
REMARK  4 active torsions:
REMARK  status: ('A' for Active; 'I' for Inactive)
REMARK    1  A    between atoms: C1_2  and  C2_4 
REMARK    2  A    between atoms: C2_4  and  C3_6 
REMARK    3  A    between atoms: N2_11  and  N3_12 
REMARK    4  A    between atoms: N3_12  and  O3_14 
ROOT
HETATM    1  C3  UNL     1      -3.035   1.874  10.516  1.00  0.00     0.177 C 
HETATM    2  O2  UNL     1      -4.393   1.645  10.335  1.00  0.00    -0.379 OA
HETATM    3  C4  UNL     1      -4.874   1.117  11.527  1.00  0.00     0.175 C 
HETATM    4  C5  UNL     1      -3.744   0.404  12.200  1.00  0.00     0.037 C 
HETATM    5  C6  UNL     1      -3.947  -1.076  12.185  1.00  0.00     0.151 C 
HETATM    6  N2  UNL     1      -2.908  -1.607  11.302  1.00  0.00    -0.308 N 
HETATM    7  C7  UNL     1      -2.525  -0.528  10.417  1.00  0.00     0.152 C 
HETATM    8  C8  UNL     1      -2.561   0.674  11.303  1.00  0.00     0.047 C 
ENDROOT
BRANCH   1   9
HETATM    9  C2  UNL     1      -2.883   3.134  11.286  1.00  0.00     0.103 C 
HETATM   10  S1  UNL     1      -1.544   3.465  12.152  1.00  0.00    -0.077 SA
BRANCH   9  11
HETATM   11  C1  UNL     1      -3.973   4.088  11.257  1.00  0.00     0.274 C 
HETATM   12  N1  UNL     1      -4.385   4.723  10.059  1.00  0.00    -0.057 NA
HETATM   13  O1  UNL     1      -4.571   4.362  12.324  1.00  0.00    -0.270 OA
ENDBRANCH   9  11
ENDBRANCH   1   9
BRANCH   6  14
HETATM   14  N3  UNL     1      -2.418  -2.917  11.351  1.00  0.00    -0.212 N 
ATOM     15  H3  UNL     1      -1.427  -3.075  11.171  1.00  0.00     0.215 HD
BRANCH  14  16
HETATM   16  O3  UNL     1      -3.131  -3.886  11.601  1.00  0.00    -0.275 OA
ATOM     17  H3  UNL     1      -2.790  -4.698  11.957  1.00  0.00     0.246 HD
ENDBRANCH  14  16
ENDBRANCH   6  14
TORSDOF 4
ENDMDL
