MODEL 1
REMARK VINA RESULT: -6.243289866      0.000      0.000
REMARK  4 active torsions:
REMARK  status: ('A' for Active; 'I' for Inactive)
REMARK    1  A    between atoms: C2_3  and  N2_4 
REMARK    2  A    between atoms: C4_6  and  C5_7 
REMARK    3  A    between atoms: C5_7  and  O1_8 
REMARK    4  A    between atoms: C6_11  and  N3_12 
ROOT
HETATM    1  N1  UNL     1      -5.986   6.158  12.119  1.00  0.00    -0.195 NA
HETATM    2  C1  UNL     1      -5.956   5.619  13.144  1.00  0.00     0.089 C 
HETATM    3  C2  UNL     1      -5.943   4.952  14.422  1.00  0.00     0.395 C 
ENDROOT
BRANCH   3   4
HETATM    4  N2  UNL     1      -5.871   3.517  14.338  1.00  0.00     0.108 N 
HETATM    5  C3  UNL     1      -5.865   2.969  15.640  1.00  0.00     0.307 C 
HETATM    6  C4  UNL     1      -4.855   1.875  15.859  1.00  0.00     0.176 C 
HETATM    7  O2  UNL     1      -5.016   1.006  14.752  1.00  0.00    -0.355 OA
HETATM    8  C6  UNL     1      -4.343   1.684  13.709  1.00  0.00     0.257 C 
HETATM    9  C10 UNL     1      -4.951   3.007  13.406  1.00  0.00     0.327 C 
BRANCH   6  10
HETATM   10  C5  UNL     1      -5.101   1.074  17.084  1.00  0.00     0.197 C 
BRANCH  10  11
HETATM   11  O1  UNL     1      -5.869  -0.040  16.735  1.00  0.00    -0.398 OA
ATOM     12  H1  UNL     1      -6.619  -0.081  17.316  1.00  0.00     0.209 HD
ENDBRANCH  10  11
ENDBRANCH   6  10
BRANCH   8  13
HETATM   13  N3  UNL     1      -4.258   0.812  12.555  1.00  0.00    -0.323 N 
HETATM   14  C7  UNL     1      -3.804  -0.454  12.570  1.00  0.00     0.111 A 
HETATM   15  C8  UNL     1      -3.861  -0.986  11.306  1.00  0.00     0.106 A 
HETATM   16  N4  UNL     1      -4.352  -0.040  10.518  1.00  0.00    -0.361 N 
HETATM   17  C9  UNL     1      -4.593   1.049  11.274  1.00  0.00     0.184 A 
ATOM     18  H4  UNL     1      -4.519  -0.123   9.515  1.00  0.00     0.166 HD
ENDBRANCH   8  13
ENDBRANCH   3   4
TORSDOF 4
ENDMDL
MODEL 2
REMARK VINA RESULT: -6.189441522      2.567      5.568
REMARK  4 active torsions:
REMARK  status: ('A' for Active; 'I' for Inactive)
REMARK    1  A    between atoms: C2_3  and  N2_4 
REMARK    2  A    between atoms: C4_6  and  C5_7 
REMARK    3  A    between atoms: C5_7  and  O1_8 
REMARK    4  A    between atoms: C6_11  and  N3_12 
ROOT
HETATM    1  N1  UNL     1      -5.789  -0.053  16.848  1.00  0.00    -0.195 NA
HETATM    2  C1  UNL     1      -5.206   0.864  16.444  1.00  0.00     0.089 C 
HETATM    3  C2  UNL     1      -4.463   1.989  15.935  1.00  0.00     0.395 C 
ENDROOT
BRANCH   3   4
HETATM    4  N2  UNL     1      -4.963   2.513  14.691  1.00  0.00     0.108 N 
HETATM    5  C3  UNL     1      -4.460   1.743  13.619  1.00  0.00     0.307 C 
HETATM    6  C4  UNL     1      -3.956   2.544  12.449  1.00  0.00     0.176 C 
HETATM    7  O2  UNL     1      -4.978   3.491  12.191  1.00  0.00    -0.355 OA
HETATM    8  C6  UNL     1      -4.775   4.466  13.195  1.00  0.00     0.257 C 
HETATM    9  C10 UNL     1      -4.933   3.914  14.566  1.00  0.00     0.327 C 
BRANCH   6  10
HETATM   10  C5  UNL     1      -3.779   1.743  11.212  1.00  0.00     0.197 C 
BRANCH  10  11
HETATM   11  O1  UNL     1      -4.491   2.362  10.181  1.00  0.00    -0.398 OA
ATOM     12  H1  UNL     1      -4.620   1.729   9.485  1.00  0.00     0.209 HD
ENDBRANCH  10  11
ENDBRANCH   6  10
BRANCH   8  13
HETATM   13  N3  UNL     1      -5.634   5.603  12.931  1.00  0.00    -0.323 N 
HETATM   14  C7  UNL     1      -5.386   6.570  12.028  1.00  0.00     0.111 A 
HETATM   15  C8  UNL     1      -6.405   7.490  12.039  1.00  0.00     0.106 A 
HETATM   16  N4  UNL     1      -7.276   7.082  12.950  1.00  0.00    -0.361 N 
HETATM   17  C9  UNL     1      -6.809   5.939  13.491  1.00  0.00     0.184 A 
ATOM     18  H4  UNL     1      -8.147   7.551  13.200  1.00  0.00     0.166 HD
ENDBRANCH   8  13
ENDBRANCH   3   4
TORSDOF 4
ENDMDL
MODEL 3
REMARK VINA RESULT: -6.058502172      2.531      3.894
REMARK  4 active torsions:
REMARK  status: ('A' for Active; 'I' for Inactive)
REMARK    1  A    between atoms: C2_3  and  N2_4 
REMARK    2  A    between atoms: C4_6  and  C5_7 
REMARK    3  A    between atoms: C5_7  and  O1_8 
REMARK    4  A    between atoms: C6_11  and  N3_12 
ROOT
HETATM    1  N1  UNL     1      -5.888   0.001  17.412  1.00  0.00    -0.195 NA
HETATM    2  C1  UNL     1      -5.756   0.979  16.805  1.00  0.00     0.089 C 
HETATM    3  C2  UNL     1      -5.582   2.206  16.069  1.00  0.00     0.395 C 
ENDROOT
BRANCH   3   4
HETATM    4  N2  UNL     1      -4.465   2.199  15.162  1.00  0.00     0.108 N 
HETATM    5  C3  UNL     1      -3.871   3.480  15.134  1.00  0.00     0.307 C 
HETATM    6  C4  UNL     1      -3.530   3.988  13.759  1.00  0.00     0.176 C 
HETATM    7  O2  UNL     1      -2.860   2.910  13.130  1.00  0.00    -0.355 OA
HETATM    8  C6  UNL     1      -3.916   2.045  12.761  1.00  0.00     0.257 C 
HETATM    9  C10 UNL     1      -4.682   1.548  13.934  1.00  0.00     0.327 C 
BRANCH   6  10
HETATM   10  C5  UNL     1      -2.596   5.141  13.765  1.00  0.00     0.197 C 
BRANCH  10  11
HETATM   11  O1  UNL     1      -1.313   4.666  14.045  1.00  0.00    -0.398 OA
ATOM     12  H1  UNL     1      -1.306   4.328  14.932  1.00  0.00     0.209 HD
ENDBRANCH  10  11
ENDBRANCH   6  10
BRANCH   8  13
HETATM   13  N3  UNL     1      -3.389   0.983  11.927  1.00  0.00    -0.323 N 
HETATM   14  C7  UNL     1      -4.005  -0.186  11.677  1.00  0.00     0.111 A 
HETATM   15  C8  UNL     1      -3.226  -0.957  10.850  1.00  0.00     0.106 A 
HETATM   16  N4  UNL     1      -2.132  -0.254  10.595  1.00  0.00    -0.361 N 
HETATM   17  C9  UNL     1      -2.230   0.921  11.247  1.00  0.00     0.184 A 
ATOM     18  H4  UNL     1      -1.352  -0.551  10.009  1.00  0.00     0.166 HD
ENDBRANCH   8  13
ENDBRANCH   3   4
TORSDOF 4
ENDMDL
MODEL 4
REMARK VINA RESULT: -6.000175394      2.328      5.044
REMARK  4 active torsions:
REMARK  status: ('A' for Active; 'I' for Inactive)
REMARK    1  A    between atoms: C2_3  and  N2_4 
REMARK    2  A    between atoms: C4_6  and  C5_7 
REMARK    3  A    between atoms: C5_7  and  O1_8 
REMARK    4  A    between atoms: C6_11  and  N3_12 
ROOT
HETATM    1  N1  UNL     1      -3.740  -1.469  11.384  1.00  0.00    -0.195 NA
HETATM    2  C1  UNL     1      -4.072  -0.362  11.460  1.00  0.00     0.089 C 
HETATM    3  C2  UNL     1      -4.506   1.009  11.564  1.00  0.00     0.395 C 
ENDROOT
BRANCH   3   4
HETATM    4  N2  UNL     1      -3.917   1.734  12.659  1.00  0.00     0.108 N 
HETATM    5  C3  UNL     1      -4.263   1.110  13.878  1.00  0.00     0.307 C 
HETATM    6  C4  UNL     1      -4.695   2.053  14.969  1.00  0.00     0.176 C 
HETATM    7  O2  UNL     1      -3.711   3.072  14.978  1.00  0.00    -0.355 OA
HETATM    8  C6  UNL     1      -4.070   3.877  13.873  1.00  0.00     0.257 C 
HETATM    9  C10 UNL     1      -4.017   3.135  12.586  1.00  0.00     0.327 C 
BRANCH   6  10
HETATM   10  C5  UNL     1      -4.701   1.437  16.320  1.00  0.00     0.197 C 
BRANCH  10  11
HETATM   11  O1  UNL     1      -3.642   0.529  16.393  1.00  0.00    -0.398 OA
ATOM     12  H1  UNL     1      -3.032   0.833  17.054  1.00  0.00     0.209 HD
ENDBRANCH  10  11
ENDBRANCH   6  10
BRANCH   8  13
HETATM   13  N3  UNL     1      -3.258   5.078  13.878  1.00  0.00    -0.323 N 
HETATM   14  C7  UNL     1      -3.717   6.324  14.094  1.00  0.00     0.111 A 
HETATM   15  C8  UNL     1      -2.679   7.221  14.028  1.00  0.00     0.106 A 
HETATM   16  N4  UNL     1      -1.586   6.518  13.772  1.00  0.00    -0.361 N 
HETATM   17  C9  UNL     1      -1.936   5.220  13.680  1.00  0.00     0.184 A 
ATOM     18  H4  UNL     1      -0.644   6.894  13.662  1.00  0.00     0.166 HD
ENDBRANCH   8  13
ENDBRANCH   3   4
TORSDOF 4
ENDMDL
MODEL 5
REMARK VINA RESULT: -5.928950721      2.961      4.114
REMARK  4 active torsions:
REMARK  status: ('A' for Active; 'I' for Inactive)
REMARK    1  A    between atoms: C2_3  and  N2_4 
REMARK    2  A    between atoms: C4_6  and  C5_7 
REMARK    3  A    between atoms: C5_7  and  O1_8 
REMARK    4  A    between atoms: C6_11  and  N3_12 
ROOT
HETATM    1  N1  UNL     1      -5.694   6.357  10.984  1.00  0.00    -0.195 NA
HETATM    2  C1  UNL     1      -5.978   6.299  12.106  1.00  0.00     0.089 C 
HETATM    3  C2  UNL     1      -6.349   6.213  13.496  1.00  0.00     0.395 C 
ENDROOT
BRANCH   3   4
HETATM    4  N2  UNL     1      -5.482   5.381  14.289  1.00  0.00     0.108 N 
HETATM    5  C3  UNL     1      -4.136   5.654  13.959  1.00  0.00     0.307 C 
HETATM    6  C4  UNL     1      -3.271   4.434  13.782  1.00  0.00     0.176 C 
HETATM    7  O2  UNL     1      -3.547   3.627  14.913  1.00  0.00    -0.355 OA
HETATM    8  C6  UNL     1      -4.788   3.032  14.588  1.00  0.00     0.257 C 
HETATM    9  C10 UNL     1      -5.871   4.035  14.406  1.00  0.00     0.327 C 
BRANCH   6  10
HETATM   10  C5  UNL     1      -1.816   4.730  13.800  1.00  0.00     0.197 C 
BRANCH  10  11
HETATM   11  O1  UNL     1      -1.251   4.088  14.905  1.00  0.00    -0.398 OA
ATOM     12  H1  UNL     1      -1.813   4.235  15.656  1.00  0.00     0.209 HD
ENDBRANCH  10  11
ENDBRANCH   6  10
BRANCH   8  13
HETATM   13  N3  UNL     1      -5.102   2.020  15.577  1.00  0.00    -0.323 N 
HETATM   14  C7  UNL     1      -6.159   2.049  16.409  1.00  0.00     0.111 A 
HETATM   15  C8  UNL     1      -6.151   0.936  17.212  1.00  0.00     0.106 A 
HETATM   16  N4  UNL     1      -5.086   0.227  16.868  1.00  0.00    -0.361 N 
HETATM   17  C9  UNL     1      -4.450   0.883  15.877  1.00  0.00     0.184 A 
ATOM     18  H4  UNL     1      -4.798  -0.661  17.281  1.00  0.00     0.166 HD
ENDBRANCH   8  13
ENDBRANCH   3   4
TORSDOF 4
ENDMDL
