MODEL 1
REMARK VINA RESULT: -5.860634079      0.000      0.000
REMARK  3 active torsions:
REMARK  status: ('A' for Active; 'I' for Inactive)
REMARK    1  A    between atoms: N1_3  and  C3_5 
REMARK    2  A    between atoms: C7_10  and  C8_11 
REMARK    3  A    between atoms: C8_11  and  N2_12 
ROOT
HETATM    1  C1  UNL     1      -7.111   8.301  11.337  1.00  0.00     0.037 C 
HETATM    2  C2  UNL     1      -6.352   7.592  11.927  1.00  0.00    -0.003 C 
HETATM    3  N1  UNL     1      -5.457   6.751  12.600  1.00  0.00    -0.324 N 
ATOM      4  H1  UNL     1      -4.458   6.873  12.435  1.00  0.00     0.172 HD
ENDROOT
BRANCH   3   5
HETATM    5  C3  UNL     1      -5.876   5.735  13.503  1.00  0.00     0.232 C 
HETATM    6  C4  UNL     1      -4.890   5.312  14.564  1.00  0.00     0.097 C 
HETATM    7  C5  UNL     1      -4.733   4.182  13.652  1.00  0.00     0.116 C 
HETATM    8  C6  UNL     1      -3.457   3.907  12.983  1.00  0.00     0.209 C 
HETATM    9  C7  UNL     1      -4.677   2.801  14.118  1.00  0.00     0.176 C 
HETATM   10  O2  UNL     1      -5.833   4.483  12.893  1.00  0.00    -0.350 OA
HETATM   11  O1  UNL     1      -3.648   2.543  13.210  1.00  0.00    -0.378 OA
BRANCH   9  12
HETATM   12  C8  UNL     1      -4.199   2.511  15.506  1.00  0.00     0.165 C 
BRANCH  12  13
HETATM   13  N2  UNL     1      -5.281   1.890  16.231  1.00  0.00    -0.335 N 
HETATM   14  C9  UNL     1      -5.234   0.688  16.820  1.00  0.00     0.200 A 
HETATM   15  N3  UNL     1      -6.418   0.424  17.403  1.00  0.00    -0.295 N 
HETATM   16  N4  UNL     1      -7.187   1.468  17.168  1.00  0.00    -0.295 N 
ATOM     17  H3  UNL     1      -6.671  -0.416  17.923  1.00  0.00     0.187 HD
HETATM   18  C10 UNL     1      -6.508   2.373  16.453  1.00  0.00     0.200 A 
ATOM     19  H4  UNL     1      -8.152   1.571  17.483  1.00  0.00     0.187 HD
ENDBRANCH  12  13
ENDBRANCH   9  12
ENDBRANCH   3   5
TORSDOF 3
ENDMDL
MODEL 2
REMARK VINA RESULT: -5.797247077      3.401      4.213
REMARK  3 active torsions:
REMARK  status: ('A' for Active; 'I' for Inactive)
REMARK    1  A    between atoms: N1_3  and  C3_5 
REMARK    2  A    between atoms: C7_10  and  C8_11 
REMARK    3  A    between atoms: C8_11  and  N2_12 
ROOT
HETATM    1  C1  UNL     1      -7.131   6.712  13.021  1.00  0.00     0.037 C 
HETATM    2  C2  UNL     1      -6.348   6.026  13.610  1.00  0.00    -0.003 C 
HETATM    3  N1  UNL     1      -5.416   5.234  14.291  1.00  0.00    -0.324 N 
ATOM      4  H1  UNL     1      -4.907   5.647  15.073  1.00  0.00     0.172 HD
ENDROOT
BRANCH   3   5
HETATM    5  C3  UNL     1      -5.145   3.882  13.945  1.00  0.00     0.232 C 
HETATM    6  C4  UNL     1      -3.720   3.538  13.586  1.00  0.00     0.097 C 
HETATM    7  C5  UNL     1      -4.285   3.580  12.239  1.00  0.00     0.116 C 
HETATM    8  C6  UNL     1      -3.832   4.560  11.247  1.00  0.00     0.209 C 
HETATM    9  C7  UNL     1      -3.986   2.567  11.234  1.00  0.00     0.176 C 
HETATM   10  O2  UNL     1      -5.590   3.604  12.654  1.00  0.00    -0.350 OA
HETATM   11  O1  UNL     1      -3.877   3.568  10.267  1.00  0.00    -0.378 OA
BRANCH   9  12
HETATM   12  C8  UNL     1      -2.699   1.808  11.312  1.00  0.00     0.165 C 
BRANCH  12  13
HETATM   13  N2  UNL     1      -3.012   0.402  11.405  1.00  0.00    -0.335 N 
HETATM   14  C9  UNL     1      -2.322  -0.589  10.828  1.00  0.00     0.200 A 
HETATM   15  N3  UNL     1      -2.895  -1.771  11.124  1.00  0.00    -0.295 N 
HETATM   16  N4  UNL     1      -3.936  -1.496  11.884  1.00  0.00    -0.295 N 
ATOM     17  H3  UNL     1      -2.586  -2.694  10.821  1.00  0.00     0.187 HD
HETATM   18  C10 UNL     1      -4.023  -0.174  12.066  1.00  0.00     0.200 A 
ATOM     19  H4  UNL     1      -4.578  -2.187  12.274  1.00  0.00     0.187 HD
ENDBRANCH  12  13
ENDBRANCH   9  12
ENDBRANCH   3   5
TORSDOF 3
ENDMDL
MODEL 3
REMARK VINA RESULT: -5.614419218      3.622      4.070
REMARK  3 active torsions:
REMARK  status: ('A' for Active; 'I' for Inactive)
REMARK    1  A    between atoms: N1_3  and  C3_5 
REMARK    2  A    between atoms: C7_10  and  C8_11 
REMARK    3  A    between atoms: C8_11  and  N2_12 
ROOT
HETATM    1  C1  UNL     1      -7.023   7.916  11.925  1.00  0.00     0.037 C 
HETATM    2  C2  UNL     1      -5.933   7.500  12.182  1.00  0.00    -0.003 C 
HETATM    3  N1  UNL     1      -4.651   7.012  12.464  1.00  0.00    -0.324 N 
ATOM      4  H1  UNL     1      -3.852   7.626  12.307  1.00  0.00     0.172 HD
ENDROOT
BRANCH   3   5
HETATM    5  C3  UNL     1      -4.411   5.700  12.958  1.00  0.00     0.232 C 
HETATM    6  C4  UNL     1      -3.149   5.013  12.494  1.00  0.00     0.097 C 
HETATM    7  C5  UNL     1      -4.108   4.319  11.638  1.00  0.00     0.116 C 
HETATM    8  C6  UNL     1      -4.056   4.433  10.177  1.00  0.00     0.209 C 
HETATM    9  C7  UNL     1      -4.071   2.876  11.431  1.00  0.00     0.176 C 
HETATM   10  O2  UNL     1      -5.217   4.771  12.304  1.00  0.00    -0.350 OA
HETATM   11  O1  UNL     1      -4.338   3.070  10.075  1.00  0.00    -0.378 OA
BRANCH   9  12
HETATM   12  C8  UNL     1      -2.775   2.143  11.584  1.00  0.00     0.165 C 
BRANCH  12  13
HETATM   13  N2  UNL     1      -3.054   0.728  11.551  1.00  0.00    -0.335 N 
HETATM   14  C9  UNL     1      -2.324  -0.195  10.912  1.00  0.00     0.200 A 
HETATM   15  N3  UNL     1      -2.873  -1.411  11.094  1.00  0.00    -0.295 N 
HETATM   16  N4  UNL     1      -3.940  -1.226  11.845  1.00  0.00    -0.295 N 
ATOM     17  H3  UNL     1      -2.533  -2.298  10.724  1.00  0.00     0.187 HD
HETATM   18  C10 UNL     1      -4.065   0.074  12.134  1.00  0.00     0.200 A 
ATOM     19  H4  UNL     1      -4.573  -1.962  12.159  1.00  0.00     0.187 HD
ENDBRANCH  12  13
ENDBRANCH   9  12
ENDBRANCH   3   5
TORSDOF 3
ENDMDL
MODEL 4
REMARK VINA RESULT: -5.606992326      2.759      5.719
REMARK  3 active torsions:
REMARK  status: ('A' for Active; 'I' for Inactive)
REMARK    1  A    between atoms: N1_3  and  C3_5 
REMARK    2  A    between atoms: C7_10  and  C8_11 
REMARK    3  A    between atoms: C8_11  and  N2_12 
ROOT
HETATM    1  C1  UNL     1      -7.481   1.065  17.165  1.00  0.00     0.037 C 
HETATM    2  C2  UNL     1      -6.318   1.335  17.109  1.00  0.00    -0.003 C 
HETATM    3  N1  UNL     1      -4.960   1.671  17.048  1.00  0.00    -0.324 N 
ATOM      4  H1  UNL     1      -4.474   1.886  17.918  1.00  0.00     0.172 HD
ENDROOT
BRANCH   3   5
HETATM    5  C3  UNL     1      -4.228   1.726  15.830  1.00  0.00     0.232 C 
HETATM    6  C4  UNL     1      -3.760   3.086  15.372  1.00  0.00     0.097 C 
HETATM    7  C5  UNL     1      -4.898   2.926  14.470  1.00  0.00     0.116 C 
HETATM    8  C6  UNL     1      -6.052   3.829  14.522  1.00  0.00     0.209 C 
HETATM    9  C7  UNL     1      -4.824   3.257  13.051  1.00  0.00     0.176 C 
HETATM   10  O2  UNL     1      -5.079   1.594  14.736  1.00  0.00    -0.350 OA
HETATM   11  O1  UNL     1      -6.092   3.835  13.127  1.00  0.00    -0.378 OA
BRANCH   9  12
HETATM   12  C8  UNL     1      -3.837   4.281  12.584  1.00  0.00     0.165 C 
BRANCH  12  13
HETATM   13  N2  UNL     1      -2.603   3.603  12.270  1.00  0.00    -0.335 N 
HETATM   14  C9  UNL     1      -1.373   4.058  12.542  1.00  0.00     0.200 A 
HETATM   15  N3  UNL     1      -0.458   3.171  12.109  1.00  0.00    -0.295 N 
HETATM   16  N4  UNL     1      -1.133   2.174  11.572  1.00  0.00    -0.295 N 
ATOM     17  H3  UNL     1       0.557   3.253  12.181  1.00  0.00     0.187 HD
HETATM   18  C10 UNL     1      -2.444   2.422  11.661  1.00  0.00     0.200 A 
ATOM     19  H4  UNL     1      -0.719   1.341  11.153  1.00  0.00     0.187 HD
ENDBRANCH  12  13
ENDBRANCH   9  12
ENDBRANCH   3   5
TORSDOF 3
ENDMDL
MODEL 5
REMARK VINA RESULT: -5.605840064      4.597      7.865
REMARK  3 active torsions:
REMARK  status: ('A' for Active; 'I' for Inactive)
REMARK    1  A    between atoms: N1_3  and  C3_5 
REMARK    2  A    between atoms: C7_10  and  C8_11 
REMARK    3  A    between atoms: C8_11  and  N2_12 
ROOT
HETATM    1  C1  UNL     1      -2.936  -3.693  11.231  1.00  0.00     0.037 C 
HETATM    2  C2  UNL     1      -3.307  -2.567  11.384  1.00  0.00    -0.003 C 
HETATM    3  N1  UNL     1      -3.761  -1.253  11.556  1.00  0.00    -0.324 N 
ATOM      4  H1  UNL     1      -4.454  -1.070  12.281  1.00  0.00     0.172 HD
ENDROOT
BRANCH   3   5
HETATM    5  C3  UNL     1      -3.302  -0.164  10.766  1.00  0.00     0.232 C 
HETATM    6  C4  UNL     1      -2.583   0.950  11.487  1.00  0.00     0.097 C 
HETATM    7  C5  UNL     1      -3.878   1.602  11.305  1.00  0.00     0.116 C 
HETATM    8  C6  UNL     1      -4.708   1.993  12.449  1.00  0.00     0.209 C 
HETATM    9  C7  UNL     1      -4.002   2.986  10.863  1.00  0.00     0.176 C 
HETATM   10  O2  UNL     1      -4.358   0.675  10.418  1.00  0.00    -0.350 OA
HETATM   11  O1  UNL     1      -5.023   3.185  11.794  1.00  0.00    -0.378 OA
BRANCH   9  12
HETATM   12  C8  UNL     1      -2.888   3.948  11.133  1.00  0.00     0.165 C 
BRANCH  12  13
HETATM   13  N2  UNL     1      -2.274   4.287   9.872  1.00  0.00    -0.335 N 
HETATM   14  C9  UNL     1      -2.844   5.005   8.895  1.00  0.00     0.200 A 
HETATM   15  N3  UNL     1      -1.986   5.127   7.865  1.00  0.00    -0.295 N 
HETATM   16  N4  UNL     1      -0.892   4.482   8.216  1.00  0.00    -0.295 N 
ATOM     17  H3  UNL     1      -2.150   5.620   6.987  1.00  0.00     0.187 HD
HETATM   18  C10 UNL     1      -1.050   3.962   9.439  1.00  0.00     0.200 A 
ATOM     19  H4  UNL     1      -0.052   4.392   7.643  1.00  0.00     0.187 HD
ENDBRANCH  12  13
ENDBRANCH   9  12
ENDBRANCH   3   5
TORSDOF 3
ENDMDL
