MODEL 1
REMARK VINA RESULT: -5.249095316      0.000      0.000
REMARK  5 active torsions:
REMARK  status: ('A' for Active; 'I' for Inactive)
REMARK    1  A    between atoms: C2_2  and  C3_3 
REMARK    2  A    between atoms: C9_12  and  C10_13 
REMARK    3  A    between atoms: C10_13  and  O1_14 
REMARK    4  A    between atoms: C12_18  and  C14_20 
REMARK    5  A    between atoms: C14_20  and  O3_21 
ROOT
HETATM    1  C1  UNL     1      -6.845   7.917  11.638  1.00  0.00     0.024 C 
HETATM    2  C2  UNL     1      -5.858   8.273  10.509  1.00  0.00     0.030 C 
HETATM    3  C4  UNL     1      -4.624   8.939  11.064  1.00  0.00     0.047 C 
HETATM    4  C5  UNL     1      -3.644   7.887  11.512  1.00  0.00     0.001 C 
HETATM    5  C6  UNL     1      -3.478   6.760  10.912  1.00  0.00     0.028 C 
HETATM    6  N1  UNL     1      -2.763   5.633  11.009  1.00  0.00    -0.316 N 
HETATM    7  C7  UNL     1      -1.801   5.066  10.182  1.00  0.00     0.404 C 
HETATM    8  N2  UNL     1      -3.029   4.133   9.988  1.00  0.00     0.143 N 
HETATM    9  C8  UNL     1      -4.187   4.892   9.606  1.00  0.00     0.304 C 
HETATM   10  C9  UNL     1      -4.296   6.397   9.593  1.00  0.00     0.111 C 
HETATM   11  C11 UNL     1      -5.595   6.966   9.847  1.00  0.00     0.154 C 
HETATM   12  O2  UNL     1      -6.599   6.347   9.501  1.00  0.00    -0.296 OA
HETATM   13  C12 UNL     1      -2.915   4.344  11.564  1.00  0.00     0.293 C 
HETATM   14  C13 UNL     1      -1.791   3.609  12.119  1.00  0.00     0.083 C 
ENDROOT
BRANCH  13  15
HETATM   15  C14 UNL     1      -4.187   3.916  12.151  1.00  0.00     0.170 C 
HETATM   16  S1  UNL     1      -4.581   2.343  12.146  1.00  0.00    -0.053 SA
BRANCH  15  17
HETATM   17  O3  UNL     1      -5.052   4.825  12.709  1.00  0.00    -0.351 OA
ATOM     18  H3  UNL     1      -5.926   4.569  12.980  1.00  0.00     0.218 HD
ENDBRANCH  15  17
ENDBRANCH  13  15
BRANCH  10  19
HETATM   19  C10 UNL     1      -3.691   6.983   8.369  1.00  0.00     0.189 C 
BRANCH  19  20
HETATM   20  O1  UNL     1      -4.524   7.354   7.344  1.00  0.00    -0.399 OA
ATOM     21  H1  UNL     1      -4.151   7.827   6.609  1.00  0.00     0.209 HD
ENDBRANCH  19  20
ENDBRANCH  10  19
BRANCH   2  22
HETATM   22  C3  UNL     1      -6.581   9.243   9.632  1.00  0.00     0.102 C 
HETATM   23 BR1  UNL     1      -5.979  11.026  10.174  1.00  0.00    -0.095 Br
ENDBRANCH   2  22
TORSDOF 5
ENDMDL
MODEL 2
REMARK VINA RESULT: -5.226500244      3.073      5.100
REMARK  5 active torsions:
REMARK  status: ('A' for Active; 'I' for Inactive)
REMARK    1  A    between atoms: C2_2  and  C3_3 
REMARK    2  A    between atoms: C9_12  and  C10_13 
REMARK    3  A    between atoms: C10_13  and  O1_14 
REMARK    4  A    between atoms: C12_18  and  C14_20 
REMARK    5  A    between atoms: C14_20  and  O3_21 
ROOT
HETATM    1  C1  UNL     1      -6.080   4.433  13.695  1.00  0.00     0.024 C 
HETATM    2  C2  UNL     1      -4.725   3.698  13.641  1.00  0.00     0.030 C 
HETATM    3  C4  UNL     1      -4.812   2.473  12.766  1.00  0.00     0.047 C 
HETATM    4  C5  UNL     1      -4.591   2.867  11.328  1.00  0.00     0.001 C 
HETATM    5  C6  UNL     1      -3.780   3.794  10.955  1.00  0.00     0.028 C 
HETATM    6  N1  UNL     1      -3.348   4.405   9.846  1.00  0.00    -0.316 N 
HETATM    7  C7  UNL     1      -2.099   4.464   9.240  1.00  0.00     0.404 C 
HETATM    8  N2  UNL     1      -2.280   5.895   9.819  1.00  0.00     0.143 N 
HETATM    9  C8  UNL     1      -2.580   5.840  11.222  1.00  0.00     0.304 C 
HETATM   10  C9  UNL     1      -2.896   4.595  12.014  1.00  0.00     0.111 C 
HETATM   11  C11 UNL     1      -3.784   4.737  13.140  1.00  0.00     0.154 C 
HETATM   12  O2  UNL     1      -3.793   5.793  13.767  1.00  0.00    -0.296 OA
HETATM   13  C12 UNL     1      -3.664   5.562   9.100  1.00  0.00     0.293 C 
HETATM   14  C13 UNL     1      -3.535   5.603   7.654  1.00  0.00     0.083 C 
ENDROOT
BRANCH  13  15
HETATM   15  C14 UNL     1      -4.648   6.532   9.587  1.00  0.00     0.170 C 
HETATM   16  S1  UNL     1      -4.530   8.086   9.136  1.00  0.00    -0.053 SA
BRANCH  15  17
HETATM   17  O3  UNL     1      -5.672   6.149  10.417  1.00  0.00    -0.351 OA
ATOM     18  H3  UNL     1      -6.540   6.525  10.333  1.00  0.00     0.218 HD
ENDBRANCH  15  17
ENDBRANCH  13  15
BRANCH  10  19
HETATM   19  C10 UNL     1      -1.665   3.859  12.399  1.00  0.00     0.189 C 
BRANCH  19  20
HETATM   20  O1  UNL     1      -1.214   3.972  13.690  1.00  0.00    -0.399 OA
ATOM     21  H1  UNL     1      -0.763   3.231  14.077  1.00  0.00     0.209 HD
ENDBRANCH  19  20
ENDBRANCH  10  19
BRANCH   2  22
HETATM   22  C3  UNL     1      -4.441   3.273  15.045  1.00  0.00     0.102 C 
HETATM   23 BR1  UNL     1      -5.951   3.901  16.123  1.00  0.00    -0.095 Br
ENDBRANCH   2  22
TORSDOF 5
ENDMDL
MODEL 3
REMARK VINA RESULT: -5.001751241      1.441      1.470
REMARK  5 active torsions:
REMARK  status: ('A' for Active; 'I' for Inactive)
REMARK    1  A    between atoms: C2_2  and  C3_3 
REMARK    2  A    between atoms: C9_12  and  C10_13 
REMARK    3  A    between atoms: C10_13  and  O1_14 
REMARK    4  A    between atoms: C12_18  and  C14_20 
REMARK    5  A    between atoms: C14_20  and  O3_21 
ROOT
HETATM    1  C1  UNL     1      -6.866   8.133  10.151  1.00  0.00     0.024 C 
HETATM    2  C2  UNL     1      -5.800   7.899   9.062  1.00  0.00     0.030 C 
HETATM    3  C4  UNL     1      -4.575   8.740   9.318  1.00  0.00     0.047 C 
HETATM    4  C5  UNL     1      -3.666   8.023  10.282  1.00  0.00     0.001 C 
HETATM    5  C6  UNL     1      -3.511   6.746  10.306  1.00  0.00     0.028 C 
HETATM    6  N1  UNL     1      -2.849   5.797  10.979  1.00  0.00    -0.316 N 
HETATM    7  C7  UNL     1      -1.863   4.897  10.593  1.00  0.00     0.404 C 
HETATM    8  N2  UNL     1      -3.115   3.993  10.781  1.00  0.00     0.143 N 
HETATM    9  C8  UNL     1      -4.217   4.486  10.003  1.00  0.00     0.304 C 
HETATM   10  C9  UNL     1      -4.264   5.802   9.265  1.00  0.00     0.111 C 
HETATM   11  C11 UNL     1      -5.552   6.432   9.124  1.00  0.00     0.154 C 
HETATM   12  O2  UNL     1      -6.558   5.731   9.045  1.00  0.00    -0.296 OA
HETATM   13  C12 UNL     1      -3.085   4.932  12.070  1.00  0.00     0.293 C 
HETATM   14  C13 UNL     1      -2.027   4.544  12.986  1.00  0.00     0.083 C 
ENDROOT
BRANCH  13  15
HETATM   15  C14 UNL     1      -4.407   4.847  12.697  1.00  0.00     0.170 C 
HETATM   16  S1  UNL     1      -4.834   3.493  13.482  1.00  0.00    -0.053 SA
BRANCH  15  17
HETATM   17  O3  UNL     1      -5.290   5.896  12.636  1.00  0.00    -0.351 OA
ATOM     18  H3  UNL     1      -5.338   6.540  13.333  1.00  0.00     0.218 HD
ENDBRANCH  15  17
ENDBRANCH  13  15
BRANCH  10  19
HETATM   19  C10 UNL     1      -3.565   5.726   7.957  1.00  0.00     0.189 C 
BRANCH  19  20
HETATM   20  O1  UNL     1      -4.292   5.375   6.848  1.00  0.00    -0.399 OA
ATOM     21  H1  UNL     1      -4.519   4.460   6.728  1.00  0.00     0.209 HD
ENDBRANCH  19  20
ENDBRANCH  10  19
BRANCH   2  22
HETATM   22  C3  UNL     1      -6.430   8.336   7.780  1.00  0.00     0.102 C 
HETATM   23 BR1  UNL     1      -8.306   8.717   8.194  1.00  0.00    -0.095 Br
ENDBRANCH   2  22
TORSDOF 5
ENDMDL
MODEL 4
REMARK VINA RESULT: -4.947123773      3.593      5.043
REMARK  5 active torsions:
REMARK  status: ('A' for Active; 'I' for Inactive)
REMARK    1  A    between atoms: C2_2  and  C3_3 
REMARK    2  A    between atoms: C9_12  and  C10_13 
REMARK    3  A    between atoms: C10_13  and  O1_14 
REMARK    4  A    between atoms: C12_18  and  C14_20 
REMARK    5  A    between atoms: C14_20  and  O3_21 
ROOT
HETATM    1  C1  UNL     1      -2.859   2.120  12.392  1.00  0.00     0.024 C 
HETATM    2  C2  UNL     1      -4.027   3.015  11.934  1.00  0.00     0.030 C 
HETATM    3  C4  UNL     1      -4.691   3.679  13.114  1.00  0.00     0.047 C 
HETATM    4  C5  UNL     1      -3.941   4.936  13.470  1.00  0.00     0.001 C 
HETATM    5  C6  UNL     1      -3.384   5.709  12.604  1.00  0.00     0.028 C 
HETATM    6  N1  UNL     1      -2.663   6.833  12.534  1.00  0.00    -0.316 N 
HETATM    7  C7  UNL     1      -2.930   8.079  11.980  1.00  0.00     0.404 C 
HETATM    8  N2  UNL     1      -1.874   7.479  11.010  1.00  0.00     0.143 N 
HETATM    9  C8  UNL     1      -2.296   6.191  10.535  1.00  0.00     0.304 C 
HETATM   10  C9  UNL     1      -3.479   5.403  11.042  1.00  0.00     0.111 C 
HETATM   11  C11 UNL     1      -3.388   3.966  10.984  1.00  0.00     0.154 C 
HETATM   12  O2  UNL     1      -2.733   3.443  10.085  1.00  0.00    -0.296 OA
HETATM   13  C12 UNL     1      -1.300   7.198  12.471  1.00  0.00     0.293 C 
HETATM   14  C13 UNL     1      -0.800   8.413  13.089  1.00  0.00     0.083 C 
ENDROOT
BRANCH  13  15
HETATM   15  C14 UNL     1      -0.250   6.185  12.335  1.00  0.00     0.170 C 
HETATM   16  S1  UNL     1       1.176   6.594  11.680  1.00  0.00    -0.053 SA
BRANCH  15  17
HETATM   17  O3  UNL     1      -0.451   4.894  12.757  1.00  0.00    -0.351 OA
ATOM     18  H3  UNL     1       0.141   4.481  13.374  1.00  0.00     0.218 HD
ENDBRANCH  15  17
ENDBRANCH  13  15
BRANCH  10  19
HETATM   19  C10 UNL     1      -4.754   5.877  10.446  1.00  0.00     0.189 C 
BRANCH  19  20
HETATM   20  O1  UNL     1      -5.296   5.160   9.409  1.00  0.00    -0.399 OA
ATOM     21  H1  UNL     1      -6.095   5.480   9.008  1.00  0.00     0.209 HD
ENDBRANCH  19  20
ENDBRANCH  10  19
BRANCH   2  22
HETATM   22  C3  UNL     1      -5.006   2.097  11.279  1.00  0.00     0.102 C 
HETATM   23 BR1  UNL     1      -4.429   0.277  11.719  1.00  0.00    -0.095 Br
ENDBRANCH   2  22
TORSDOF 5
ENDMDL
MODEL 5
REMARK VINA RESULT: -4.887839748      3.235      5.264
REMARK  5 active torsions:
REMARK  status: ('A' for Active; 'I' for Inactive)
REMARK    1  A    between atoms: C2_2  and  C3_3 
REMARK    2  A    between atoms: C9_12  and  C10_13 
REMARK    3  A    between atoms: C10_13  and  O1_14 
REMARK    4  A    between atoms: C12_18  and  C14_20 
REMARK    5  A    between atoms: C14_20  and  O3_21 
ROOT
HETATM    1  C1  UNL     1      -2.679   6.580  10.456  1.00  0.00     0.024 C 
HETATM    2  C2  UNL     1      -3.745   7.331  11.280  1.00  0.00     0.030 C 
HETATM    3  C4  UNL     1      -3.582   8.823  11.137  1.00  0.00     0.047 C 
HETATM    4  C5  UNL     1      -4.297   9.289   9.895  1.00  0.00     0.001 C 
HETATM    5  C6  UNL     1      -5.398   8.779   9.467  1.00  0.00     0.028 C 
HETATM    6  N1  UNL     1      -6.273   8.902   8.462  1.00  0.00    -0.316 N 
HETATM    7  C7  UNL     1      -7.610   9.279   8.431  1.00  0.00     0.404 C 
HETATM    8  N2  UNL     1      -7.665   7.752   8.139  1.00  0.00     0.143 N 
HETATM    9  C8  UNL     1      -6.978   7.016   9.162  1.00  0.00     0.304 C 
HETATM   10  C9  UNL     1      -6.129   7.605  10.262  1.00  0.00     0.111 C 
HETATM   11  C11 UNL     1      -5.033   6.807  10.748  1.00  0.00     0.154 C 
HETATM   12  O2  UNL     1      -5.132   5.583  10.738  1.00  0.00    -0.296 OA
HETATM   13  C12 UNL     1      -6.503   8.311   7.200  1.00  0.00     0.293 C 
HETATM   14  C13 UNL     1      -7.040   9.070   6.084  1.00  0.00     0.083 C 
ENDROOT
BRANCH  13  15
HETATM   15  C14 UNL     1      -5.721   7.158   6.748  1.00  0.00     0.170 C 
HETATM   16  S1  UNL     1      -4.106   7.276   6.653  1.00  0.00    -0.053 SA
BRANCH  15  17
HETATM   17  O3  UNL     1      -6.330   5.977   6.406  1.00  0.00    -0.351 OA
ATOM     18  H3  UNL     1      -6.658   5.382   7.071  1.00  0.00     0.218 HD
ENDBRANCH  15  17
ENDBRANCH  13  15
BRANCH  10  19
HETATM   19  C10 UNL     1      -6.957   8.110  11.387  1.00  0.00     0.189 C 
BRANCH  19  20
HETATM   20  O1  UNL     1      -7.184   7.278  12.454  1.00  0.00    -0.399 OA
ATOM     21  H1  UNL     1      -7.928   7.458  13.017  1.00  0.00     0.209 HD
ENDBRANCH  19  20
ENDBRANCH  10  19
BRANCH   2  22
HETATM   22  C3  UNL     1      -3.496   6.950  12.703  1.00  0.00     0.102 C 
HETATM   23 BR1  UNL     1      -1.965   8.016  13.297  1.00  0.00    -0.095 Br
ENDBRANCH   2  22
TORSDOF 5
ENDMDL
