MODEL 1
REMARK VINA RESULT: -8.781181818      0.000      0.000
REMARK  4 active torsions:
REMARK  status: ('A' for Active; 'I' for Inactive)
REMARK    1  A    between atoms: C7_8  and  N2_9 
REMARK    2  A    between atoms: N4_19  and  C13_21 
REMARK    3  A    between atoms: C13_21  and  C14_22 
REMARK    4  A    between atoms: C15_23  and  C16_24 
ROOT
HETATM    1  C1  UNL     1      -6.470   2.916  18.813  1.00  0.00     0.052 C 
HETATM    2  C2  UNL     1      -6.009   2.985  17.391  1.00  0.00    -0.020 A 
HETATM    3  C3  UNL     1      -6.032   4.109  16.652  1.00  0.00     0.100 A 
HETATM    4  N1  UNL     1      -5.620   4.216  15.346  1.00  0.00    -0.358 N 
HETATM    5  C4  UNL     1      -5.692   5.461  14.659  1.00  0.00     0.156 C 
HETATM    6  C5  UNL     1      -5.157   3.059  14.802  1.00  0.00     0.070 A 
HETATM    7  C6  UNL     1      -5.108   1.887  15.506  1.00  0.00    -0.002 A 
HETATM    8  C7  UNL     1      -5.543   1.841  16.831  1.00  0.00     0.041 A 
HETATM    9  C8  UNL     1      -4.592   0.647  14.905  1.00  0.00     0.048 A 
HETATM   10  C9  UNL     1      -4.207   0.636  13.494  1.00  0.00     0.047 A 
HETATM   11  C10 UNL     1      -4.234   1.918  12.804  1.00  0.00    -0.012 A 
HETATM   12  C11 UNL     1      -3.786   1.993  11.466  1.00  0.00     0.115 A 
HETATM   13  N3  UNL     1      -3.840   3.162  10.868  1.00  0.00    -0.201 N 
ATOM     14  H3  UNL     1      -3.518   3.222   9.901  1.00  0.00     0.183 HD
HETATM   15  C12 UNL     1      -4.306   4.310  11.467  1.00  0.00     0.678 A 
HETATM   16  N4  UNL     1      -4.299   5.392  10.753  1.00  0.00    -0.226 N 
ATOM     17  H4  UNL     1      -3.951   5.333   9.796  1.00  0.00     0.177 HD
HETATM   18  N5  UNL     1      -4.720   4.197  12.728  1.00  0.00    -0.189 N 
ATOM     19  H5  UNL     1      -5.071   5.033  13.197  1.00  0.00     0.184 HD
HETATM   20  C21 UNL     1      -4.700   3.063  13.405  1.00  0.00     0.084 A 
ENDROOT
BRANCH  16  21
HETATM   21  C13 UNL     1      -4.747   6.656  11.226  1.00  0.00     0.144 C 
BRANCH  21  22
HETATM   22  C14 UNL     1      -4.855   7.590  10.065  1.00  0.00     0.020 A 
HETATM   23  C15 UNL     1      -6.106   8.487   9.988  1.00  0.00     0.030 A 
HETATM   24  C17 UNL     1      -5.779   7.485   8.969  1.00  0.00    -0.029 A 
HETATM   25  C18 UNL     1      -5.495   7.813   7.549  1.00  0.00     0.010 C 
HETATM   26  C20 UNL     1      -6.613   6.328   8.605  1.00  0.00     0.010 C 
HETATM   27  C19 UNL     1      -6.101   6.471   7.165  1.00  0.00     0.002 C 
BRANCH  23  28
HETATM   28  C16 UNL     1      -7.229   8.249  10.937  1.00  0.00     0.228 C 
HETATM   29  F1  UNL     1      -7.260   9.045  12.037  1.00  0.00    -0.255 F 
ENDBRANCH  23  28
ENDBRANCH  21  22
ENDBRANCH  16  21
BRANCH   8  30
HETATM   30  N2  UNL     1      -5.482   0.744  17.455  1.00  0.00    -0.398 N 
ATOM     31  H22 UNL     1      -6.065  -0.032  17.144  1.00  0.00     0.156 HD
ATOM     32  H21 UNL     1      -4.871   0.593  18.258  1.00  0.00     0.156 HD
ENDBRANCH   8  30
TORSDOF 4
ENDMDL
MODEL 2
REMARK VINA RESULT: -8.046019118      1.030      1.403
REMARK  4 active torsions:
REMARK  status: ('A' for Active; 'I' for Inactive)
REMARK    1  A    between atoms: C7_8  and  N2_9 
REMARK    2  A    between atoms: N4_19  and  C13_21 
REMARK    3  A    between atoms: C13_21  and  C14_22 
REMARK    4  A    between atoms: C15_23  and  C16_24 
ROOT
HETATM    1  C1  UNL     1      -6.464   3.108  18.981  1.00  0.00     0.052 C 
HETATM    2  C2  UNL     1      -5.996   3.026  17.561  1.00  0.00    -0.020 A 
HETATM    3  C3  UNL     1      -5.972   4.077  16.721  1.00  0.00     0.100 A 
HETATM    4  N1  UNL     1      -5.552   4.046  15.413  1.00  0.00    -0.358 N 
HETATM    5  C4  UNL     1      -5.572   5.223  14.615  1.00  0.00     0.156 C 
HETATM    6  C5  UNL     1      -5.134   2.826  14.983  1.00  0.00     0.070 A 
HETATM    7  C6  UNL     1      -5.134   1.724  15.792  1.00  0.00    -0.002 A 
HETATM    8  C7  UNL     1      -5.574   1.817  17.113  1.00  0.00     0.041 A 
HETATM    9  C8  UNL     1      -4.666   0.414  15.312  1.00  0.00     0.048 A 
HETATM   10  C9  UNL     1      -4.278   0.256  13.911  1.00  0.00     0.047 A 
HETATM   11  C10 UNL     1      -4.251   1.469  13.105  1.00  0.00    -0.012 A 
HETATM   12  C11 UNL     1      -3.796   1.402  11.769  1.00  0.00     0.115 A 
HETATM   13  N3  UNL     1      -3.802   2.512  11.064  1.00  0.00    -0.201 N 
ATOM     14  H3  UNL     1      -3.474   2.470  10.099  1.00  0.00     0.183 HD
HETATM   15  C12 UNL     1      -4.223   3.728  11.552  1.00  0.00     0.678 A 
HETATM   16  N4  UNL     1      -4.170   4.738  10.741  1.00  0.00    -0.226 N 
ATOM     17  H4  UNL     1      -3.823   4.577   9.796  1.00  0.00     0.177 HD
HETATM   18  N5  UNL     1      -4.645   3.749  12.815  1.00  0.00    -0.189 N 
ATOM     19  H5  UNL     1      -4.964   4.638  13.202  1.00  0.00     0.184 HD
HETATM   20  C21 UNL     1      -4.673   2.682  13.594  1.00  0.00     0.084 A 
ENDROOT
BRANCH  16  21
HETATM   21  C13 UNL     1      -4.569   6.058  11.092  1.00  0.00     0.144 C 
BRANCH  21  22
HETATM   22  C14 UNL     1      -4.876   6.813   9.840  1.00  0.00     0.020 A 
HETATM   23  C15 UNL     1      -4.458   8.295   9.784  1.00  0.00     0.030 A 
HETATM   24  C17 UNL     1      -5.853   7.856   9.690  1.00  0.00    -0.029 A 
HETATM   25  C18 UNL     1      -6.715   8.086   8.503  1.00  0.00     0.010 C 
HETATM   26  C20 UNL     1      -6.931   8.218  10.626  1.00  0.00     0.010 C 
HETATM   27  C19 UNL     1      -7.908   8.177   9.443  1.00  0.00     0.002 C 
BRANCH  23  28
HETATM   28  C16 UNL     1      -3.964   8.957  11.024  1.00  0.00     0.228 C 
HETATM   29  F1  UNL     1      -4.134  10.303  11.090  1.00  0.00    -0.255 F 
ENDBRANCH  23  28
ENDBRANCH  21  22
ENDBRANCH  16  21
BRANCH   8  30
HETATM   30  N2  UNL     1      -5.559   0.781  17.836  1.00  0.00    -0.398 N 
ATOM     31  H22 UNL     1      -5.933   0.836  18.783  1.00  0.00     0.156 HD
ATOM     32  H21 UNL     1      -5.192  -0.115  17.516  1.00  0.00     0.156 HD
ENDBRANCH   8  30
TORSDOF 4
ENDMDL
MODEL 3
REMARK VINA RESULT: -7.869403652      1.261      1.504
REMARK  4 active torsions:
REMARK  status: ('A' for Active; 'I' for Inactive)
REMARK    1  A    between atoms: C7_8  and  N2_9 
REMARK    2  A    between atoms: N4_19  and  C13_21 
REMARK    3  A    between atoms: C13_21  and  C14_22 
REMARK    4  A    between atoms: C15_23  and  C16_24 
ROOT
HETATM    1  C1  UNL     1      -6.158   3.708  17.882  1.00  0.00     0.052 C 
HETATM    2  C2  UNL     1      -5.754   3.717  16.441  1.00  0.00    -0.020 A 
HETATM    3  C3  UNL     1      -5.795   4.812  15.660  1.00  0.00     0.100 A 
HETATM    4  N1  UNL     1      -5.435   4.864  14.336  1.00  0.00    -0.358 N 
HETATM    5  C4  UNL     1      -5.521   6.082  13.606  1.00  0.00     0.156 C 
HETATM    6  C5  UNL     1      -5.007   3.681  13.820  1.00  0.00     0.070 A 
HETATM    7  C6  UNL     1      -4.944   2.537  14.565  1.00  0.00    -0.002 A 
HETATM    8  C7  UNL     1      -5.325   2.546  15.908  1.00  0.00     0.041 A 
HETATM    9  C8  UNL     1      -4.466   1.268  13.992  1.00  0.00     0.048 A 
HETATM   10  C9  UNL     1      -4.139   1.198  12.569  1.00  0.00     0.047 A 
HETATM   11  C10 UNL     1      -4.179   2.453  11.831  1.00  0.00    -0.012 A 
HETATM   12  C11 UNL     1      -3.785   2.471  10.475  1.00  0.00     0.115 A 
HETATM   13  N3  UNL     1      -3.850   3.618   9.834  1.00  0.00    -0.201 N 
ATOM     14  H3  UNL     1      -3.566   3.637   8.854  1.00  0.00     0.183 HD
HETATM   15  C12 UNL     1      -4.278   4.794  10.407  1.00  0.00     0.678 A 
HETATM   16  N4  UNL     1      -4.287   5.847   9.652  1.00  0.00    -0.226 N 
ATOM     17  H4  UNL     1      -3.980   5.747   8.685  1.00  0.00     0.177 HD
HETATM   18  N5  UNL     1      -4.641   4.734  11.686  1.00  0.00    -0.189 N 
ATOM     19  H5  UNL     1      -4.964   5.591  12.137  1.00  0.00     0.184 HD
HETATM   20  C21 UNL     1      -4.608   3.626  12.406  1.00  0.00     0.084 A 
ENDROOT
BRANCH  16  21
HETATM   21  C13 UNL     1      -4.702   7.134  10.094  1.00  0.00     0.144 C 
BRANCH  21  22
HETATM   22  C14 UNL     1      -5.195   7.908   8.914  1.00  0.00     0.020 A 
HETATM   23  C15 UNL     1      -5.464   9.412   9.114  1.00  0.00     0.030 A 
HETATM   24  C17 UNL     1      -6.512   8.457   8.744  1.00  0.00    -0.029 A 
HETATM   25  C18 UNL     1      -7.278   8.520   7.474  1.00  0.00     0.010 C 
HETATM   26  C20 UNL     1      -7.718   8.159   9.534  1.00  0.00     0.010 C 
HETATM   27  C19 UNL     1      -8.469   7.932   8.215  1.00  0.00     0.002 C 
BRANCH  23  28
HETATM   28  C16 UNL     1      -5.421   9.981  10.490  1.00  0.00     0.228 C 
HETATM   29  F1  UNL     1      -6.437  10.820  10.820  1.00  0.00    -0.255 F 
ENDBRANCH  23  28
ENDBRANCH  21  22
ENDBRANCH  16  21
BRANCH   8  30
HETATM   30  N2  UNL     1      -5.251   1.473  16.570  1.00  0.00    -0.398 N 
ATOM     31  H22 UNL     1      -5.046   1.523  17.568  1.00  0.00     0.156 HD
ATOM     32  H21 UNL     1      -5.391   0.552  16.155  1.00  0.00     0.156 HD
ENDBRANCH   8  30
TORSDOF 4
ENDMDL
MODEL 4
REMARK VINA RESULT: -7.805865343      1.245      1.611
REMARK  4 active torsions:
REMARK  status: ('A' for Active; 'I' for Inactive)
REMARK    1  A    between atoms: C7_8  and  N2_9 
REMARK    2  A    between atoms: N4_19  and  C13_21 
REMARK    3  A    between atoms: C13_21  and  C14_22 
REMARK    4  A    between atoms: C15_23  and  C16_24 
ROOT
HETATM    1  C1  UNL     1      -6.498   2.674  19.096  1.00  0.00     0.052 C 
HETATM    2  C2  UNL     1      -6.042   2.845  17.680  1.00  0.00    -0.020 A 
HETATM    3  C3  UNL     1      -6.077   4.017  17.020  1.00  0.00     0.100 A 
HETATM    4  N1  UNL     1      -5.670   4.217  15.723  1.00  0.00    -0.358 N 
HETATM    5  C4  UNL     1      -5.755   5.505  15.124  1.00  0.00     0.156 C 
HETATM    6  C5  UNL     1      -5.199   3.103  15.101  1.00  0.00     0.070 A 
HETATM    7  C6  UNL     1      -5.138   1.887  15.722  1.00  0.00    -0.002 A 
HETATM    8  C7  UNL     1      -5.568   1.746  17.042  1.00  0.00     0.041 A 
HETATM    9  C8  UNL     1      -4.614   0.695  15.036  1.00  0.00     0.048 A 
HETATM   10  C9  UNL     1      -4.234   0.784  13.627  1.00  0.00     0.047 A 
HETATM   11  C10 UNL     1      -4.273   2.110  13.026  1.00  0.00    -0.012 A 
HETATM   12  C11 UNL     1      -3.830   2.281  11.696  1.00  0.00     0.115 A 
HETATM   13  N3  UNL     1      -3.896   3.488  11.179  1.00  0.00    -0.201 N 
ATOM     14  H3  UNL     1      -3.578   3.617  10.218  1.00  0.00     0.183 HD
HETATM   15  C12 UNL     1      -4.370   4.588  11.857  1.00  0.00     0.678 A 
HETATM   16  N4  UNL     1      -4.374   5.717  11.218  1.00  0.00    -0.226 N 
ATOM     17  H4  UNL     1      -4.029   5.727  10.259  1.00  0.00     0.177 HD
HETATM   18  N5  UNL     1      -4.778   4.386  13.108  1.00  0.00    -0.189 N 
ATOM     19  H5  UNL     1      -5.135   5.184  13.634  1.00  0.00     0.184 HD
HETATM   20  C21 UNL     1      -4.747   3.208  13.706  1.00  0.00     0.084 A 
ENDROOT
BRANCH  16  21
HETATM   21  C13 UNL     1      -4.832   6.941  11.779  1.00  0.00     0.144 C 
BRANCH  21  22
HETATM   22  C14 UNL     1      -3.847   8.015  11.447  1.00  0.00     0.020 A 
HETATM   23  C15 UNL     1      -4.397   9.318  10.834  1.00  0.00     0.030 A 
HETATM   24  C17 UNL     1      -3.458   8.439  10.130  1.00  0.00    -0.029 A 
HETATM   25  C18 UNL     1      -2.096   8.852   9.709  1.00  0.00     0.010 C 
HETATM   26  C20 UNL     1      -3.719   7.755   8.853  1.00  0.00     0.010 C 
HETATM   27  C19 UNL     1      -2.230   7.916   8.517  1.00  0.00     0.002 C 
BRANCH  23  28
HETATM   28  C16 UNL     1      -5.825   9.377  10.415  1.00  0.00     0.228 C 
HETATM   29  F1  UNL     1      -6.660  10.065  11.236  1.00  0.00    -0.255 F 
ENDBRANCH  23  28
ENDBRANCH  21  22
ENDBRANCH  16  21
BRANCH   8  30
HETATM   30  N2  UNL     1      -5.496   0.609  17.589  1.00  0.00    -0.398 N 
ATOM     31  H22 UNL     1      -6.330   0.220  18.028  1.00  0.00     0.156 HD
ATOM     32  H21 UNL     1      -4.640   0.055  17.611  1.00  0.00     0.156 HD
ENDBRANCH   8  30
TORSDOF 4
ENDMDL
MODEL 5
REMARK VINA RESULT: -7.729610291      1.856      2.736
REMARK  4 active torsions:
REMARK  status: ('A' for Active; 'I' for Inactive)
REMARK    1  A    between atoms: C7_8  and  N2_9 
REMARK    2  A    between atoms: N4_19  and  C13_21 
REMARK    3  A    between atoms: C13_21  and  C14_22 
REMARK    4  A    between atoms: C15_23  and  C16_24 
ROOT
HETATM    1  C1  UNL     1      -6.487   2.666  19.090  1.00  0.00     0.052 C 
HETATM    2  C2  UNL     1      -6.014   2.761  17.673  1.00  0.00    -0.020 A 
HETATM    3  C3  UNL     1      -6.007   3.904  16.963  1.00  0.00     0.100 A 
HETATM    4  N1  UNL     1      -5.582   4.035  15.663  1.00  0.00    -0.358 N 
HETATM    5  C4  UNL     1      -5.622   5.298  15.008  1.00  0.00     0.156 C 
HETATM    6  C5  UNL     1      -5.140   2.882  15.093  1.00  0.00     0.070 A 
HETATM    7  C6  UNL     1      -5.123   1.692  15.767  1.00  0.00    -0.002 A 
HETATM    8  C7  UNL     1      -5.569   1.622  17.087  1.00  0.00     0.041 A 
HETATM    9  C8  UNL     1      -4.630   0.457  15.137  1.00  0.00     0.048 A 
HETATM   10  C9  UNL     1      -4.235   0.473  13.730  1.00  0.00     0.047 A 
HETATM   11  C10 UNL     1      -4.228   1.772  13.073  1.00  0.00    -0.012 A 
HETATM   12  C11 UNL     1      -3.768   1.872  11.741  1.00  0.00     0.115 A 
HETATM   13  N3  UNL     1      -3.792   3.057  11.172  1.00  0.00    -0.201 N 
ATOM     14  H3  UNL     1      -3.461   3.135  10.210  1.00  0.00     0.183 HD
HETATM   15  C12 UNL     1      -4.237   4.200  11.797  1.00  0.00     0.678 A 
HETATM   16  N4  UNL     1      -4.200   5.299  11.111  1.00  0.00    -0.226 N 
ATOM     17  H4  UNL     1      -3.846   5.257  10.156  1.00  0.00     0.177 HD
HETATM   18  N5  UNL     1      -4.662   4.064  13.052  1.00  0.00    -0.189 N 
ATOM     19  H5  UNL     1      -4.998   4.894  13.539  1.00  0.00     0.184 HD
HETATM   20  C21 UNL     1      -4.673   2.912  13.700  1.00  0.00     0.084 A 
ENDROOT
BRANCH  16  21
HETATM   21  C13 UNL     1      -4.624   6.560  11.614  1.00  0.00     0.144 C 
BRANCH  21  22
HETATM   22  C14 UNL     1      -3.518   7.145  12.431  1.00  0.00     0.020 A 
HETATM   23  C15 UNL     1      -3.040   8.564  12.068  1.00  0.00     0.030 A 
HETATM   24  C17 UNL     1      -2.170   7.387  11.994  1.00  0.00    -0.029 A 
HETATM   25  C18 UNL     1      -0.941   7.214  12.808  1.00  0.00     0.010 C 
HETATM   26  C20 UNL     1      -1.516   6.879  10.777  1.00  0.00     0.010 C 
HETATM   27  C19 UNL     1      -0.341   6.425  11.654  1.00  0.00     0.002 C 
BRANCH  23  28
HETATM   28  C16 UNL     1      -3.543   9.202  10.820  1.00  0.00     0.228 C 
HETATM   29  F1  UNL     1      -4.682   9.933  10.939  1.00  0.00    -0.255 F 
ENDBRANCH  23  28
ENDBRANCH  21  22
ENDBRANCH  16  21
BRANCH   8  30
HETATM   30  N2  UNL     1      -5.537   0.508  17.683  1.00  0.00    -0.398 N 
ATOM     31  H22 UNL     1      -6.402  -0.024  17.780  1.00  0.00     0.156 HD
ATOM     32  H21 UNL     1      -4.683   0.108  18.071  1.00  0.00     0.156 HD
ENDBRANCH   8  30
TORSDOF 4
ENDMDL
