MODEL 1
REMARK VINA RESULT: -8.479808783      0.000      0.000
REMARK  8 active torsions:
REMARK  status: ('A' for Active; 'I' for Inactive)
REMARK    1  A    between atoms: O1_2  and  C2_3 
REMARK    2  A    between atoms: C2_3  and  C3_5 
REMARK    3  A    between atoms: C6_8  and  C7_9 
REMARK    4  A    between atoms: C7_9  and  C8_11 
REMARK    5  A    between atoms: C11_16  and  C12_17 
REMARK    6  A    between atoms: C12_17  and  O4_18 
REMARK    7  A    between atoms: C12_17  and  C13_20 
REMARK    8  A    between atoms: C16_23  and  O5_24 
ROOT
HETATM    1  C8  UNL     1       2.724   1.592  21.722  1.00  0.00     0.118 A 
HETATM    2  N1  UNL     1       1.750   2.481  21.671  1.00  0.00    -0.354 N 
ATOM      3  H1  UNL     1       1.345   2.833  20.804  1.00  0.00     0.166 HD
HETATM    4  C9  UNL     1       1.353   2.867  22.894  1.00  0.00     0.021 A 
HETATM    5  C10 UNL     1       0.303   3.862  23.234  1.00  0.00     0.069 C 
HETATM    6  C11 UNL     1       2.099   2.200  23.843  1.00  0.00     0.051 A 
HETATM    7  C16 UNL     1       2.954   1.395  23.109  1.00  0.00     0.111 A 
ENDROOT
BRANCH   1   8
HETATM    8  C7  UNL     1       3.490   0.909  20.721  1.00  0.00     0.215 C 
HETATM    9  O3  UNL     1       3.499  -0.384  20.780  1.00  0.00    -0.285 OA
BRANCH   8  10
HETATM   10  C6  UNL     1       4.274   1.483  19.651  1.00  0.00     0.064 A 
HETATM   11  C4  UNL     1       3.989   1.297  18.290  1.00  0.00    -0.011 A 
HETATM   12  C3  UNL     1       4.924   1.884  17.504  1.00  0.00     0.118 A 
HETATM   13  C5  UNL     1       2.770   0.582  17.825  1.00  0.00     0.052 C 
HETATM   14  N2  UNL     1       5.812   2.457  18.339  1.00  0.00    -0.336 N 
HETATM   15  C17 UNL     1       5.432   2.220  19.628  1.00  0.00     0.121 A 
HETATM   16  C18 UNL     1       6.997   3.243  17.989  1.00  0.00     0.157 C 
HETATM   17 CL1  UNL     1       6.412   2.712  20.997  1.00  0.00    -0.063 Cl
BRANCH  12  18
HETATM   18  C2  UNL     1       5.098   1.795  16.067  1.00  0.00     0.310 C 
HETATM   19  O2  UNL     1       4.334   2.376  15.239  1.00  0.00    -0.258 OA
BRANCH  18  20
HETATM   20  O1  UNL     1       6.116   1.068  15.443  1.00  0.00    -0.321 OA
HETATM   21  C1  UNL     1       6.653  -0.131  15.896  1.00  0.00     0.213 C 
ENDBRANCH  18  20
ENDBRANCH  12  18
ENDBRANCH   8  10
ENDBRANCH   1   8
BRANCH   7  22
HETATM   22  O5  UNL     1       3.899   0.520  23.596  1.00  0.00    -0.357 OA
ATOM     23  H5  UNL     1       4.448   0.715  24.347  1.00  0.00     0.217 HD
ENDBRANCH   7  22
BRANCH   6  24
HETATM   24  C12 UNL     1       2.015   2.319  25.287  1.00  0.00     0.061 C 
BRANCH  24  25
HETATM   25  O4  UNL     1       0.923   2.890  25.704  1.00  0.00    -0.364 OA
ATOM     26  H4  UNL     1       0.455   2.388  26.362  1.00  0.00     0.217 HD
ENDBRANCH  24  25
BRANCH  24  27
HETATM   27  C13 UNL     1       2.920   1.916  26.330  1.00  0.00     0.035 C 
HETATM   28  C14 UNL     1       2.362   0.964  27.345  1.00  0.00     0.016 C 
HETATM   29  C15 UNL     1       3.695   3.061  26.971  1.00  0.00     0.016 C 
ENDBRANCH  24  27
ENDBRANCH   6  24
TORSDOF 8
ENDMDL
MODEL 2
REMARK VINA RESULT: -8.352590751      1.879      2.687
REMARK  8 active torsions:
REMARK  status: ('A' for Active; 'I' for Inactive)
REMARK    1  A    between atoms: O1_2  and  C2_3 
REMARK    2  A    between atoms: C2_3  and  C3_5 
REMARK    3  A    between atoms: C6_8  and  C7_9 
REMARK    4  A    between atoms: C7_9  and  C8_11 
REMARK    5  A    between atoms: C11_16  and  C12_17 
REMARK    6  A    between atoms: C12_17  and  O4_18 
REMARK    7  A    between atoms: C12_17  and  C13_20 
REMARK    8  A    between atoms: C16_23  and  O5_24 
ROOT
HETATM    1  C8  UNL     1       2.959   1.255  21.777  1.00  0.00     0.118 A 
HETATM    2  N1  UNL     1       2.005   2.154  21.619  1.00  0.00    -0.354 N 
ATOM      3  H1  UNL     1       1.643   2.445  20.711  1.00  0.00     0.166 HD
HETATM    4  C9  UNL     1       1.568   2.639  22.791  1.00  0.00     0.021 A 
HETATM    5  C10 UNL     1       0.525   3.674  23.011  1.00  0.00     0.069 C 
HETATM    6  C11 UNL     1       2.263   2.034  23.818  1.00  0.00     0.051 A 
HETATM    7  C16 UNL     1       3.130   1.161  23.183  1.00  0.00     0.111 A 
ENDROOT
BRANCH   1   8
HETATM    8  C7  UNL     1       3.750   0.485  20.863  1.00  0.00     0.215 C 
HETATM    9  O3  UNL     1       3.681  -0.803  20.979  1.00  0.00    -0.285 OA
BRANCH   8  10
HETATM   10  C6  UNL     1       4.637   0.964  19.828  1.00  0.00     0.064 A 
HETATM   11  C4  UNL     1       5.975   1.325  20.053  1.00  0.00    -0.011 A 
HETATM   12  C3  UNL     1       6.553   1.808  18.926  1.00  0.00     0.118 A 
HETATM   13  C5  UNL     1       6.638   1.128  21.369  1.00  0.00     0.052 C 
HETATM   14  N2  UNL     1       5.608   1.760  17.967  1.00  0.00    -0.336 N 
HETATM   15  C17 UNL     1       4.455   1.258  18.499  1.00  0.00     0.121 A 
HETATM   16  C18 UNL     1       5.736   2.142  16.560  1.00  0.00     0.157 C 
HETATM   17 CL1  UNL     1       2.966   1.159  17.577  1.00  0.00    -0.063 Cl
BRANCH  12  18
HETATM   18  C2  UNL     1       7.849   2.436  18.761  1.00  0.00     0.310 C 
HETATM   19  O2  UNL     1       8.878   1.808  18.366  1.00  0.00    -0.258 OA
BRANCH  18  20
HETATM   20  O1  UNL     1       8.106   3.788  19.013  1.00  0.00    -0.321 OA
HETATM   21  C1  UNL     1       8.063   4.403  20.258  1.00  0.00     0.213 C 
ENDBRANCH  18  20
ENDBRANCH  12  18
ENDBRANCH   8  10
ENDBRANCH   1   8
BRANCH   7  22
HETATM   22  O5  UNL     1       4.037   0.310  23.774  1.00  0.00    -0.357 OA
ATOM     23  H5  UNL     1       4.190  -0.578  23.470  1.00  0.00     0.217 HD
ENDBRANCH   7  22
BRANCH   6  24
HETATM   24  C12 UNL     1       2.123   2.264  25.245  1.00  0.00     0.061 C 
BRANCH  24  25
HETATM   25  O4  UNL     1       1.050   2.924  25.567  1.00  0.00    -0.364 OA
ATOM     26  H4  UNL     1       1.170   3.518  26.299  1.00  0.00     0.217 HD
ENDBRANCH  24  25
BRANCH  24  27
HETATM   27  C13 UNL     1       2.958   1.891  26.355  1.00  0.00     0.035 C 
HETATM   28  C14 UNL     1       2.333   0.968  27.357  1.00  0.00     0.016 C 
HETATM   29  C15 UNL     1       3.690   3.054  27.014  1.00  0.00     0.016 C 
ENDBRANCH  24  27
ENDBRANCH   6  24
TORSDOF 8
ENDMDL
MODEL 3
REMARK VINA RESULT: -8.184655292      2.292      3.222
REMARK  8 active torsions:
REMARK  status: ('A' for Active; 'I' for Inactive)
REMARK    1  A    between atoms: O1_2  and  C2_3 
REMARK    2  A    between atoms: C2_3  and  C3_5 
REMARK    3  A    between atoms: C6_8  and  C7_9 
REMARK    4  A    between atoms: C7_9  and  C8_11 
REMARK    5  A    between atoms: C11_16  and  C12_17 
REMARK    6  A    between atoms: C12_17  and  O4_18 
REMARK    7  A    between atoms: C12_17  and  C13_20 
REMARK    8  A    between atoms: C16_23  and  O5_24 
ROOT
HETATM    1  C8  UNL     1       3.752   1.030  21.232  1.00  0.00     0.118 A 
HETATM    2  N1  UNL     1       2.731   1.865  21.279  1.00  0.00    -0.354 N 
ATOM      3  H1  UNL     1       2.320   2.308  20.458  1.00  0.00     0.166 HD
HETATM    4  C9  UNL     1       2.298   2.064  22.534  1.00  0.00     0.021 A 
HETATM    5  C10 UNL     1       1.190   2.948  22.981  1.00  0.00     0.069 C 
HETATM    6  C11 UNL     1       3.067   1.317  23.401  1.00  0.00     0.051 A 
HETATM    7  C16 UNL     1       3.975   0.663  22.585  1.00  0.00     0.111 A 
ENDROOT
BRANCH   1   8
HETATM    8  C7  UNL     1       4.568   0.528  20.166  1.00  0.00     0.215 C 
HETATM    9  O3  UNL     1       4.431  -0.725  19.872  1.00  0.00    -0.285 OA
BRANCH   8  10
HETATM   10  C6  UNL     1       5.545   1.243  19.377  1.00  0.00     0.064 A 
HETATM   11  C4  UNL     1       6.888   1.400  19.755  1.00  0.00    -0.011 A 
HETATM   12  C3  UNL     1       7.563   2.174  18.871  1.00  0.00     0.118 A 
HETATM   13  C5  UNL     1       7.457   0.733  20.957  1.00  0.00     0.052 C 
HETATM   14  N2  UNL     1       6.676   2.517  17.917  1.00  0.00    -0.336 N 
HETATM   15  C17 UNL     1       5.463   1.966  18.213  1.00  0.00     0.121 A 
HETATM   16  C18 UNL     1       6.913   3.324  16.718  1.00  0.00     0.157 C 
HETATM   17 CL1  UNL     1       4.029   2.294  17.258  1.00  0.00    -0.063 Cl
BRANCH  12  18
HETATM   18  C2  UNL     1       8.905   2.713  18.966  1.00  0.00     0.310 C 
HETATM   19  O2  UNL     1       9.933   2.090  18.562  1.00  0.00    -0.258 OA
BRANCH  18  20
HETATM   20  O1  UNL     1       9.212   3.966  19.507  1.00  0.00    -0.321 OA
HETATM   21  C1  UNL     1       8.426   4.677  20.406  1.00  0.00     0.213 C 
ENDBRANCH  18  20
ENDBRANCH  12  18
ENDBRANCH   8  10
ENDBRANCH   1   8
BRANCH   7  22
HETATM   22  O5  UNL     1       4.960  -0.218  22.973  1.00  0.00    -0.357 OA
ATOM     23  H5  UNL     1       4.983  -1.126  22.692  1.00  0.00     0.217 HD
ENDBRANCH   7  22
BRANCH   6  24
HETATM   24  C12 UNL     1       2.957   1.238  24.847  1.00  0.00     0.061 C 
BRANCH  24  25
HETATM   25  O4  UNL     1       3.320   0.090  25.339  1.00  0.00    -0.364 OA
ATOM     26  H4  UNL     1       3.561   0.126  26.258  1.00  0.00     0.217 HD
ENDBRANCH  24  25
BRANCH  24  27
HETATM   27  C13 UNL     1       2.520   2.201  25.822  1.00  0.00     0.035 C 
HETATM   28  C14 UNL     1       3.606   2.841  26.635  1.00  0.00     0.016 C 
HETATM   29  C15 UNL     1       1.345   1.746  26.678  1.00  0.00     0.016 C 
ENDBRANCH  24  27
ENDBRANCH   6  24
TORSDOF 8
ENDMDL
MODEL 4
REMARK VINA RESULT: -8.147225461      2.026      2.749
REMARK  8 active torsions:
REMARK  status: ('A' for Active; 'I' for Inactive)
REMARK    1  A    between atoms: O1_2  and  C2_3 
REMARK    2  A    between atoms: C2_3  and  C3_5 
REMARK    3  A    between atoms: C6_8  and  C7_9 
REMARK    4  A    between atoms: C7_9  and  C8_11 
REMARK    5  A    between atoms: C11_16  and  C12_17 
REMARK    6  A    between atoms: C12_17  and  O4_18 
REMARK    7  A    between atoms: C12_17  and  C13_20 
REMARK    8  A    between atoms: C16_23  and  O5_24 
ROOT
HETATM    1  C8  UNL     1       3.504   0.623  21.206  1.00  0.00     0.118 A 
HETATM    2  N1  UNL     1       2.587   1.572  21.206  1.00  0.00    -0.354 N 
ATOM      3  H1  UNL     1       2.182   1.972  20.360  1.00  0.00     0.166 HD
HETATM    4  C9  UNL     1       2.249   1.948  22.450  1.00  0.00     0.021 A 
HETATM    5  C10 UNL     1       1.273   2.996  22.845  1.00  0.00     0.069 C 
HETATM    6  C11 UNL     1       2.977   1.210  23.359  1.00  0.00     0.051 A 
HETATM    7  C16 UNL     1       3.760   0.374  22.580  1.00  0.00     0.111 A 
ENDROOT
BRANCH   1   8
HETATM    8  C7  UNL     1       4.199  -0.079  20.166  1.00  0.00     0.215 C 
HETATM    9  O3  UNL     1       4.341  -1.356  20.324  1.00  0.00    -0.285 OA
BRANCH   8  10
HETATM   10  C6  UNL     1       4.779   0.462  18.959  1.00  0.00     0.064 A 
HETATM   11  C4  UNL     1       6.142   0.767  18.817  1.00  0.00    -0.011 A 
HETATM   12  C3  UNL     1       6.400   1.328  17.611  1.00  0.00     0.118 A 
HETATM   13  C5  UNL     1       7.140   0.443  19.871  1.00  0.00     0.052 C 
HETATM   14  N2  UNL     1       5.222   1.386  16.962  1.00  0.00    -0.336 N 
HETATM   15  C17 UNL     1       4.243   0.871  17.762  1.00  0.00     0.121 A 
HETATM   16  C18 UNL     1       4.965   1.881  15.608  1.00  0.00     0.157 C 
HETATM   17 CL1  UNL     1       2.551   0.890  17.300  1.00  0.00    -0.063 Cl
BRANCH  12  18
HETATM   18  C2  UNL     1       7.626   1.933  17.128  1.00  0.00     0.310 C 
HETATM   19  O2  UNL     1       8.398   1.367  16.297  1.00  0.00    -0.258 OA
BRANCH  18  20
HETATM   20  O1  UNL     1       8.087   3.194  17.520  1.00  0.00    -0.321 OA
HETATM   21  C1  UNL     1       9.007   3.444  18.532  1.00  0.00     0.213 C 
ENDBRANCH  18  20
ENDBRANCH  12  18
ENDBRANCH   8  10
ENDBRANCH   1   8
BRANCH   7  22
HETATM   22  O5  UNL     1       4.661  -0.571  23.018  1.00  0.00    -0.357 OA
ATOM     23  H5  UNL     1       5.391  -0.875  22.491  1.00  0.00     0.217 HD
ENDBRANCH   7  22
BRANCH   6  24
HETATM   24  C12 UNL     1       2.940   1.294  24.808  1.00  0.00     0.061 C 
BRANCH  24  25
HETATM   25  O4  UNL     1       3.343   0.212  25.407  1.00  0.00    -0.364 OA
ATOM     26  H4  UNL     1       3.653  -0.462  24.813  1.00  0.00     0.217 HD
ENDBRANCH  24  25
BRANCH  24  27
HETATM   27  C13 UNL     1       2.539   2.357  25.689  1.00  0.00     0.035 C 
HETATM   28  C14 UNL     1       3.581   2.826  26.660  1.00  0.00     0.016 C 
HETATM   29  C15 UNL     1       1.181   2.154  26.349  1.00  0.00     0.016 C 
ENDBRANCH  24  27
ENDBRANCH   6  24
TORSDOF 8
ENDMDL
MODEL 5
REMARK VINA RESULT: -8.140230401      2.039      2.637
REMARK  8 active torsions:
REMARK  status: ('A' for Active; 'I' for Inactive)
REMARK    1  A    between atoms: O1_2  and  C2_3 
REMARK    2  A    between atoms: C2_3  and  C3_5 
REMARK    3  A    between atoms: C6_8  and  C7_9 
REMARK    4  A    between atoms: C7_9  and  C8_11 
REMARK    5  A    between atoms: C11_16  and  C12_17 
REMARK    6  A    between atoms: C12_17  and  O4_18 
REMARK    7  A    between atoms: C12_17  and  C13_20 
REMARK    8  A    between atoms: C16_23  and  O5_24 
ROOT
HETATM    1  C8  UNL     1       3.049   1.568  21.290  1.00  0.00     0.118 A 
HETATM    2  N1  UNL     1       2.111   2.413  21.677  1.00  0.00    -0.354 N 
ATOM      3  H1  UNL     1       1.583   3.008  21.039  1.00  0.00     0.166 HD
HETATM    4  C9  UNL     1       1.934   2.397  23.008  1.00  0.00     0.021 A 
HETATM    5  C10 UNL     1       0.990   3.221  23.806  1.00  0.00     0.069 C 
HETATM    6  C11 UNL     1       2.803   1.483  23.568  1.00  0.00     0.051 A 
HETATM    7  C16 UNL     1       3.496   0.958  22.491  1.00  0.00     0.111 A 
ENDROOT
BRANCH   1   8
HETATM    8  C7  UNL     1       3.616   1.239  20.015  1.00  0.00     0.215 C 
HETATM    9  O3  UNL     1       2.783   1.046  19.043  1.00  0.00    -0.285 OA
BRANCH   8  10
HETATM   10  C6  UNL     1       5.011   1.080  19.674  1.00  0.00     0.064 A 
HETATM   11  C4  UNL     1       5.596  -0.151  19.338  1.00  0.00    -0.011 A 
HETATM   12  C3  UNL     1       6.930  -0.026  19.135  1.00  0.00     0.118 A 
HETATM   13  C5  UNL     1       4.794  -1.395  19.187  1.00  0.00     0.052 C 
HETATM   14  N2  UNL     1       7.220   1.275  19.327  1.00  0.00    -0.336 N 
HETATM   15  C17 UNL     1       6.077   1.946  19.653  1.00  0.00     0.121 A 
HETATM   16  C18 UNL     1       8.521   1.935  19.198  1.00  0.00     0.157 C 
HETATM   17 CL1  UNL     1       6.081   3.644  20.094  1.00  0.00    -0.063 Cl
BRANCH  12  18
HETATM   18  C2  UNL     1       7.926  -1.060  18.935  1.00  0.00     0.310 C 
HETATM   19  O2  UNL     1       8.270  -1.875  19.844  1.00  0.00    -0.258 OA
BRANCH  18  20
HETATM   20  O1  UNL     1       8.608  -1.274  17.733  1.00  0.00    -0.321 OA
HETATM   21  C1  UNL     1       8.133  -0.962  16.464  1.00  0.00     0.213 C 
ENDBRANCH  18  20
ENDBRANCH  12  18
ENDBRANCH   8  10
ENDBRANCH   1   8
BRANCH   7  22
HETATM   22  O5  UNL     1       4.477  -0.009  22.523  1.00  0.00    -0.357 OA
ATOM     23  H5  UNL     1       4.362  -0.851  22.947  1.00  0.00     0.217 HD
ENDBRANCH   7  22
BRANCH   6  24
HETATM   24  C12 UNL     1       2.960   1.150  24.973  1.00  0.00     0.061 C 
BRANCH  24  25
HETATM   25  O4  UNL     1       3.518  -0.006  25.178  1.00  0.00    -0.364 OA
ATOM     26  H4  UNL     1       3.457  -0.307  26.077  1.00  0.00     0.217 HD
ENDBRANCH  24  25
BRANCH  24  27
HETATM   27  C13 UNL     1       2.611   1.872  26.166  1.00  0.00     0.035 C 
HETATM   28  C14 UNL     1       3.559   2.961  26.569  1.00  0.00     0.016 C 
HETATM   29  C15 UNL     1       2.206   0.991  27.342  1.00  0.00     0.016 C 
ENDBRANCH  24  27
ENDBRANCH   6  24
TORSDOF 8
ENDMDL
