MODEL 1
REMARK VINA RESULT: -7.588426405      0.000      0.000
REMARK  6 active torsions:
REMARK  status: ('A' for Active; 'I' for Inactive)
REMARK    1  A    between atoms: O1_2  and  C2_3 
REMARK    2  A    between atoms: C2_3  and  C3_5 
REMARK    3  A    between atoms: C5_7  and  N1_8 
REMARK       I    between atoms: N1_8  and  C6_10 
REMARK    4  A    between atoms: C6_10  and  C7_12 
REMARK    5  A    between atoms: C8_14  and  C9_15 
REMARK    6  A    between atoms: C9_15  and  C10_16 
ROOT
HETATM    1  N1  UNL     1       3.688   0.484  20.264  1.00  0.00    -0.317 N 
ATOM      2  H1  UNL     1       3.228  -0.343  19.883  1.00  0.00     0.169 HD
HETATM    3  C6  UNL     1       4.575   1.147  19.447  1.00  0.00     0.264 C 
HETATM    4  O3  UNL     1       5.152   2.204  19.920  1.00  0.00    -0.267 OA
ENDROOT
BRANCH   1   5
HETATM    5  C5  UNL     1       3.355   0.867  21.628  1.00  0.00     0.079 A 
HETATM    6  C4  UNL     1       2.522   1.822  22.118  1.00  0.00     0.057 A 
HETATM    7  C3  UNL     1       2.386   1.918  23.456  1.00  0.00     0.070 A 
HETATM    8  C14 UNL     1       3.095   1.038  24.227  1.00  0.00     0.092 A 
HETATM    9  S2  UNL     1       3.926   0.126  23.069  1.00  0.00    -0.059 SA
HETATM   10 CL1  UNL     1       3.102   0.943  26.003  1.00  0.00    -0.075 Cl
BRANCH   7  11
HETATM   11  C2  UNL     1       1.484   2.946  24.075  1.00  0.00     0.295 C 
HETATM   12  O2  UNL     1       1.419   3.246  25.220  1.00  0.00    -0.259 OA
BRANCH  11  13
HETATM   13  O1  UNL     1       0.615   3.630  23.138  1.00  0.00    -0.322 OA
HETATM   14  C1  UNL     1      -0.645   4.052  23.644  1.00  0.00     0.213 C 
ENDBRANCH  11  13
ENDBRANCH   7  11
ENDBRANCH   1   5
BRANCH   3  15
HETATM   15  C7  UNL     1       4.959   0.805  18.068  1.00  0.00     0.079 A 
HETATM   16  S1  UNL     1       6.582   0.602  17.502  1.00  0.00    -0.088 SA
HETATM   17  C8  UNL     1       6.314   0.213  15.899  1.00  0.00    -0.006 A 
HETATM   18  C11 UNL     1       4.946   0.242  15.817  1.00  0.00     0.023 A 
HETATM   19  C12 UNL     1       4.231   0.544  16.925  1.00  0.00    -0.038 A 
HETATM   20  C13 UNL     1       2.710   0.614  16.892  1.00  0.00     0.050 C 
BRANCH  17  21
HETATM   21  C9  UNL     1       7.250  -0.082  14.751  1.00  0.00     0.159 C 
BRANCH  21  22
HETATM   22  C10 UNL     1       7.960  -1.346  14.952  1.00  0.00     0.177 C 
HETATM   23  O4  UNL     1       8.960  -1.467  15.680  1.00  0.00    -0.648 OA
HETATM   24  O5  UNL     1       7.482  -2.481  14.282  1.00  0.00    -0.648 OA
ENDBRANCH  21  22
ENDBRANCH  17  21
ENDBRANCH   3  15
TORSDOF 6
ENDMDL
MODEL 2
REMARK VINA RESULT: -7.489793503      1.319      1.740
REMARK  6 active torsions:
REMARK  status: ('A' for Active; 'I' for Inactive)
REMARK    1  A    between atoms: O1_2  and  C2_3 
REMARK    2  A    between atoms: C2_3  and  C3_5 
REMARK    3  A    between atoms: C5_7  and  N1_8 
REMARK       I    between atoms: N1_8  and  C6_10 
REMARK    4  A    between atoms: C6_10  and  C7_12 
REMARK    5  A    between atoms: C8_14  and  C9_15 
REMARK    6  A    between atoms: C9_15  and  C10_16 
ROOT
HETATM    1  N1  UNL     1       4.114   0.163  21.160  1.00  0.00    -0.317 N 
ATOM      2  H1  UNL     1       3.687  -0.685  20.786  1.00  0.00     0.169 HD
HETATM    3  C6  UNL     1       5.120   0.744  20.422  1.00  0.00     0.264 C 
HETATM    4  O3  UNL     1       5.656   1.826  20.885  1.00  0.00    -0.267 OA
ENDROOT
BRANCH   1   5
HETATM    5  C5  UNL     1       3.610   0.661  22.431  1.00  0.00     0.079 A 
HETATM    6  C4  UNL     1       2.741   1.662  22.727  1.00  0.00     0.057 A 
HETATM    7  C3  UNL     1       2.431   1.868  24.023  1.00  0.00     0.070 A 
HETATM    8  C14 UNL     1       3.012   1.048  24.950  1.00  0.00     0.092 A 
HETATM    9  S2  UNL     1       3.969   0.035  23.991  1.00  0.00    -0.059 SA
HETATM   10 CL1  UNL     1       2.780   1.098  26.713  1.00  0.00    -0.075 Cl
BRANCH   7  11
HETATM   11  C2  UNL     1       1.477   2.954  24.431  1.00  0.00     0.295 C 
HETATM   12  O2  UNL     1       1.230   3.314  25.533  1.00  0.00    -0.259 OA
BRANCH  11  13
HETATM   13  O1  UNL     1       0.806   3.615  23.329  1.00  0.00    -0.322 OA
HETATM   14  C1  UNL     1      -0.542   4.005  23.558  1.00  0.00     0.213 C 
ENDBRANCH  11  13
ENDBRANCH   7  11
ENDBRANCH   1   5
BRANCH   3  15
HETATM   15  C7  UNL     1       5.677   0.285  19.139  1.00  0.00     0.079 A 
HETATM   16  S1  UNL     1       5.247   0.905  17.582  1.00  0.00    -0.088 SA
HETATM   17  C8  UNL     1       6.233  -0.011  16.590  1.00  0.00    -0.006 A 
HETATM   18  C11 UNL     1       6.901  -0.799  17.492  1.00  0.00     0.023 A 
HETATM   19  C12 UNL     1       6.627  -0.661  18.810  1.00  0.00    -0.038 A 
HETATM   20  C13 UNL     1       7.319  -1.523  19.857  1.00  0.00     0.050 C 
BRANCH  17  21
HETATM   21  C9  UNL     1       6.407  -0.062  15.092  1.00  0.00     0.159 C 
BRANCH  21  22
HETATM   22  C10 UNL     1       7.672  -0.698  14.721  1.00  0.00     0.177 C 
HETATM   23  O4  UNL     1       8.761  -0.102  14.693  1.00  0.00    -0.648 OA
HETATM   24  O5  UNL     1       7.648  -2.058  14.380  1.00  0.00    -0.648 OA
ENDBRANCH  21  22
ENDBRANCH  17  21
ENDBRANCH   3  15
TORSDOF 6
ENDMDL
MODEL 3
REMARK VINA RESULT: -7.442286432      5.847      7.867
REMARK  6 active torsions:
REMARK  status: ('A' for Active; 'I' for Inactive)
REMARK    1  A    between atoms: O1_2  and  C2_3 
REMARK    2  A    between atoms: C2_3  and  C3_5 
REMARK    3  A    between atoms: C5_7  and  N1_8 
REMARK       I    between atoms: N1_8  and  C6_10 
REMARK    4  A    between atoms: C6_10  and  C7_12 
REMARK    5  A    between atoms: C8_14  and  C9_15 
REMARK    6  A    between atoms: C9_15  and  C10_16 
ROOT
HETATM    1  N1  UNL     1       7.771   0.699  21.472  1.00  0.00    -0.317 N 
ATOM      2  H1  UNL     1       8.296   0.004  22.003  1.00  0.00     0.169 HD
HETATM    3  C6  UNL     1       6.445   0.429  21.217  1.00  0.00     0.264 C 
HETATM    4  O3  UNL     1       5.770   1.312  20.555  1.00  0.00    -0.267 OA
ENDROOT
BRANCH   1   5
HETATM    5  C5  UNL     1       8.481   1.895  21.046  1.00  0.00     0.079 A 
HETATM    6  C4  UNL     1       8.632   3.111  21.631  1.00  0.00     0.057 A 
HETATM    7  C3  UNL     1       9.396   4.026  21.001  1.00  0.00     0.070 A 
HETATM    8  C14 UNL     1       9.971   3.661  19.816  1.00  0.00     0.092 A 
HETATM    9  S2  UNL     1       9.422   2.073  19.619  1.00  0.00    -0.059 SA
HETATM   10 CL1  UNL     1      11.016   4.664  18.784  1.00  0.00    -0.075 Cl
BRANCH   7  11
HETATM   11  C2  UNL     1       9.613   5.394  21.585  1.00  0.00     0.295 C 
HETATM   12  O2  UNL     1       8.797   6.235  21.760  1.00  0.00    -0.259 OA
BRANCH  11  13
HETATM   13  O1  UNL     1      10.982   5.677  21.967  1.00  0.00    -0.322 OA
HETATM   14  C1  UNL     1      11.487   6.952  21.592  1.00  0.00     0.213 C 
ENDBRANCH  11  13
ENDBRANCH   7  11
ENDBRANCH   1   5
BRANCH   3  15
HETATM   15  C7  UNL     1       5.675  -0.762  21.612  1.00  0.00     0.079 A 
HETATM   16  S1  UNL     1       5.719  -2.294  20.809  1.00  0.00    -0.088 SA
HETATM   17  C8  UNL     1       4.660  -3.178  21.753  1.00  0.00    -0.006 A 
HETATM   18  C11 UNL     1       4.279  -2.262  22.700  1.00  0.00     0.023 A 
HETATM   19  C12 UNL     1       4.792  -1.012  22.643  1.00  0.00    -0.038 A 
HETATM   20  C13 UNL     1       4.391   0.055  23.652  1.00  0.00     0.050 C 
BRANCH  17  21
HETATM   21  C9  UNL     1       4.161  -4.600  21.666  1.00  0.00     0.159 C 
BRANCH  21  22
HETATM   22  C10 UNL     1       4.430  -5.338  22.901  1.00  0.00     0.177 C 
HETATM   23  O4  UNL     1       3.553  -5.647  23.724  1.00  0.00    -0.648 OA
HETATM   24  O5  UNL     1       5.754  -5.716  23.165  1.00  0.00    -0.648 OA
ENDBRANCH  21  22
ENDBRANCH  17  21
ENDBRANCH   3  15
TORSDOF 6
ENDMDL
MODEL 4
REMARK VINA RESULT: -7.431841284      3.028      9.260
REMARK  6 active torsions:
REMARK  status: ('A' for Active; 'I' for Inactive)
REMARK    1  A    between atoms: O1_2  and  C2_3 
REMARK    2  A    between atoms: C2_3  and  C3_5 
REMARK    3  A    between atoms: C5_7  and  N1_8 
REMARK       I    between atoms: N1_8  and  C6_10 
REMARK    4  A    between atoms: C6_10  and  C7_12 
REMARK    5  A    between atoms: C8_14  and  C9_15 
REMARK    6  A    between atoms: C9_15  and  C10_16 
ROOT
HETATM    1  N1  UNL     1       4.771   1.489  20.141  1.00  0.00    -0.317 N 
ATOM      2  H1  UNL     1       5.076   2.398  20.489  1.00  0.00     0.169 HD
HETATM    3  C6  UNL     1       3.878   0.782  20.915  1.00  0.00     0.264 C 
HETATM    4  O3  UNL     1       3.478  -0.366  20.472  1.00  0.00    -0.267 OA
ENDROOT
BRANCH   1   5
HETATM    5  C5  UNL     1       5.313   1.044  18.866  1.00  0.00     0.079 A 
HETATM    6  C4  UNL     1       6.393   0.278  18.563  1.00  0.00     0.057 A 
HETATM    7  C3  UNL     1       6.626  -0.003  17.265  1.00  0.00     0.070 A 
HETATM    8  C14 UNL     1       5.751   0.501  16.343  1.00  0.00     0.092 A 
HETATM    9  S2  UNL     1       4.651   1.349  17.309  1.00  0.00    -0.059 SA
HETATM   10 CL1  UNL     1       5.820   0.286  14.578  1.00  0.00    -0.075 Cl
BRANCH   7  11
HETATM   11  C2  UNL     1       7.799  -0.844  16.849  1.00  0.00     0.295 C 
HETATM   12  O2  UNL     1       8.803  -0.472  16.343  1.00  0.00    -0.259 OA
BRANCH  11  13
HETATM   13  O1  UNL     1       7.650  -2.261  17.115  1.00  0.00    -0.322 OA
HETATM   14  C1  UNL     1       8.855  -3.007  17.233  1.00  0.00     0.213 C 
ENDBRANCH  11  13
ENDBRANCH   7  11
ENDBRANCH   1   5
BRANCH   3  15
HETATM   15  C7  UNL     1       3.303   1.173  22.212  1.00  0.00     0.079 A 
HETATM   16  S1  UNL     1       2.173   2.459  22.458  1.00  0.00    -0.088 SA
HETATM   17  C8  UNL     1       1.923   2.352  24.108  1.00  0.00    -0.006 A 
HETATM   18  C11 UNL     1       2.729   1.299  24.456  1.00  0.00     0.023 A 
HETATM   19  C12 UNL     1       3.447   0.679  23.493  1.00  0.00    -0.038 A 
HETATM   20  C13 UNL     1       4.377  -0.481  23.821  1.00  0.00     0.050 C 
BRANCH  17  21
HETATM   21  C9  UNL     1       1.081   3.160  25.066  1.00  0.00     0.159 C 
BRANCH  21  22
HETATM   22  C10 UNL     1       0.272   4.155  24.359  1.00  0.00     0.177 C 
HETATM   23  O4  UNL     1       0.604   5.344  24.226  1.00  0.00    -0.648 OA
HETATM   24  O5  UNL     1      -0.945   3.736  23.803  1.00  0.00    -0.648 OA
ENDBRANCH  21  22
ENDBRANCH  17  21
ENDBRANCH   3  15
TORSDOF 6
ENDMDL
MODEL 5
REMARK VINA RESULT: -7.388761579      3.027      9.245
REMARK  6 active torsions:
REMARK  status: ('A' for Active; 'I' for Inactive)
REMARK    1  A    between atoms: O1_2  and  C2_3 
REMARK    2  A    between atoms: C2_3  and  C3_5 
REMARK    3  A    between atoms: C5_7  and  N1_8 
REMARK       I    between atoms: N1_8  and  C6_10 
REMARK    4  A    between atoms: C6_10  and  C7_12 
REMARK    5  A    between atoms: C8_14  and  C9_15 
REMARK    6  A    between atoms: C9_15  and  C10_16 
ROOT
HETATM    1  N1  UNL     1       4.667   1.543  20.063  1.00  0.00    -0.317 N 
ATOM      2  H1  UNL     1       4.899   2.489  20.366  1.00  0.00     0.169 HD
HETATM    3  C6  UNL     1       3.857   0.795  20.886  1.00  0.00     0.264 C 
HETATM    4  O3  UNL     1       3.549  -0.401  20.501  1.00  0.00    -0.267 OA
ENDROOT
BRANCH   1   5
HETATM    5  C5  UNL     1       5.218   1.093  18.793  1.00  0.00     0.079 A 
HETATM    6  C4  UNL     1       6.279   0.297  18.502  1.00  0.00     0.057 A 
HETATM    7  C3  UNL     1       6.527   0.021  17.206  1.00  0.00     0.070 A 
HETATM    8  C14 UNL     1       5.686   0.561  16.274  1.00  0.00     0.092 A 
HETATM    9  S2  UNL     1       4.596   1.435  17.228  1.00  0.00    -0.059 SA
HETATM   10 CL1  UNL     1       5.781   0.361  14.509  1.00  0.00    -0.075 Cl
BRANCH   7  11
HETATM   11  C2  UNL     1       7.681  -0.854  16.803  1.00  0.00     0.295 C 
HETATM   12  O2  UNL     1       7.683  -2.034  16.702  1.00  0.00    -0.259 OA
BRANCH  11  13
HETATM   13  O1  UNL     1       8.907  -0.138  16.510  1.00  0.00    -0.322 OA
HETATM   14  C1  UNL     1       9.904  -0.161  17.524  1.00  0.00     0.213 C 
ENDBRANCH  11  13
ENDBRANCH   7  11
ENDBRANCH   1   5
BRANCH   3  15
HETATM   15  C7  UNL     1       3.277   1.189  22.181  1.00  0.00     0.079 A 
HETATM   16  S1  UNL     1       2.103   2.438  22.413  1.00  0.00    -0.088 SA
HETATM   17  C8  UNL     1       1.869   2.353  24.066  1.00  0.00    -0.006 A 
HETATM   18  C11 UNL     1       2.716   1.336  24.427  1.00  0.00     0.023 A 
HETATM   19  C12 UNL     1       3.449   0.725  23.469  1.00  0.00    -0.038 A 
HETATM   20  C13 UNL     1       4.423  -0.395  23.811  1.00  0.00     0.050 C 
BRANCH  17  21
HETATM   21  C9  UNL     1       1.006   3.148  25.016  1.00  0.00     0.159 C 
BRANCH  21  22
HETATM   22  C10 UNL     1       0.169   4.111  24.299  1.00  0.00     0.177 C 
HETATM   23  O4  UNL     1      -0.928   3.828  23.792  1.00  0.00    -0.648 OA
HETATM   24  O5  UNL     1       0.637   5.428  24.182  1.00  0.00    -0.648 OA
ENDBRANCH  21  22
ENDBRANCH  17  21
ENDBRANCH   3  15
TORSDOF 6
ENDMDL
