MODEL 1
REMARK VINA RESULT: -7.119988487      0.000      0.000
REMARK  7 active torsions:
REMARK  status: ('A' for Active; 'I' for Inactive)
REMARK       I    between atoms: C2_2  and  N1_4 
REMARK    1  A    between atoms: N1_4  and  C3_6 
REMARK    2  A    between atoms: C3_6  and  C4_7 
REMARK    3  A    between atoms: C4_7  and  C5_8 
REMARK    4  A    between atoms: C5_8  and  N2_9 
REMARK    5  A    between atoms: N2_9  and  C6_11 
REMARK    6  A    between atoms: C7_14  and  C8_15 
REMARK    7  A    between atoms: C10_18  and  N4_19 
ROOT
HETATM    1  C8  UNL     1       3.889   0.630  18.902  1.00  0.00    -0.029 C 
HETATM    2  C9  UNL     1       3.710   0.684  17.704  1.00  0.00     0.012 C 
HETATM    3 CL1  UNL     1       3.459   0.729  15.996  1.00  0.00    -0.023 Cl
ENDROOT
BRANCH   1   4
HETATM    4  C7  UNL     1       4.134   0.563  20.357  1.00  0.00     0.124 A 
HETATM    5  N3  UNL     1       3.240   0.927  21.233  1.00  0.00    -0.327 N 
HETATM    6  C6  UNL     1       3.536   0.838  22.529  1.00  0.00     0.147 A 
ATOM      7  H3  UNL     1       2.330   1.275  20.932  1.00  0.00     0.168 HD
HETATM    8  S3  UNL     1       5.122   0.223  22.526  1.00  0.00    -0.033 SA
HETATM    9  C10 UNL     1       5.338   0.105  20.841  1.00  0.00     0.121 A 
BRANCH   6  10
HETATM   10  N2  UNL     1       2.795   1.147  23.568  1.00  0.00    -0.370 N 
ATOM     11  H2  UNL     1       1.911   1.646  23.461  1.00  0.00     0.161 HD
BRANCH  10  12
HETATM   12  C5  UNL     1       3.289   0.748  24.882  1.00  0.00     0.123 C 
BRANCH  12  13
HETATM   13  C4  UNL     1       2.549   1.469  25.988  1.00  0.00     0.039 C 
BRANCH  13  14
HETATM   14  C3  UNL     1       2.427   2.909  25.572  1.00  0.00     0.124 C 
BRANCH  14  15
HETATM   15  N1  UNL     1       1.038   3.246  25.415  1.00  0.00    -0.361 N 
HETATM   16  C2  UNL     1       0.480   3.580  24.173  1.00  0.00     0.213 C 
HETATM   17  C1  UNL     1      -0.974   3.922  24.114  1.00  0.00     0.117 C 
HETATM   18  O1  UNL     1       1.172   3.591  23.146  1.00  0.00    -0.274 OA
ATOM     19  H1  UNL     1       0.436   3.242  26.239  1.00  0.00     0.162 HD
ENDBRANCH  14  15
ENDBRANCH  13  14
ENDBRANCH  12  13
ENDBRANCH  10  12
ENDBRANCH   6  10
BRANCH   9  20
HETATM   20  N4  UNL     1       6.494  -0.359  20.065  1.00  0.00    -0.292 N 
HETATM   21  C11 UNL     1       7.476   0.410  19.671  1.00  0.00     0.022 A 
HETATM   22  C12 UNL     1       7.499   1.907  19.997  1.00  0.00     0.069 C 
HETATM   23  C13 UNL     1       8.492  -0.168  18.951  1.00  0.00     0.077 A 
HETATM   24  S1  UNL     1       7.998  -1.797  18.868  1.00  0.00    -0.070 SA
HETATM   25  C14 UNL     1       6.544  -1.655  19.743  1.00  0.00     0.150 A 
HETATM   26  S2  UNL     1       5.461  -2.860  20.098  1.00  0.00    -0.052 SA
ENDBRANCH   9  20
ENDBRANCH   1   4
TORSDOF 7
ENDMDL
MODEL 2
REMARK VINA RESULT: -7.095883023      0.987      1.746
REMARK  7 active torsions:
REMARK  status: ('A' for Active; 'I' for Inactive)
REMARK       I    between atoms: C2_2  and  N1_4 
REMARK    1  A    between atoms: N1_4  and  C3_6 
REMARK    2  A    between atoms: C3_6  and  C4_7 
REMARK    3  A    between atoms: C4_7  and  C5_8 
REMARK    4  A    between atoms: C5_8  and  N2_9 
REMARK    5  A    between atoms: N2_9  and  C6_11 
REMARK    6  A    between atoms: C7_14  and  C8_15 
REMARK    7  A    between atoms: C10_18  and  N4_19 
ROOT
HETATM    1  C8  UNL     1       3.928   0.663  18.932  1.00  0.00    -0.029 C 
HETATM    2  C9  UNL     1       3.741   0.778  17.741  1.00  0.00     0.012 C 
HETATM    3 CL1  UNL     1       3.500   0.927  16.037  1.00  0.00    -0.023 Cl
ENDROOT
BRANCH   1   4
HETATM    4  C7  UNL     1       4.173   0.545  20.384  1.00  0.00     0.124 A 
HETATM    5  N3  UNL     1       3.274   0.861  21.272  1.00  0.00    -0.327 N 
HETATM    6  C6  UNL     1       3.570   0.727  22.564  1.00  0.00     0.147 A 
ATOM      7  H3  UNL     1       2.358   1.205  20.983  1.00  0.00     0.168 HD
HETATM    8  S3  UNL     1       5.166   0.139  22.540  1.00  0.00    -0.033 SA
HETATM    9  C10 UNL     1       5.385   0.089  20.852  1.00  0.00     0.121 A 
BRANCH   6  10
HETATM   10  N2  UNL     1       2.823   0.985  23.613  1.00  0.00    -0.370 N 
ATOM     11  H2  UNL     1       1.874   1.345  23.514  1.00  0.00     0.161 HD
BRANCH  10  12
HETATM   12  C5  UNL     1       3.409   0.735  24.927  1.00  0.00     0.123 C 
BRANCH  12  13
HETATM   13  C4  UNL     1       2.609   1.410  26.020  1.00  0.00     0.039 C 
BRANCH  13  14
HETATM   14  C3  UNL     1       2.508   2.865  25.659  1.00  0.00     0.124 C 
BRANCH  14  15
HETATM   15  N1  UNL     1       1.126   3.215  25.461  1.00  0.00    -0.361 N 
HETATM   16  C2  UNL     1       0.601   3.523  24.198  1.00  0.00     0.213 C 
HETATM   17  C1  UNL     1      -0.847   3.880  24.097  1.00  0.00     0.117 C 
HETATM   18  O1  UNL     1       1.317   3.501  23.188  1.00  0.00    -0.274 OA
ATOM     19  H1  UNL     1       0.505   3.238  26.270  1.00  0.00     0.162 HD
ENDBRANCH  14  15
ENDBRANCH  13  14
ENDBRANCH  12  13
ENDBRANCH  10  12
ENDBRANCH   6  10
BRANCH   9  20
HETATM   20  N4  UNL     1       6.549  -0.327  20.061  1.00  0.00    -0.292 N 
HETATM   21  C11 UNL     1       6.748  -1.541  19.621  1.00  0.00     0.022 A 
HETATM   22  C12 UNL     1       5.749  -2.668  19.906  1.00  0.00     0.069 C 
HETATM   23  C13 UNL     1       7.886  -1.780  18.891  1.00  0.00     0.077 A 
HETATM   24  S1  UNL     1       8.628  -0.247  18.864  1.00  0.00    -0.070 SA
HETATM   25  C14 UNL     1       7.464   0.603  19.771  1.00  0.00     0.150 A 
HETATM   26  S2  UNL     1       7.486   2.209  20.185  1.00  0.00    -0.052 SA
ENDBRANCH   9  20
ENDBRANCH   1   4
TORSDOF 7
ENDMDL
MODEL 3
REMARK VINA RESULT: -7.032157474      5.189      6.862
REMARK  7 active torsions:
REMARK  status: ('A' for Active; 'I' for Inactive)
REMARK       I    between atoms: C2_2  and  N1_4 
REMARK    1  A    between atoms: N1_4  and  C3_6 
REMARK    2  A    between atoms: C3_6  and  C4_7 
REMARK    3  A    between atoms: C4_7  and  C5_8 
REMARK    4  A    between atoms: C5_8  and  N2_9 
REMARK    5  A    between atoms: N2_9  and  C6_11 
REMARK    6  A    between atoms: C7_14  and  C8_15 
REMARK    7  A    between atoms: C10_18  and  N4_19 
ROOT
HETATM    1  C8  UNL     1       4.164  -0.414  23.660  1.00  0.00    -0.029 C 
HETATM    2  C9  UNL     1       3.756   0.342  24.515  1.00  0.00     0.012 C 
HETATM    3 CL1  UNL     1       3.176   1.395  25.755  1.00  0.00    -0.023 Cl
ENDROOT
BRANCH   1   4
HETATM    4  C7  UNL     1       4.634  -1.343  22.613  1.00  0.00     0.124 A 
HETATM    5  N3  UNL     1       4.482  -2.635  22.705  1.00  0.00    -0.327 N 
HETATM    6  C6  UNL     1       4.933  -3.408  21.718  1.00  0.00     0.147 A 
ATOM      7  H3  UNL     1       4.025  -3.046  23.518  1.00  0.00     0.168 HD
HETATM    8  S3  UNL     1       5.597  -2.291  20.620  1.00  0.00    -0.033 SA
HETATM    9  C10 UNL     1       5.261  -0.864  21.485  1.00  0.00     0.121 A 
BRANCH   6  10
HETATM   10  N2  UNL     1       4.886  -4.715  21.607  1.00  0.00    -0.370 N 
ATOM     11  H2  UNL     1       5.432  -5.208  20.900  1.00  0.00     0.161 HD
BRANCH  10  12
HETATM   12  C5  UNL     1       4.021  -5.433  22.538  1.00  0.00     0.123 C 
BRANCH  12  13
HETATM   13  C4  UNL     1       4.589  -6.794  22.875  1.00  0.00     0.039 C 
BRANCH  13  14
HETATM   14  C3  UNL     1       5.417  -6.633  24.119  1.00  0.00     0.124 C 
BRANCH  14  15
HETATM   15  N1  UNL     1       4.602  -6.078  25.167  1.00  0.00    -0.361 N 
HETATM   16  C2  UNL     1       4.858  -6.315  26.525  1.00  0.00     0.213 C 
HETATM   17  C1  UNL     1       3.950  -5.698  27.539  1.00  0.00     0.117 C 
HETATM   18  O1  UNL     1       5.815  -7.018  26.880  1.00  0.00    -0.274 OA
ATOM     19  H1  UNL     1       3.809  -5.490  24.912  1.00  0.00     0.162 HD
ENDBRANCH  14  15
ENDBRANCH  13  14
ENDBRANCH  12  13
ENDBRANCH  10  12
ENDBRANCH   6  10
BRANCH   9  20
HETATM   20  N4  UNL     1       5.549   0.536  21.150  1.00  0.00    -0.292 N 
HETATM   21  C11 UNL     1       6.640   1.168  21.494  1.00  0.00     0.022 A 
HETATM   22  C12 UNL     1       7.744   0.476  22.300  1.00  0.00     0.069 C 
HETATM   23  C13 UNL     1       6.770   2.479  21.107  1.00  0.00     0.077 A 
HETATM   24  S1  UNL     1       5.316   2.754  20.264  1.00  0.00    -0.070 SA
HETATM   25  C14 UNL     1       4.631   1.206  20.446  1.00  0.00     0.150 A 
HETATM   26  S2  UNL     1       3.166   0.679  19.874  1.00  0.00    -0.052 SA
ENDBRANCH   9  20
ENDBRANCH   1   4
TORSDOF 7
ENDMDL
MODEL 4
REMARK VINA RESULT: -7.029488108      5.155      6.964
REMARK  7 active torsions:
REMARK  status: ('A' for Active; 'I' for Inactive)
REMARK       I    between atoms: C2_2  and  N1_4 
REMARK    1  A    between atoms: N1_4  and  C3_6 
REMARK    2  A    between atoms: C3_6  and  C4_7 
REMARK    3  A    between atoms: C4_7  and  C5_8 
REMARK    4  A    between atoms: C5_8  and  N2_9 
REMARK    5  A    between atoms: N2_9  and  C6_11 
REMARK    6  A    between atoms: C7_14  and  C8_15 
REMARK    7  A    between atoms: C10_18  and  N4_19 
ROOT
HETATM    1  C8  UNL     1       4.111  -0.457  23.715  1.00  0.00    -0.029 C 
HETATM    2  C9  UNL     1       3.735   0.299  24.584  1.00  0.00     0.012 C 
HETATM    3 CL1  UNL     1       3.186   1.353  25.837  1.00  0.00    -0.023 Cl
ENDROOT
BRANCH   1   4
HETATM    4  C7  UNL     1       4.543  -1.377  22.643  1.00  0.00     0.124 A 
HETATM    5  N3  UNL     1       4.514  -2.672  22.779  1.00  0.00    -0.327 N 
HETATM    6  C6  UNL     1       4.921  -3.435  21.765  1.00  0.00     0.147 A 
ATOM      7  H3  UNL     1       4.184  -3.095  23.646  1.00  0.00     0.168 HD
HETATM    8  S3  UNL     1       5.363  -2.302  20.577  1.00  0.00    -0.033 SA
HETATM    9  C10 UNL     1       5.001  -0.882  21.442  1.00  0.00     0.121 A 
BRANCH   6  10
HETATM   10  N2  UNL     1       4.975  -4.745  21.689  1.00  0.00    -0.370 N 
ATOM     11  H2  UNL     1       5.651  -5.215  21.085  1.00  0.00     0.161 HD
BRANCH  10  12
HETATM   12  C5  UNL     1       4.028  -5.500  22.504  1.00  0.00     0.123 C 
BRANCH  12  13
HETATM   13  C4  UNL     1       4.611  -6.832  22.927  1.00  0.00     0.039 C 
BRANCH  13  14
HETATM   14  C3  UNL     1       5.422  -6.584  24.168  1.00  0.00     0.124 C 
BRANCH  14  15
HETATM   15  N1  UNL     1       4.574  -6.042  25.195  1.00  0.00    -0.361 N 
HETATM   16  C2  UNL     1       4.803  -6.270  26.560  1.00  0.00     0.213 C 
HETATM   17  C1  UNL     1       3.860  -5.667  27.550  1.00  0.00     0.117 C 
HETATM   18  O1  UNL     1       5.764  -6.953  26.938  1.00  0.00    -0.274 OA
ATOM     19  H1  UNL     1       3.775  -5.469  24.920  1.00  0.00     0.162 HD
ENDBRANCH  14  15
ENDBRANCH  13  14
ENDBRANCH  12  13
ENDBRANCH  10  12
ENDBRANCH   6  10
BRANCH   9  20
HETATM   20  N4  UNL     1       5.130   0.526  21.047  1.00  0.00    -0.292 N 
HETATM   21  C11 UNL     1       4.167   1.237  20.522  1.00  0.00     0.022 A 
HETATM   22  C12 UNL     1       2.779   0.638  20.267  1.00  0.00     0.069 C 
HETATM   23  C13 UNL     1       4.437   2.545  20.204  1.00  0.00     0.077 A 
HETATM   24  S1  UNL     1       6.067   2.704  20.672  1.00  0.00    -0.070 SA
HETATM   25  C14 UNL     1       6.313   1.118  21.241  1.00  0.00     0.150 A 
HETATM   26  S2  UNL     1       7.704   0.481  21.879  1.00  0.00    -0.052 SA
ENDBRANCH   9  20
ENDBRANCH   1   4
TORSDOF 7
ENDMDL
MODEL 5
REMARK VINA RESULT: -6.911805511      3.214      4.179
REMARK  7 active torsions:
REMARK  status: ('A' for Active; 'I' for Inactive)
REMARK       I    between atoms: C2_2  and  N1_4 
REMARK    1  A    between atoms: N1_4  and  C3_6 
REMARK    2  A    between atoms: C3_6  and  C4_7 
REMARK    3  A    between atoms: C4_7  and  C5_8 
REMARK    4  A    between atoms: C5_8  and  N2_9 
REMARK    5  A    between atoms: N2_9  and  C6_11 
REMARK    6  A    between atoms: C7_14  and  C8_15 
REMARK    7  A    between atoms: C10_18  and  N4_19 
ROOT
HETATM    1  C8  UNL     1       7.308   3.664  20.684  1.00  0.00    -0.029 C 
HETATM    2  C9  UNL     1       7.923   4.664  20.985  1.00  0.00     0.012 C 
HETATM    3 CL1  UNL     1       8.817   6.084  21.390  1.00  0.00    -0.023 Cl
ENDROOT
BRANCH   1   4
HETATM    4  C7  UNL     1       6.578   2.429  20.330  1.00  0.00     0.124 A 
HETATM    5  N3  UNL     1       5.765   1.837  21.159  1.00  0.00    -0.327 N 
HETATM    6  C6  UNL     1       5.143   0.726  20.766  1.00  0.00     0.147 A 
ATOM      7  H3  UNL     1       5.607   2.217  22.091  1.00  0.00     0.168 HD
HETATM    8  S3  UNL     1       5.714   0.498  19.180  1.00  0.00    -0.033 SA
HETATM    9  C10 UNL     1       6.738   1.855  19.089  1.00  0.00     0.121 A 
BRANCH   6  10
HETATM   10  N2  UNL     1       4.293  -0.023  21.430  1.00  0.00    -0.370 N 
ATOM     11  H2  UNL     1       4.091  -0.981  21.143  1.00  0.00     0.161 HD
BRANCH  10  12
HETATM   12  C5  UNL     1       3.650   0.574  22.597  1.00  0.00     0.123 C 
BRANCH  12  13
HETATM   13  C4  UNL     1       4.122  -0.082  23.877  1.00  0.00     0.039 C 
BRANCH  13  14
HETATM   14  C3  UNL     1       3.417   0.606  25.012  1.00  0.00     0.124 C 
BRANCH  14  15
HETATM   15  N1  UNL     1       2.567   1.643  24.490  1.00  0.00    -0.361 N 
HETATM   16  C2  UNL     1       1.864   2.529  25.319  1.00  0.00     0.213 C 
HETATM   17  C1  UNL     1       1.002   3.569  24.680  1.00  0.00     0.117 C 
HETATM   18  O1  UNL     1       1.955   2.455  26.552  1.00  0.00    -0.274 OA
ATOM     19  H1  UNL     1       2.472   1.737  23.479  1.00  0.00     0.162 HD
ENDBRANCH  14  15
ENDBRANCH  13  14
ENDBRANCH  12  13
ENDBRANCH  10  12
ENDBRANCH   6  10
BRANCH   9  20
HETATM   20  N4  UNL     1       7.590   2.326  17.991  1.00  0.00    -0.292 N 
HETATM   21  C11 UNL     1       7.174   3.073  17.002  1.00  0.00     0.022 A 
HETATM   22  C12 UNL     1       5.715   3.531  16.905  1.00  0.00     0.069 C 
HETATM   23  C13 UNL     1       8.090   3.437  16.045  1.00  0.00     0.077 A 
HETATM   24  S1  UNL     1       9.516   2.691  16.604  1.00  0.00    -0.070 SA
HETATM   25  C14 UNL     1       8.878   1.967  18.007  1.00  0.00     0.150 A 
HETATM   26  S2  UNL     1       9.686   1.037  19.117  1.00  0.00    -0.052 SA
ENDBRANCH   9  20
ENDBRANCH   1   4
TORSDOF 7
ENDMDL
