MODEL 1
REMARK VINA RESULT: -7.900077382      0.000      0.000
REMARK  7 active torsions:
REMARK  status: ('A' for Active; 'I' for Inactive)
REMARK    1  A    between atoms: O1_2  and  C2_3 
REMARK    2  A    between atoms: C3_4  and  N1_5 
REMARK       I    between atoms: N1_5  and  C4_7 
REMARK    3  A    between atoms: C8_12  and  C9_13 
REMARK    4  A    between atoms: C9_13  and  N2_15 
REMARK    5  A    between atoms: N2_15  and  N3_16 
REMARK    6  A    between atoms: N3_16  and  C11_18 
REMARK    7  A    between atoms: C15_26  and  O3_27 
ROOT
HETATM    1  C2  UNL     1       6.991   2.716  19.769  1.00  0.00     0.129 A 
HETATM    2  C3  UNL     1       7.986   3.151  20.631  1.00  0.00     0.071 A 
HETATM    3  C6  UNL     1       8.350   2.331  21.658  1.00  0.00     0.033 A 
HETATM    4  C7  UNL     1       7.711   1.102  21.800  1.00  0.00     0.020 A 
HETATM    5  C8  UNL     1       6.714   0.657  20.945  1.00  0.00     0.038 A 
HETATM    6  C15 UNL     1       6.356   1.475  19.920  1.00  0.00     0.117 A 
ENDROOT
BRANCH   5   7
HETATM    7  C9  UNL     1       6.059  -0.629  21.235  1.00  0.00     0.118 C 
HETATM    8  C10 UNL     1       6.190  -1.808  20.341  1.00  0.00     0.088 C 
BRANCH   7   9
HETATM    9  N2  UNL     1       5.354  -0.721  22.235  1.00  0.00    -0.328 NA
BRANCH   9  10
HETATM   10  N3  UNL     1       4.638  -0.812  23.246  1.00  0.00    -0.212 N 
ATOM     11  H3  UNL     1       4.635  -1.726  23.699  1.00  0.00     0.204 HD
BRANCH  10  12
HETATM   12  C11 UNL     1       3.889   0.099  23.810  1.00  0.00     0.175 A 
HETATM   13  N4  UNL     1       3.632   0.308  25.096  1.00  0.00    -0.337 N 
HETATM   14  C12 UNL     1       2.845   1.289  25.437  1.00  0.00     0.036 A 
ATOM     15  H4  UNL     1       4.046  -0.293  25.809  1.00  0.00     0.168 HD
HETATM   16  C13 UNL     1       2.499   1.588  26.893  1.00  0.00     0.070 C 
HETATM   17  C14 UNL     1       2.319   2.062  24.435  1.00  0.00     0.100 A 
HETATM   18 CL1  UNL     1       1.227   3.451  24.601  1.00  0.00    -0.074 Cl
HETATM   19  S1  UNL     1       2.979   1.344  23.040  1.00  0.00    -0.038 SA
ENDBRANCH  10  12
ENDBRANCH   9  10
ENDBRANCH   7   9
ENDBRANCH   5   7
BRANCH   6  20
HETATM   20  O3  UNL     1       5.381   1.158  18.989  1.00  0.00    -0.352 OA
HETATM   21  C16 UNL     1       4.028   1.464  19.366  1.00  0.00     0.210 C 
ENDBRANCH   6  20
BRANCH   1  22
HETATM   22  O1  UNL     1       6.622   3.542  18.730  1.00  0.00    -0.351 OA
HETATM   23  C1  UNL     1       7.205   3.315  17.463  1.00  0.00     0.210 C 
ENDBRANCH   1  22
BRANCH   2  24
HETATM   24  N1  UNL     1       8.583   4.414  20.441  1.00  0.00    -0.325 N 
HETATM   25  C4  UNL     1       8.684   5.501  21.286  1.00  0.00     0.218 C 
HETATM   26  C5  UNL     1       9.383   6.743  20.815  1.00  0.00     0.117 C 
HETATM   27  O2  UNL     1       8.234   5.546  22.434  1.00  0.00    -0.274 OA
ATOM     28  H1  UNL     1       9.013   4.547  19.525  1.00  0.00     0.169 HD
ENDBRANCH   2  24
TORSDOF 7
ENDMDL
MODEL 2
REMARK VINA RESULT: -7.822866375      2.184      2.972
REMARK  7 active torsions:
REMARK  status: ('A' for Active; 'I' for Inactive)
REMARK    1  A    between atoms: O1_2  and  C2_3 
REMARK    2  A    between atoms: C3_4  and  N1_5 
REMARK       I    between atoms: N1_5  and  C4_7 
REMARK    3  A    between atoms: C8_12  and  C9_13 
REMARK    4  A    between atoms: C9_13  and  N2_15 
REMARK    5  A    between atoms: N2_15  and  N3_16 
REMARK    6  A    between atoms: N3_16  and  C11_18 
REMARK    7  A    between atoms: C15_26  and  O3_27 
ROOT
HETATM    1  C2  UNL     1       7.949   1.892  20.801  1.00  0.00     0.129 A 
HETATM    2  C3  UNL     1       8.046   3.172  20.278  1.00  0.00     0.071 A 
HETATM    3  C6  UNL     1       6.998   3.651  19.550  1.00  0.00     0.033 A 
HETATM    4  C7  UNL     1       5.882   2.841  19.360  1.00  0.00     0.020 A 
HETATM    5  C8  UNL     1       5.772   1.559  19.876  1.00  0.00     0.038 A 
HETATM    6  C15 UNL     1       6.819   1.085  20.604  1.00  0.00     0.117 A 
ENDROOT
BRANCH   5   7
HETATM    7  C9  UNL     1       4.575   0.767  19.550  1.00  0.00     0.118 C 
HETATM    8  C10 UNL     1       4.619  -0.402  18.635  1.00  0.00     0.088 C 
BRANCH   7   9
HETATM    9  N2  UNL     1       3.496   1.105  20.026  1.00  0.00    -0.328 NA
BRANCH   9  10
HETATM   10  N3  UNL     1       2.404   1.448  20.508  1.00  0.00    -0.212 N 
ATOM     11  H3  UNL     1       1.606   1.385  19.876  1.00  0.00     0.204 HD
BRANCH  10  12
HETATM   12  C11 UNL     1       2.135   1.878  21.714  1.00  0.00     0.175 A 
HETATM   13  N4  UNL     1       1.234   2.767  22.115  1.00  0.00    -0.337 N 
HETATM   14  C12 UNL     1       1.138   3.047  23.384  1.00  0.00     0.036 A 
ATOM     15  H4  UNL     1       0.625   3.225  21.438  1.00  0.00     0.168 HD
HETATM   16  C13 UNL     1       0.131   4.061  23.921  1.00  0.00     0.070 C 
HETATM   17  C14 UNL     1       1.984   2.399  24.246  1.00  0.00     0.100 A 
HETATM   18 CL1  UNL     1       2.077   2.580  26.010  1.00  0.00    -0.074 Cl
HETATM   19  S1  UNL     1       2.885   1.411  23.194  1.00  0.00    -0.038 SA
ENDBRANCH  10  12
ENDBRANCH   9  10
ENDBRANCH   7   9
ENDBRANCH   5   7
BRANCH   6  20
HETATM   20  O3  UNL     1       6.845  -0.173  21.183  1.00  0.00    -0.352 OA
HETATM   21  C16 UNL     1       6.088  -0.322  22.397  1.00  0.00     0.210 C 
ENDBRANCH   6  20
BRANCH   1  22
HETATM   22  O1  UNL     1       9.006   1.405  21.537  1.00  0.00    -0.351 OA
HETATM   23  C1  UNL     1       9.004   1.635  22.932  1.00  0.00     0.210 C 
ENDBRANCH   1  22
BRANCH   2  24
HETATM   24  N1  UNL     1       9.212   3.936  20.495  1.00  0.00    -0.325 N 
HETATM   25  C4  UNL     1       9.435   5.030  21.306  1.00  0.00     0.218 C 
HETATM   26  C5  UNL     1      10.797   5.661  21.341  1.00  0.00     0.117 C 
HETATM   27  O2  UNL     1       8.586   5.557  22.030  1.00  0.00    -0.274 OA
ATOM     28  H1  UNL     1      10.027   3.629  19.963  1.00  0.00     0.169 HD
ENDBRANCH   2  24
TORSDOF 7
ENDMDL
MODEL 3
REMARK VINA RESULT: -7.700951384      1.518      1.643
REMARK  7 active torsions:
REMARK  status: ('A' for Active; 'I' for Inactive)
REMARK    1  A    between atoms: O1_2  and  C2_3 
REMARK    2  A    between atoms: C3_4  and  N1_5 
REMARK       I    between atoms: N1_5  and  C4_7 
REMARK    3  A    between atoms: C8_12  and  C9_13 
REMARK    4  A    between atoms: C9_13  and  N2_15 
REMARK    5  A    between atoms: N2_15  and  N3_16 
REMARK    6  A    between atoms: N3_16  and  C11_18 
REMARK    7  A    between atoms: C15_26  and  O3_27 
ROOT
HETATM    1  C2  UNL     1       8.205   2.740  19.773  1.00  0.00     0.129 A 
HETATM    2  C3  UNL     1       8.968   3.033  20.893  1.00  0.00     0.071 A 
HETATM    3  C6  UNL     1       8.799   2.264  22.006  1.00  0.00     0.033 A 
HETATM    4  C7  UNL     1       7.872   1.225  21.975  1.00  0.00     0.020 A 
HETATM    5  C8  UNL     1       7.102   0.923  20.863  1.00  0.00     0.038 A 
HETATM    6  C15 UNL     1       7.275   1.690  19.753  1.00  0.00     0.117 A 
ENDROOT
BRANCH   5   7
HETATM    7  C9  UNL     1       6.102  -0.152  20.969  1.00  0.00     0.118 C 
HETATM    8  C10 UNL     1       6.409  -1.562  20.620  1.00  0.00     0.088 C 
BRANCH   7   9
HETATM    9  N2  UNL     1       4.964   0.134  21.327  1.00  0.00    -0.328 NA
BRANCH   9  10
HETATM   10  N3  UNL     1       3.812   0.424  21.691  1.00  0.00    -0.212 N 
ATOM     11  H3  UNL     1       3.091   0.337  20.975  1.00  0.00     0.204 HD
BRANCH  10  12
HETATM   12  C11 UNL     1       3.395   0.825  22.864  1.00  0.00     0.175 A 
HETATM   13  N4  UNL     1       2.567   1.816  23.176  1.00  0.00    -0.337 N 
HETATM   14  C12 UNL     1       2.287   2.040  24.428  1.00  0.00     0.036 A 
ATOM     15  H4  UNL     1       2.156   2.394  22.444  1.00  0.00     0.168 HD
HETATM   16  C13 UNL     1       1.349   3.162  24.865  1.00  0.00     0.070 C 
HETATM   17  C14 UNL     1       2.871   1.230  25.368  1.00  0.00     0.100 A 
HETATM   18 CL1  UNL     1       2.674   1.303  27.130  1.00  0.00    -0.074 Cl
HETATM   19  S1  UNL     1       3.801   0.176  24.408  1.00  0.00    -0.038 SA
ENDBRANCH  10  12
ENDBRANCH   9  10
ENDBRANCH   7   9
ENDBRANCH   5   7
BRANCH   6  20
HETATM   20  O3  UNL     1       6.579   1.499  18.571  1.00  0.00    -0.352 OA
HETATM   21  C16 UNL     1       5.371   2.264  18.423  1.00  0.00     0.210 C 
ENDBRANCH   6  20
BRANCH   1  22
HETATM   22  O1  UNL     1       8.373   3.514  18.647  1.00  0.00    -0.351 OA
HETATM   23  C1  UNL     1       9.332   3.100  17.695  1.00  0.00     0.210 C 
ENDBRANCH   1  22
BRANCH   2  24
HETATM   24  N1  UNL     1       9.880   4.109  20.864  1.00  0.00    -0.325 N 
HETATM   25  C4  UNL     1       9.761   5.404  21.323  1.00  0.00     0.218 C 
HETATM   26  C5  UNL     1      10.908   6.358  21.155  1.00  0.00     0.117 C 
HETATM   27  O2  UNL     1       8.761   5.867  21.879  1.00  0.00    -0.274 OA
ATOM     28  H1  UNL     1      10.777   3.893  20.429  1.00  0.00     0.169 HD
ENDBRANCH   2  24
TORSDOF 7
ENDMDL
MODEL 4
REMARK VINA RESULT: -7.527034489      1.928      2.381
REMARK  7 active torsions:
REMARK  status: ('A' for Active; 'I' for Inactive)
REMARK    1  A    between atoms: O1_2  and  C2_3 
REMARK    2  A    between atoms: C3_4  and  N1_5 
REMARK       I    between atoms: N1_5  and  C4_7 
REMARK    3  A    between atoms: C8_12  and  C9_13 
REMARK    4  A    between atoms: C9_13  and  N2_15 
REMARK    5  A    between atoms: N2_15  and  N3_16 
REMARK    6  A    between atoms: N3_16  and  C11_18 
REMARK    7  A    between atoms: C15_26  and  O3_27 
ROOT
HETATM    1  C2  UNL     1       8.193   2.435  19.266  1.00  0.00     0.129 A 
HETATM    2  C3  UNL     1       8.103   3.676  19.878  1.00  0.00     0.071 A 
HETATM    3  C6  UNL     1       6.917   4.025  20.453  1.00  0.00     0.033 A 
HETATM    4  C7  UNL     1       5.852   3.129  20.402  1.00  0.00     0.020 A 
HETATM    5  C8  UNL     1       5.929   1.886  19.792  1.00  0.00     0.038 A 
HETATM    6  C15 UNL     1       7.114   1.540  19.222  1.00  0.00     0.117 A 
ENDROOT
BRANCH   5   7
HETATM    7  C9  UNL     1       4.718   1.052  19.736  1.00  0.00     0.118 C 
HETATM    8  C10 UNL     1       3.948   0.851  18.482  1.00  0.00     0.088 C 
BRANCH   7   9
HETATM    9  N2  UNL     1       4.311   0.530  20.769  1.00  0.00    -0.328 NA
BRANCH   9  10
HETATM   10  N3  UNL     1       3.899   0.003  21.815  1.00  0.00    -0.212 N 
ATOM     11  H3  UNL     1       3.910  -1.017  21.827  1.00  0.00     0.204 HD
BRANCH  10  12
HETATM   12  C11 UNL     1       3.453   0.573  22.905  1.00  0.00     0.175 A 
HETATM   13  N4  UNL     1       2.629   1.605  23.045  1.00  0.00    -0.337 N 
HETATM   14  C12 UNL     1       2.315   2.011  24.243  1.00  0.00     0.036 A 
ATOM     15  H4  UNL     1       2.245   2.074  22.224  1.00  0.00     0.168 HD
HETATM   16  C13 UNL     1       1.378   3.191  24.484  1.00  0.00     0.070 C 
HETATM   17  C14 UNL     1       2.862   1.341  25.307  1.00  0.00     0.100 A 
HETATM   18 CL1  UNL     1       2.615   1.670  27.033  1.00  0.00    -0.074 Cl
HETATM   19  S1  UNL     1       3.806   0.152  24.538  1.00  0.00    -0.038 SA
ENDBRANCH  10  12
ENDBRANCH   9  10
ENDBRANCH   7   9
ENDBRANCH   5   7
BRANCH   6  20
HETATM   20  O3  UNL     1       7.336   0.330  18.584  1.00  0.00    -0.352 OA
HETATM   21  C16 UNL     1       7.726  -0.764  19.431  1.00  0.00     0.210 C 
ENDBRANCH   6  20
BRANCH   1  22
HETATM   22  O1  UNL     1       9.390   2.080  18.684  1.00  0.00    -0.351 OA
HETATM   23  C1  UNL     1       9.580   2.388  17.317  1.00  0.00     0.210 C 
ENDBRANCH   1  22
BRANCH   2  24
HETATM   24  N1  UNL     1       9.215   4.543  19.882  1.00  0.00    -0.325 N 
HETATM   25  C4  UNL     1      10.074   4.903  20.901  1.00  0.00     0.218 C 
HETATM   26  C5  UNL     1      11.191   5.866  20.622  1.00  0.00     0.117 C 
HETATM   27  O2  UNL     1      10.003   4.491  22.062  1.00  0.00    -0.274 OA
ATOM     28  H1  UNL     1       9.419   4.978  18.982  1.00  0.00     0.169 HD
ENDBRANCH   2  24
TORSDOF 7
ENDMDL
MODEL 5
REMARK VINA RESULT: -7.485818024      1.731      2.085
REMARK  7 active torsions:
REMARK  status: ('A' for Active; 'I' for Inactive)
REMARK    1  A    between atoms: O1_2  and  C2_3 
REMARK    2  A    between atoms: C3_4  and  N1_5 
REMARK       I    between atoms: N1_5  and  C4_7 
REMARK    3  A    between atoms: C8_12  and  C9_13 
REMARK    4  A    between atoms: C9_13  and  N2_15 
REMARK    5  A    between atoms: N2_15  and  N3_16 
REMARK    6  A    between atoms: N3_16  and  C11_18 
REMARK    7  A    between atoms: C15_26  and  O3_27 
ROOT
HETATM    1  C2  UNL     1       8.594   1.857  20.087  1.00  0.00     0.129 A 
HETATM    2  C3  UNL     1       8.227   3.194  20.057  1.00  0.00     0.071 A 
HETATM    3  C6  UNL     1       6.905   3.502  20.178  1.00  0.00     0.033 A 
HETATM    4  C7  UNL     1       5.982   2.469  20.324  1.00  0.00     0.020 A 
HETATM    5  C8  UNL     1       6.335   1.129  20.354  1.00  0.00     0.038 A 
HETATM    6  C15 UNL     1       7.655   0.825  20.236  1.00  0.00     0.117 A 
ENDROOT
BRANCH   5   7
HETATM    7  C9  UNL     1       5.266   0.120  20.440  1.00  0.00     0.118 C 
HETATM    8  C10 UNL     1       4.729  -0.574  19.242  1.00  0.00     0.088 C 
BRANCH   7   9
HETATM    9  N2  UNL     1       4.779  -0.133  21.537  1.00  0.00    -0.328 NA
BRANCH   9  10
HETATM   10  N3  UNL     1       4.285  -0.388  22.648  1.00  0.00    -0.212 N 
ATOM     11  H3  UNL     1       4.424  -1.342  22.981  1.00  0.00     0.204 HD
BRANCH  10  12
HETATM   12  C11 UNL     1       3.613   0.396  23.450  1.00  0.00     0.175 A 
HETATM   13  N4  UNL     1       3.513   0.370  24.774  1.00  0.00    -0.337 N 
HETATM   14  C12 UNL     1       2.776   1.261  25.375  1.00  0.00     0.036 A 
ATOM     15  H4  UNL     1       4.008  -0.340  25.315  1.00  0.00     0.168 HD
HETATM   16  C13 UNL     1       2.610   1.293  26.891  1.00  0.00     0.070 C 
HETATM   17  C14 UNL     1       2.136   2.189  24.595  1.00  0.00     0.100 A 
HETATM   18 CL1  UNL     1       1.077   3.508  25.134  1.00  0.00    -0.074 Cl
HETATM   19  S1  UNL     1       2.621   1.740  23.027  1.00  0.00    -0.038 SA
ENDBRANCH  10  12
ENDBRANCH   9  10
ENDBRANCH   7   9
ENDBRANCH   5   7
BRANCH   6  20
HETATM   20  O3  UNL     1       8.151  -0.468  20.255  1.00  0.00    -0.352 OA
HETATM   21  C16 UNL     1       8.172  -1.151  18.990  1.00  0.00     0.210 C 
ENDBRANCH   6  20
BRANCH   1  22
HETATM   22  O1  UNL     1       9.929   1.543  19.964  1.00  0.00    -0.351 OA
HETATM   23  C1  UNL     1      10.488   1.518  18.666  1.00  0.00     0.210 C 
ENDBRANCH   1  22
BRANCH   2  24
HETATM   24  N1  UNL     1       9.211   4.192  19.892  1.00  0.00    -0.325 N 
HETATM   25  C4  UNL     1      10.045   4.796  20.810  1.00  0.00     0.218 C 
HETATM   26  C5  UNL     1      11.011   5.849  20.351  1.00  0.00     0.117 C 
HETATM   27  O2  UNL     1      10.069   4.541  22.017  1.00  0.00    -0.274 OA
ATOM     28  H1  UNL     1       9.324   4.522  18.933  1.00  0.00     0.169 HD
ENDBRANCH   2  24
TORSDOF 7
ENDMDL
