MODEL 1
REMARK VINA RESULT: -8.199897951      0.000      0.000
REMARK  7 active torsions:
REMARK  status: ('A' for Active; 'I' for Inactive)
REMARK    1  A    between atoms: C2_2  and  C4_4 
REMARK    2  A    between atoms: C4_4  and  C5_6 
REMARK    3  A    between atoms: C8_10  and  N1_11 
REMARK    4  A    between atoms: C12_15  and  S1_16 
REMARK    5  A    between atoms: S1_16  and  C13_17 
REMARK    6  A    between atoms: C15_20  and  O2_21 
REMARK    7  A    between atoms: C17_24  and  O3_25 
ROOT
HETATM    1  C5  UNL     1       4.210  -0.336  22.463  1.00  0.00     0.029 A 
HETATM    2  C6  UNL     1       4.024  -0.189  23.838  1.00  0.00     0.042 A 
HETATM    3  C7  UNL     1       3.195   0.819  24.311  1.00  0.00     0.061 A 
HETATM    4 CL1  UNL     1       2.981   0.980  26.055  1.00  0.00    -0.082 Cl
HETATM    5  C8  UNL     1       2.565   1.660  23.430  1.00  0.00     0.052 A 
HETATM    6  C11 UNL     1       2.767   1.491  22.082  1.00  0.00     0.050 A 
HETATM    7  C12 UNL     1       3.584   0.502  21.570  1.00  0.00     0.018 A 
ENDROOT
BRANCH   7   8
HETATM    8  S1  UNL     1       3.743   0.410  19.811  1.00  0.00    -0.111 SA
BRANCH   8   9
HETATM    9  C13 UNL     1       4.969   1.475  19.097  1.00  0.00     0.142 C 
HETATM   10  S2  UNL     1       6.665   0.778  19.274  1.00  0.00    -0.148 SA
HETATM   11  C14 UNL     1       7.779   2.127  18.785  1.00  0.00     0.107 C 
HETATM   12  C15 UNL     1       7.003   2.974  17.782  1.00  0.00     0.130 C 
HETATM   13  C16 UNL     1       6.105   2.077  16.960  1.00  0.00     0.066 C 
HETATM   14  C17 UNL     1       4.803   1.773  17.651  1.00  0.00     0.144 C 
BRANCH  12  15
HETATM   15  O2  UNL     1       7.918   3.547  16.900  1.00  0.00    -0.395 OA
ATOM     16  H2  UNL     1       7.434   3.907  16.166  1.00  0.00     0.210 HD
ENDBRANCH  12  15
BRANCH  14  17
HETATM   17  O3  UNL     1       3.955   2.855  17.436  1.00  0.00    -0.394 OA
ATOM     18  H3  UNL     1       3.474   2.774  16.621  1.00  0.00     0.210 HD
ENDBRANCH  14  17
ENDBRANCH   8   9
ENDBRANCH   7   8
BRANCH   1  19
HETATM   19  C4  UNL     1       5.030  -1.415  21.992  1.00  0.00     0.164 C 
HETATM   20  O1  UNL     1       6.296  -1.347  22.172  1.00  0.00    -0.292 OA
BRANCH  19  21
HETATM   21  C2  UNL     1       4.567  -2.637  21.298  1.00  0.00     0.052 C 
HETATM   22  C1  UNL     1       5.376  -3.031  20.109  1.00  0.00     0.018 C 
HETATM   23  C3  UNL     1       4.501  -3.797  22.262  1.00  0.00     0.018 C 
ENDBRANCH  19  21
ENDBRANCH   1  19
BRANCH   5  24
HETATM   24  N1  UNL     1       1.719   2.683  23.932  1.00  0.00    -0.388 N 
HETATM   25  C9  UNL     1       0.766   3.297  23.046  1.00  0.00     0.149 C 
HETATM   26  C10 UNL     1       1.792   3.120  25.302  1.00  0.00     0.149 C 
ENDBRANCH   5  24
TORSDOF 7
ENDMDL
MODEL 2
REMARK VINA RESULT: -8.078682877      1.309      1.579
REMARK  7 active torsions:
REMARK  status: ('A' for Active; 'I' for Inactive)
REMARK    1  A    between atoms: C2_2  and  C4_4 
REMARK    2  A    between atoms: C4_4  and  C5_6 
REMARK    3  A    between atoms: C8_10  and  N1_11 
REMARK    4  A    between atoms: C12_15  and  S1_16 
REMARK    5  A    between atoms: S1_16  and  C13_17 
REMARK    6  A    between atoms: C15_20  and  O2_21 
REMARK    7  A    between atoms: C17_24  and  O3_25 
ROOT
HETATM    1  C5  UNL     1       4.176  -0.176  22.654  1.00  0.00     0.029 A 
HETATM    2  C6  UNL     1       3.914  -0.086  24.022  1.00  0.00     0.042 A 
HETATM    3  C7  UNL     1       3.060   0.904  24.489  1.00  0.00     0.061 A 
HETATM    4 CL1  UNL     1       2.748   0.992  26.224  1.00  0.00    -0.082 Cl
HETATM    5  C8  UNL     1       2.481   1.783  23.611  1.00  0.00     0.052 A 
HETATM    6  C11 UNL     1       2.758   1.670  22.270  1.00  0.00     0.050 A 
HETATM    7  C12 UNL     1       3.601   0.701  21.764  1.00  0.00     0.018 A 
ENDROOT
BRANCH   7   8
HETATM    8  S1  UNL     1       3.859   0.683  20.014  1.00  0.00    -0.111 SA
BRANCH   8   9
HETATM    9  C13 UNL     1       5.389   1.388  19.458  1.00  0.00     0.142 C 
HETATM   10  S2  UNL     1       5.170   2.348  17.901  1.00  0.00    -0.148 SA
HETATM   11  C14 UNL     1       6.858   2.710  17.333  1.00  0.00     0.107 C 
HETATM   12  C15 UNL     1       7.722   2.770  18.588  1.00  0.00     0.130 C 
HETATM   13  C16 UNL     1       6.910   3.345  19.727  1.00  0.00     0.066 C 
HETATM   14  C17 UNL     1       6.060   2.310  20.411  1.00  0.00     0.144 C 
BRANCH  12  15
HETATM   15  O2  UNL     1       8.771   3.658  18.349  1.00  0.00    -0.395 OA
ATOM     16  H2  UNL     1       8.854   4.226  19.106  1.00  0.00     0.210 HD
ENDBRANCH  12  15
BRANCH  14  17
HETATM   17  O3  UNL     1       6.876   1.627  21.309  1.00  0.00    -0.394 OA
ATOM     18  H3  UNL     1       7.379   2.220  21.854  1.00  0.00     0.210 HD
ENDBRANCH  14  17
ENDBRANCH   8   9
ENDBRANCH   7   8
BRANCH   1  19
HETATM   19  C4  UNL     1       5.020  -1.236  22.185  1.00  0.00     0.164 C 
HETATM   20  O1  UNL     1       6.286  -1.131  22.348  1.00  0.00    -0.292 OA
BRANCH  19  21
HETATM   21  C2  UNL     1       4.584  -2.478  21.509  1.00  0.00     0.052 C 
HETATM   22  C1  UNL     1       5.359  -2.837  20.288  1.00  0.00     0.018 C 
HETATM   23  C3  UNL     1       4.609  -3.639  22.474  1.00  0.00     0.018 C 
ENDBRANCH  19  21
ENDBRANCH   1  19
BRANCH   5  24
HETATM   24  N1  UNL     1       1.609   2.787  24.108  1.00  0.00    -0.388 N 
HETATM   25  C9  UNL     1       0.592   3.319  23.240  1.00  0.00     0.149 C 
HETATM   26  C10 UNL     1       1.717   3.283  25.455  1.00  0.00     0.149 C 
ENDBRANCH   5  24
TORSDOF 7
ENDMDL
MODEL 3
REMARK VINA RESULT: -7.979821257      3.153      4.779
REMARK  7 active torsions:
REMARK  status: ('A' for Active; 'I' for Inactive)
REMARK    1  A    between atoms: C2_2  and  C4_4 
REMARK    2  A    between atoms: C4_4  and  C5_6 
REMARK    3  A    between atoms: C8_10  and  N1_11 
REMARK    4  A    between atoms: C12_15  and  S1_16 
REMARK    5  A    between atoms: S1_16  and  C13_17 
REMARK    6  A    between atoms: C15_20  and  O2_21 
REMARK    7  A    between atoms: C17_24  and  O3_25 
ROOT
HETATM    1  C5  UNL     1       5.646   0.631  21.933  1.00  0.00     0.029 A 
HETATM    2  C6  UNL     1       6.745   0.526  22.787  1.00  0.00     0.042 A 
HETATM    3  C7  UNL     1       7.884   1.276  22.529  1.00  0.00     0.061 A 
HETATM    4 CL1  UNL     1       9.257   1.122  23.627  1.00  0.00    -0.082 Cl
HETATM    5  C8  UNL     1       7.925   2.112  21.443  1.00  0.00     0.052 A 
HETATM    6  C11 UNL     1       6.829   2.194  20.619  1.00  0.00     0.050 A 
HETATM    7  C12 UNL     1       5.677   1.466  20.840  1.00  0.00     0.018 A 
ENDROOT
BRANCH   7   8
HETATM    8  S1  UNL     1       4.348   1.679  19.692  1.00  0.00    -0.111 SA
BRANCH   8   9
HETATM    9  C13 UNL     1       4.653   1.083  18.049  1.00  0.00     0.142 C 
HETATM   10  S2  UNL     1       5.935  -0.239  18.030  1.00  0.00    -0.148 SA
HETATM   11  C14 UNL     1       6.329  -0.485  16.274  1.00  0.00     0.107 C 
HETATM   12  C15 UNL     1       5.065  -0.124  15.502  1.00  0.00     0.130 C 
HETATM   13  C16 UNL     1       3.853  -0.521  16.316  1.00  0.00     0.066 C 
HETATM   14  C17 UNL     1       3.478   0.517  17.337  1.00  0.00     0.144 C 
BRANCH  12  15
HETATM   15  O2  UNL     1       5.037  -0.888  14.336  1.00  0.00    -0.395 OA
ATOM     16  H2  UNL     1       4.645  -0.362  13.648  1.00  0.00     0.210 HD
ENDBRANCH  12  15
BRANCH  14  17
HETATM   17  O3  UNL     1       2.742   1.501  16.682  1.00  0.00    -0.394 OA
ATOM     18  H3  UNL     1       3.177   2.345  16.706  1.00  0.00     0.210 HD
ENDBRANCH  14  17
ENDBRANCH   8   9
ENDBRANCH   7   8
BRANCH   1  19
HETATM   19  C4  UNL     1       4.460  -0.113  22.245  1.00  0.00     0.164 C 
HETATM   20  O1  UNL     1       4.249  -1.216  21.629  1.00  0.00    -0.292 OA
BRANCH  19  21
HETATM   21  C2  UNL     1       3.417   0.260  23.225  1.00  0.00     0.052 C 
HETATM   22  C1  UNL     1       3.852   0.230  24.651  1.00  0.00     0.018 C 
HETATM   23  C3  UNL     1       2.856   1.624  22.905  1.00  0.00     0.018 C 
ENDBRANCH  19  21
ENDBRANCH   1  19
BRANCH   5  24
HETATM   24  N1  UNL     1       9.098   2.872  21.196  1.00  0.00    -0.388 N 
HETATM   25  C9  UNL     1      10.052   2.389  20.233  1.00  0.00     0.149 C 
HETATM   26  C10 UNL     1       9.356   4.110  21.884  1.00  0.00     0.149 C 
ENDBRANCH   5  24
TORSDOF 7
ENDMDL
MODEL 4
REMARK VINA RESULT: -7.808799222      1.321      1.619
REMARK  7 active torsions:
REMARK  status: ('A' for Active; 'I' for Inactive)
REMARK    1  A    between atoms: C2_2  and  C4_4 
REMARK    2  A    between atoms: C4_4  and  C5_6 
REMARK    3  A    between atoms: C8_10  and  N1_11 
REMARK    4  A    between atoms: C12_15  and  S1_16 
REMARK    5  A    between atoms: S1_16  and  C13_17 
REMARK    6  A    between atoms: C15_20  and  O2_21 
REMARK    7  A    between atoms: C17_24  and  O3_25 
ROOT
HETATM    1  C5  UNL     1       4.115  -0.120  22.487  1.00  0.00     0.029 A 
HETATM    2  C6  UNL     1       3.914  -0.045  23.866  1.00  0.00     0.042 A 
HETATM    3  C7  UNL     1       3.073   0.931  24.382  1.00  0.00     0.061 A 
HETATM    4 CL1  UNL     1       2.840   1.000  26.130  1.00  0.00    -0.082 Cl
HETATM    5  C8  UNL     1       2.447   1.813  23.539  1.00  0.00     0.052 A 
HETATM    6  C11 UNL     1       2.664   1.716  22.186  1.00  0.00     0.050 A 
HETATM    7  C12 UNL     1       3.492   0.760  21.632  1.00  0.00     0.018 A 
ENDROOT
BRANCH   7   8
HETATM    8  S1  UNL     1       3.670   0.760  19.873  1.00  0.00    -0.111 SA
BRANCH   8   9
HETATM    9  C13 UNL     1       5.196   1.424  19.258  1.00  0.00     0.142 C 
HETATM   10  S2  UNL     1       5.670   0.665  17.647  1.00  0.00    -0.148 SA
HETATM   11  C14 UNL     1       7.373   1.223  17.350  1.00  0.00     0.107 C 
HETATM   12  C15 UNL     1       7.504   2.572  18.047  1.00  0.00     0.130 C 
HETATM   13  C16 UNL     1       6.186   3.309  17.961  1.00  0.00     0.066 C 
HETATM   14  C17 UNL     1       5.220   2.893  19.036  1.00  0.00     0.144 C 
BRANCH  12  15
HETATM   15  O2  UNL     1       8.439   3.333  17.345  1.00  0.00    -0.395 OA
ATOM     16  H2  UNL     1       8.924   2.750  16.772  1.00  0.00     0.210 HD
ENDBRANCH  12  15
BRANCH  14  17
HETATM   17  O3  UNL     1       5.558   3.589  20.193  1.00  0.00    -0.394 OA
ATOM     18  H3  UNL     1       5.444   4.526  20.090  1.00  0.00     0.210 HD
ENDBRANCH  14  17
ENDBRANCH   8   9
ENDBRANCH   7   8
BRANCH   1  19
HETATM   19  C4  UNL     1       4.946  -1.168  21.970  1.00  0.00     0.164 C 
HETATM   20  O1  UNL     1       4.394  -2.263  21.599  1.00  0.00    -0.292 OA
BRANCH  19  21
HETATM   21  C2  UNL     1       6.417  -1.130  21.810  1.00  0.00     0.052 C 
HETATM   22  C1  UNL     1       6.914  -1.509  20.457  1.00  0.00     0.018 C 
HETATM   23  C3  UNL     1       6.951   0.234  22.173  1.00  0.00     0.018 C 
ENDBRANCH  19  21
ENDBRANCH   1  19
BRANCH   5  24
HETATM   24  N1  UNL     1       1.589   2.804  24.085  1.00  0.00    -0.388 N 
HETATM   25  C9  UNL     1       0.595   3.409  23.238  1.00  0.00     0.149 C 
HETATM   26  C10 UNL     1       1.689   3.216  25.460  1.00  0.00     0.149 C 
ENDBRANCH   5  24
TORSDOF 7
ENDMDL
MODEL 5
REMARK VINA RESULT: -7.749460360      3.538      5.223
REMARK  7 active torsions:
REMARK  status: ('A' for Active; 'I' for Inactive)
REMARK    1  A    between atoms: C2_2  and  C4_4 
REMARK    2  A    between atoms: C4_4  and  C5_6 
REMARK    3  A    between atoms: C8_10  and  N1_11 
REMARK    4  A    between atoms: C12_15  and  S1_16 
REMARK    5  A    between atoms: S1_16  and  C13_17 
REMARK    6  A    between atoms: C15_20  and  O2_21 
REMARK    7  A    between atoms: C17_24  and  O3_25 
ROOT
HETATM    1  C5  UNL     1       4.177   0.997  20.791  1.00  0.00     0.029 A 
HETATM    2  C6  UNL     1       3.151   0.909  19.850  1.00  0.00     0.042 A 
HETATM    3  C7  UNL     1       3.461   0.941  18.497  1.00  0.00     0.061 A 
HETATM    4 CL1  UNL     1       2.140   0.827  17.332  1.00  0.00    -0.082 Cl
HETATM    5  C8  UNL     1       4.766   1.058  18.094  1.00  0.00     0.052 A 
HETATM    6  C11 UNL     1       5.755   1.144  19.043  1.00  0.00     0.050 A 
HETATM    7  C12 UNL     1       5.490   1.117  20.398  1.00  0.00     0.018 A 
ENDROOT
BRANCH   7   8
HETATM    8  S1  UNL     1       6.870   1.236  21.498  1.00  0.00    -0.111 SA
BRANCH   8   9
HETATM    9  C13 UNL     1       8.132   2.388  21.021  1.00  0.00     0.142 C 
HETATM   10  S2  UNL     1       9.353   1.626  19.871  1.00  0.00    -0.148 SA
HETATM   11  C14 UNL     1      10.706   2.832  19.758  1.00  0.00     0.107 C 
HETATM   12  C15 UNL     1      10.075   4.200  19.993  1.00  0.00     0.130 C 
HETATM   13  C16 UNL     1       8.679   4.212  19.411  1.00  0.00     0.066 C 
HETATM   14  C17 UNL     1       7.658   3.624  20.346  1.00  0.00     0.144 C 
BRANCH  12  15
HETATM   15  O2  UNL     1      10.816   5.146  19.286  1.00  0.00    -0.395 OA
ATOM     16  H2  UNL     1      11.737   4.941  19.396  1.00  0.00     0.210 HD
ENDBRANCH  12  15
BRANCH  14  17
HETATM   17  O3  UNL     1       7.309   4.615  21.259  1.00  0.00    -0.394 OA
ATOM     18  H3  UNL     1       7.086   5.433  20.829  1.00  0.00     0.210 HD
ENDBRANCH  14  17
ENDBRANCH   8   9
ENDBRANCH   7   8
BRANCH   1  19
HETATM   19  C4  UNL     1       3.843   0.911  22.183  1.00  0.00     0.164 C 
HETATM   20  O1  UNL     1       2.951   1.704  22.650  1.00  0.00    -0.292 OA
BRANCH  19  21
HETATM   21  C2  UNL     1       4.429  -0.016  23.176  1.00  0.00     0.052 C 
HETATM   22  C1  UNL     1       3.830   0.059  24.539  1.00  0.00     0.018 C 
HETATM   23  C3  UNL     1       4.354  -1.438  22.677  1.00  0.00     0.018 C 
ENDBRANCH  19  21
ENDBRANCH   1  19
BRANCH   5  24
HETATM   24  N1  UNL     1       5.063   1.087  16.706  1.00  0.00    -0.388 N 
HETATM   25  C9  UNL     1       5.161   2.360  16.041  1.00  0.00     0.149 C 
HETATM   26  C10 UNL     1       5.267  -0.120  15.951  1.00  0.00     0.149 C 
ENDBRANCH   5  24
TORSDOF 7
ENDMDL
