MODEL 1
REMARK VINA RESULT: -6.479213671      0.000      0.000
REMARK  3 active torsions:
REMARK  status: ('A' for Active; 'I' for Inactive)
REMARK    1  A    between atoms: C7_12  and  C8_13 
REMARK    2  A    between atoms: C8_13  and  O1_14 
REMARK    3  A    between atoms: C11_18  and  O2_19 
ROOT
HETATM    1  N1  UNL     1      15.999 -55.272 -40.944  1.00  0.00    -0.196 NA
HETATM    2  C1  UNL     1      15.482 -54.253 -41.179  1.00  0.00     0.071 C 
HETATM    3  C2  UNL     1      14.837 -52.945 -41.500  1.00  0.00     0.160 C 
HETATM    4  C3  UNL     1      13.769 -52.828 -40.499  1.00  0.00     0.059 C 
HETATM    5  N2  UNL     1      12.651 -53.387 -40.698  1.00  0.00    -0.396 N 
ATOM      6  H21 UNL     1      11.909 -53.306 -40.002  1.00  0.00     0.156 HD
ATOM      7  H22 UNL     1      12.510 -53.915 -41.559  1.00  0.00     0.156 HD
HETATM    8  S1  UNL     1      14.016 -51.904 -38.990  1.00  0.00    -0.115 SA
HETATM    9  C4  UNL     1      14.994 -50.513 -39.540  1.00  0.00     0.086 C 
HETATM   10  C5  UNL     1      16.066 -50.941 -40.464  1.00  0.00     0.009 A 
HETATM   11  C6  UNL     1      16.876 -52.172 -40.334  1.00  0.00     0.021 A 
HETATM   12  C7  UNL     1      15.888 -51.912 -41.483  1.00  0.00     0.018 A 
ENDROOT
BRANCH  12  13
HETATM   13  C8  UNL     1      16.476 -51.605 -42.847  1.00  0.00     0.068 C 
HETATM   14  C9  UNL     1      17.445 -50.464 -42.868  1.00  0.00     0.041 C 
HETATM   15  C10 UNL     1      17.557 -50.046 -44.345  1.00  0.00     0.034 C 
HETATM   16  C11 UNL     1      17.930 -51.139 -45.261  1.00  0.00     0.118 C 
HETATM   17  C12 UNL     1      17.275 -52.449 -45.000  1.00  0.00     0.034 C 
HETATM   18  C13 UNL     1      17.062 -52.762 -43.542  1.00  0.00     0.041 C 
BRANCH  13  19
HETATM   19  O1  UNL     1      15.367 -51.159 -43.613  1.00  0.00    -0.389 OA
ATOM     20  H1  UNL     1      15.079 -51.934 -44.080  1.00  0.00     0.210 HD
ENDBRANCH  13  19
BRANCH  16  21
HETATM   21  O2  UNL     1      17.527 -50.751 -46.564  1.00  0.00    -0.396 OA
ATOM     22  H2  UNL     1      18.289 -50.818 -47.127  1.00  0.00     0.210 HD
ENDBRANCH  16  21
ENDBRANCH  12  13
TORSDOF 3
ENDMDL
MODEL 2
REMARK VINA RESULT: -6.468457501      1.836      2.250
REMARK  3 active torsions:
REMARK  status: ('A' for Active; 'I' for Inactive)
REMARK    1  A    between atoms: C7_12  and  C8_13 
REMARK    2  A    between atoms: C8_13  and  O1_14 
REMARK    3  A    between atoms: C11_18  and  O2_19 
ROOT
HETATM    1  N1  UNL     1      17.069 -56.073 -40.681  1.00  0.00    -0.196 NA
HETATM    2  C1  UNL     1      16.310 -55.210 -40.478  1.00  0.00     0.071 C 
HETATM    3  C2  UNL     1      15.352 -54.091 -40.236  1.00  0.00     0.160 C 
HETATM    4  C3  UNL     1      14.413 -54.642 -39.252  1.00  0.00     0.059 C 
HETATM    5  N2  UNL     1      13.435 -55.348 -39.635  1.00  0.00    -0.396 N 
ATOM      6  H21 UNL     1      12.782 -55.732 -38.952  1.00  0.00     0.156 HD
ATOM      7  H22 UNL     1      13.315 -55.523 -40.633  1.00  0.00     0.156 HD
HETATM    8  S1  UNL     1      14.622 -54.336 -37.504  1.00  0.00    -0.115 SA
HETATM    9  C4  UNL     1      15.187 -52.641 -37.469  1.00  0.00     0.086 C 
HETATM   10  C5  UNL     1      16.210 -52.393 -38.509  1.00  0.00     0.009 A 
HETATM   11  C6  UNL     1      17.287 -53.330 -38.898  1.00  0.00     0.021 A 
HETATM   12  C7  UNL     1      16.136 -52.911 -39.827  1.00  0.00     0.018 A 
ENDROOT
BRANCH  12  13
HETATM   13  C8  UNL     1      16.472 -51.966 -40.965  1.00  0.00     0.068 C 
HETATM   14  C9  UNL     1      17.612 -51.036 -40.690  1.00  0.00     0.041 C 
HETATM   15  C10 UNL     1      17.488 -49.913 -41.735  1.00  0.00     0.034 C 
HETATM   16  C11 UNL     1      17.448 -50.381 -43.132  1.00  0.00     0.118 C 
HETATM   17  C12 UNL     1      16.627 -51.598 -43.379  1.00  0.00     0.034 C 
HETATM   18  C13 UNL     1      16.671 -52.616 -42.270  1.00  0.00     0.041 C 
BRANCH  13  19
HETATM   19  O1  UNL     1      15.331 -51.128 -41.070  1.00  0.00    -0.389 OA
ATOM     20  H1  UNL     1      14.625 -51.722 -41.297  1.00  0.00     0.210 HD
ENDBRANCH  13  19
BRANCH  16  21
HETATM   21  O2  UNL     1      16.861 -49.348 -43.905  1.00  0.00    -0.396 OA
ATOM     22  H2  UNL     1      17.135 -49.479 -44.805  1.00  0.00     0.210 HD
ENDBRANCH  16  21
ENDBRANCH  12  13
TORSDOF 3
ENDMDL
MODEL 3
REMARK VINA RESULT: -6.418301480      1.763      2.146
REMARK  3 active torsions:
REMARK  status: ('A' for Active; 'I' for Inactive)
REMARK    1  A    between atoms: C7_12  and  C8_13 
REMARK    2  A    between atoms: C8_13  and  O1_14 
REMARK    3  A    between atoms: C11_18  and  O2_19 
ROOT
HETATM    1  N1  UNL     1      14.398 -53.507 -40.815  1.00  0.00    -0.196 NA
HETATM    2  C1  UNL     1      14.557 -52.541 -41.450  1.00  0.00     0.071 C 
HETATM    3  C2  UNL     1      14.772 -51.319 -42.280  1.00  0.00     0.160 C 
HETATM    4  C3  UNL     1      14.144 -50.249 -41.496  1.00  0.00     0.059 C 
HETATM    5  N2  UNL     1      12.898 -50.045 -41.584  1.00  0.00    -0.396 N 
ATOM      6  H21 UNL     1      12.462 -49.302 -41.039  1.00  0.00     0.156 HD
ATOM      7  H22 UNL     1      12.346 -50.635 -42.207  1.00  0.00     0.156 HD
HETATM    8  S1  UNL     1      15.112 -49.216 -40.406  1.00  0.00    -0.115 SA
HETATM    9  C4  UNL     1      16.628 -48.991 -41.324  1.00  0.00     0.086 C 
HETATM   10  C5  UNL     1      17.086 -50.261 -41.926  1.00  0.00     0.009 A 
HETATM   11  C6  UNL     1      17.018 -51.593 -41.284  1.00  0.00     0.021 A 
HETATM   12  C7  UNL     1      16.218 -51.203 -42.538  1.00  0.00     0.018 A 
ENDROOT
BRANCH  12  13
HETATM   13  C8  UNL     1      16.663 -51.802 -43.858  1.00  0.00     0.068 C 
HETATM   14  C9  UNL     1      17.642 -50.969 -44.625  1.00  0.00     0.041 C 
HETATM   15  C10 UNL     1      17.603 -51.510 -46.065  1.00  0.00     0.034 C 
HETATM   16  C11 UNL     1      17.860 -52.957 -46.180  1.00  0.00     0.118 C 
HETATM   17  C12 UNL     1      17.215 -53.809 -45.144  1.00  0.00     0.034 C 
HETATM   18  C13 UNL     1      17.154 -53.187 -43.774  1.00  0.00     0.041 C 
BRANCH  13  19
HETATM   19  O1  UNL     1      15.486 -51.810 -44.652  1.00  0.00    -0.389 OA
ATOM     20  H1  UNL     1      15.605 -52.548 -45.238  1.00  0.00     0.210 HD
ENDBRANCH  13  19
BRANCH  16  21
HETATM   21  O2  UNL     1      17.327 -53.381 -47.424  1.00  0.00    -0.396 OA
ATOM     22  H2  UNL     1      16.880 -54.206 -47.273  1.00  0.00     0.210 HD
ENDBRANCH  16  21
ENDBRANCH  12  13
TORSDOF 3
ENDMDL
MODEL 4
REMARK VINA RESULT: -6.395267363      1.609      2.323
REMARK  3 active torsions:
REMARK  status: ('A' for Active; 'I' for Inactive)
REMARK    1  A    between atoms: C7_12  and  C8_13 
REMARK    2  A    between atoms: C8_13  and  O1_14 
REMARK    3  A    between atoms: C11_18  and  O2_19 
ROOT
HETATM    1  N1  UNL     1      17.658 -52.771 -38.373  1.00  0.00    -0.196 NA
HETATM    2  C1  UNL     1      17.035 -53.084 -39.309  1.00  0.00     0.071 C 
HETATM    3  C2  UNL     1      16.250 -53.464 -40.520  1.00  0.00     0.160 C 
HETATM    4  C3  UNL     1      15.486 -54.640 -40.085  1.00  0.00     0.059 C 
HETATM    5  N2  UNL     1      16.019 -55.788 -40.115  1.00  0.00    -0.396 N 
ATOM      6  H21 UNL     1      15.489 -56.606 -39.813  1.00  0.00     0.156 HD
ATOM      7  H22 UNL     1      16.980 -55.876 -40.445  1.00  0.00     0.156 HD
HETATM    8  S1  UNL     1      13.803 -54.486 -39.508  1.00  0.00    -0.115 SA
HETATM    9  C4  UNL     1      13.132 -53.234 -40.592  1.00  0.00     0.086 C 
HETATM   10  C5  UNL     1      14.079 -52.113 -40.771  1.00  0.00     0.009 A 
HETATM   11  C6  UNL     1      14.936 -51.531 -39.714  1.00  0.00     0.021 A 
HETATM   12  C7  UNL     1      15.478 -52.282 -40.941  1.00  0.00     0.018 A 
ENDROOT
BRANCH  12  13
HETATM   13  C8  UNL     1      16.151 -51.453 -42.019  1.00  0.00     0.068 C 
HETATM   14  C9  UNL     1      17.147 -50.457 -41.512  1.00  0.00     0.041 C 
HETATM   15  C10 UNL     1      17.354 -49.459 -42.665  1.00  0.00     0.034 C 
HETATM   16  C11 UNL     1      17.753 -50.077 -43.942  1.00  0.00     0.118 C 
HETATM   17  C12 UNL     1      17.052 -51.344 -44.291  1.00  0.00     0.034 C 
HETATM   18  C13 UNL     1      16.749 -52.233 -43.114  1.00  0.00     0.041 C 
BRANCH  13  19
HETATM   19  O1  UNL     1      15.099 -50.674 -42.568  1.00  0.00    -0.389 OA
ATOM     20  H1  UNL     1      14.623 -51.283 -43.122  1.00  0.00     0.210 HD
ENDBRANCH  13  19
BRANCH  16  21
HETATM   21  O2  UNL     1      17.436 -49.156 -44.972  1.00  0.00    -0.396 OA
ATOM     22  H2  UNL     1      16.516 -48.937 -44.881  1.00  0.00     0.210 HD
ENDBRANCH  16  21
ENDBRANCH  12  13
TORSDOF 3
ENDMDL
MODEL 5
REMARK VINA RESULT: -6.243944691      3.155      3.996
REMARK  3 active torsions:
REMARK  status: ('A' for Active; 'I' for Inactive)
REMARK    1  A    between atoms: C7_12  and  C8_13 
REMARK    2  A    between atoms: C8_13  and  O1_14 
REMARK    3  A    between atoms: C11_18  and  O2_19 
ROOT
HETATM    1  N1  UNL     1      18.201 -53.550 -38.191  1.00  0.00    -0.196 NA
HETATM    2  C1  UNL     1      17.477 -54.363 -38.609  1.00  0.00     0.071 C 
HETATM    3  C2  UNL     1      16.556 -55.396 -39.169  1.00  0.00     0.160 C 
HETATM    4  C3  UNL     1      15.979 -56.031 -37.978  1.00  0.00     0.059 C 
HETATM    5  N2  UNL     1      16.605 -56.960 -37.388  1.00  0.00    -0.396 N 
ATOM      6  H21 UNL     1      16.205 -57.401 -36.560  1.00  0.00     0.156 HD
ATOM      7  H22 UNL     1      17.510 -57.254 -37.756  1.00  0.00     0.156 HD
HETATM    8  S1  UNL     1      14.394 -55.516 -37.334  1.00  0.00    -0.115 SA
HETATM    9  C4  UNL     1      13.455 -55.195 -38.820  1.00  0.00     0.086 C 
HETATM   10  C5  UNL     1      14.257 -54.449 -39.813  1.00  0.00     0.009 A 
HETATM   11  C6  UNL     1      15.205 -53.354 -39.508  1.00  0.00     0.021 A 
HETATM   12  C7  UNL     1      15.624 -54.716 -40.085  1.00  0.00     0.018 A 
ENDROOT
BRANCH  12  13
HETATM   13  C8  UNL     1      16.048 -54.752 -41.541  1.00  0.00     0.068 C 
HETATM   14  C9  UNL     1      16.730 -53.510 -42.025  1.00  0.00     0.041 C 
HETATM   15  C10 UNL     1      16.660 -53.574 -43.561  1.00  0.00     0.034 C 
HETATM   16  C11 UNL     1      17.219 -54.806 -44.146  1.00  0.00     0.118 C 
HETATM   17  C12 UNL     1      16.894 -56.066 -43.424  1.00  0.00     0.034 C 
HETATM   18  C13 UNL     1      16.841 -55.930 -41.925  1.00  0.00     0.041 C 
BRANCH  13  19
HETATM   19  O1  UNL     1      14.825 -54.803 -42.260  1.00  0.00    -0.389 OA
ATOM     20  H1  UNL     1      15.080 -54.668 -43.165  1.00  0.00     0.210 HD
ENDBRANCH  13  19
BRANCH  16  21
HETATM   21  O2  UNL     1      16.665 -54.943 -45.444  1.00  0.00    -0.396 OA
ATOM     22  H2  UNL     1      17.280 -55.448 -45.962  1.00  0.00     0.210 HD
ENDBRANCH  16  21
ENDBRANCH  12  13
TORSDOF 3
ENDMDL
