MODEL 1
REMARK VINA RESULT: -6.642291638      0.000      0.000
REMARK  2 active torsions:
REMARK  status: ('A' for Active; 'I' for Inactive)
REMARK    1  A    between atoms: C4_6  and  O1_7 
REMARK    2  A    between atoms: C14_18  and  O2_20 
ROOT
HETATM    1  C1  UNL     1      18.408 -53.821 -38.598  1.00  0.00     0.050 C 
HETATM    2  C2  UNL     1      17.009 -53.389 -39.025  1.00  0.00     0.194 C 
HETATM    3  N1  UNL     1      16.889 -52.520 -40.040  1.00  0.00    -0.426 NA
HETATM    4  C3  UNL     1      16.845 -51.674 -40.878  1.00  0.00     0.193 C 
HETATM    5  N2  UNL     1      17.449 -50.347 -40.870  1.00  0.00    -0.069 NA
HETATM    6  C4  UNL     1      16.091 -51.913 -42.176  1.00  0.00     0.126 C 
HETATM    7  C5  UNL     1      17.116 -52.133 -43.213  1.00  0.00     0.047 C 
HETATM    8  C6  UNL     1      16.836 -53.129 -44.271  1.00  0.00     0.004 C 
HETATM    9  C7  UNL     1      17.621 -54.424 -44.145  1.00  0.00     0.000 C 
HETATM   10  C8  UNL     1      16.738 -55.621 -43.985  1.00  0.00     0.000 C 
HETATM   11  C9  UNL     1      16.617 -56.099 -42.576  1.00  0.00     0.005 C 
HETATM   12  C10 UNL     1      16.373 -54.922 -41.604  1.00  0.00    -0.012 C 
HETATM   13  C11 UNL     1      15.082 -54.272 -41.885  1.00  0.00     0.008 C 
HETATM   14  C12 UNL     1      14.965 -52.836 -42.044  1.00  0.00     0.047 C 
HETATM   15  C13 UNL     1      16.418 -55.541 -40.239  1.00  0.00     0.045 C 
HETATM   16  C14 UNL     1      16.203 -54.680 -39.075  1.00  0.00     0.086 C 
HETATM   17  C15 UNL     1      16.697 -55.470 -37.843  1.00  0.00     0.049 C 
ENDROOT
BRANCH  16  18
HETATM   18  O2  UNL     1      14.855 -54.428 -38.751  1.00  0.00    -0.387 OA
ATOM     19  H2  UNL     1      14.433 -55.225 -38.452  1.00  0.00     0.210 HD
ENDBRANCH  16  18
BRANCH   6  20
HETATM   20  O1  UNL     1      15.456 -50.678 -42.529  1.00  0.00    -0.381 OA
ATOM     21  H1  UNL     1      14.620 -50.654 -42.078  1.00  0.00     0.211 HD
ENDBRANCH   6  20
TORSDOF 2
ENDMDL
MODEL 2
REMARK VINA RESULT: -6.541385541      2.789      5.745
REMARK  2 active torsions:
REMARK  status: ('A' for Active; 'I' for Inactive)
REMARK    1  A    between atoms: C4_6  and  O1_7 
REMARK    2  A    between atoms: C14_18  and  O2_20 
ROOT
HETATM    1  C1  UNL     1      15.650 -50.922 -42.859  1.00  0.00     0.050 C 
HETATM    2  C2  UNL     1      14.336 -51.413 -42.261  1.00  0.00     0.194 C 
HETATM    3  N1  UNL     1      14.319 -52.603 -41.641  1.00  0.00    -0.426 NA
HETATM    4  C3  UNL     1      14.340 -53.705 -41.191  1.00  0.00     0.193 C 
HETATM    5  N2  UNL     1      14.717 -54.953 -41.844  1.00  0.00    -0.069 NA
HETATM    6  C4  UNL     1      13.946 -53.954 -39.744  1.00  0.00     0.126 C 
HETATM    7  C5  UNL     1      15.201 -54.212 -39.013  1.00  0.00     0.047 C 
HETATM    8  C6  UNL     1      15.323 -53.697 -37.632  1.00  0.00     0.004 C 
HETATM    9  C7  UNL     1      16.246 -52.498 -37.483  1.00  0.00     0.000 C 
HETATM   10  C8  UNL     1      15.542 -51.290 -36.952  1.00  0.00     0.000 C 
HETATM   11  C9  UNL     1      15.177 -50.293 -38.002  1.00  0.00     0.005 C 
HETATM   12  C10 UNL     1      14.543 -50.981 -39.232  1.00  0.00    -0.012 C 
HETATM   13  C11 UNL     1      13.267 -51.621 -38.872  1.00  0.00     0.008 C 
HETATM   14  C12 UNL     1      12.973 -52.996 -39.223  1.00  0.00     0.047 C 
HETATM   15  C13 UNL     1      14.370 -49.880 -40.236  1.00  0.00     0.045 C 
HETATM   16  C14 UNL     1      13.768 -50.204 -41.529  1.00  0.00     0.086 C 
HETATM   17  C15 UNL     1      14.082 -49.022 -42.472  1.00  0.00     0.049 C 
ENDROOT
BRANCH  16  18
HETATM   18  O2  UNL     1      12.359 -50.238 -41.549  1.00  0.00    -0.387 OA
ATOM     19  H2  UNL     1      12.034 -50.825 -40.876  1.00  0.00     0.210 HD
ENDBRANCH  16  18
BRANCH   6  20
HETATM   20  O1  UNL     1      13.228 -55.195 -39.709  1.00  0.00    -0.381 OA
ATOM     21  H1  UNL     1      13.223 -55.491 -38.807  1.00  0.00     0.211 HD
ENDBRANCH   6  20
TORSDOF 2
ENDMDL
MODEL 3
REMARK VINA RESULT: -6.469713105      2.477      3.733
REMARK  2 active torsions:
REMARK  status: ('A' for Active; 'I' for Inactive)
REMARK    1  A    between atoms: C4_6  and  O1_7 
REMARK    2  A    between atoms: C14_18  and  O2_20 
ROOT
HETATM    1  C1  UNL     1      16.503 -53.691 -38.890  1.00  0.00     0.050 C 
HETATM    2  C2  UNL     1      15.204 -53.325 -39.598  1.00  0.00     0.194 C 
HETATM    3  N1  UNL     1      14.745 -52.069 -39.487  1.00  0.00    -0.426 NA
HETATM    4  C3  UNL     1      14.335 -50.972 -39.273  1.00  0.00     0.193 C 
HETATM    5  N2  UNL     1      14.025 -50.344 -37.995  1.00  0.00    -0.069 NA
HETATM    6  C4  UNL     1      14.074 -50.009 -40.421  1.00  0.00     0.126 C 
HETATM    7  C5  UNL     1      15.171 -49.024 -40.390  1.00  0.00     0.047 C 
HETATM    8  C6  UNL     1      15.696 -48.525 -41.679  1.00  0.00     0.004 C 
HETATM    9  C7  UNL     1      17.067 -49.065 -42.056  1.00  0.00     0.000 C 
HETATM   10  C8  UNL     1      17.053 -49.829 -43.341  1.00  0.00     0.000 C 
HETATM   11  C9  UNL     1      17.030 -51.311 -43.164  1.00  0.00     0.005 C 
HETATM   12  C10 UNL     1      15.994 -51.731 -42.096  1.00  0.00    -0.012 C 
HETATM   13  C11 UNL     1      14.629 -51.390 -42.530  1.00  0.00     0.008 C 
HETATM   14  C12 UNL     1      13.710 -50.669 -41.674  1.00  0.00     0.047 C 
HETATM   15  C13 UNL     1      16.193 -53.209 -41.936  1.00  0.00     0.045 C 
HETATM   16  C14 UNL     1      15.338 -53.929 -40.990  1.00  0.00     0.086 C 
HETATM   17  C15 UNL     1      16.013 -55.294 -40.736  1.00  0.00     0.049 C 
ENDROOT
BRANCH  16  18
HETATM   18  O2  UNL     1      14.074 -54.305 -41.485  1.00  0.00    -0.387 OA
ATOM     19  H2  UNL     1      14.065 -55.231 -41.697  1.00  0.00     0.210 HD
ENDBRANCH  16  18
BRANCH   6  20
HETATM   20  O1  UNL     1      12.892 -49.269 -40.090  1.00  0.00    -0.381 OA
ATOM     21  H1  UNL     1      13.089 -48.350 -40.229  1.00  0.00     0.211 HD
ENDBRANCH   6  20
TORSDOF 2
ENDMDL
MODEL 4
REMARK VINA RESULT: -6.450394811      2.409      5.233
REMARK  2 active torsions:
REMARK  status: ('A' for Active; 'I' for Inactive)
REMARK    1  A    between atoms: C4_6  and  O1_7 
REMARK    2  A    between atoms: C14_18  and  O2_20 
ROOT
HETATM    1  C1  UNL     1      18.746 -54.854 -44.729  1.00  0.00     0.050 C 
HETATM    2  C2  UNL     1      17.273 -54.472 -44.632  1.00  0.00     0.194 C 
HETATM    3  N1  UNL     1      16.727 -54.326 -43.414  1.00  0.00    -0.426 NA
HETATM    4  C3  UNL     1      16.273 -54.306 -42.314  1.00  0.00     0.193 C 
HETATM    5  N2  UNL     1      16.250 -55.368 -41.315  1.00  0.00    -0.069 NA
HETATM    6  C4  UNL     1      15.613 -53.047 -41.775  1.00  0.00     0.126 C 
HETATM    7  C5  UNL     1      16.565 -52.462 -40.812  1.00  0.00     0.047 C 
HETATM    8  C6  UNL     1      16.671 -50.989 -40.743  1.00  0.00     0.004 C 
HETATM    9  C7  UNL     1      17.942 -50.416 -41.351  1.00  0.00     0.000 C 
HETATM   10  C8  UNL     1      17.668 -49.482 -42.487  1.00  0.00     0.000 C 
HETATM   11  C9  UNL     1      17.853 -50.098 -43.834  1.00  0.00     0.005 C 
HETATM   12  C10 UNL     1      17.192 -51.493 -43.908  1.00  0.00    -0.012 C 
HETATM   13  C11 UNL     1      15.732 -51.388 -43.749  1.00  0.00     0.008 C 
HETATM   14  C12 UNL     1      15.002 -52.212 -42.807  1.00  0.00     0.047 C 
HETATM   15  C13 UNL     1      17.584 -52.029 -45.253  1.00  0.00     0.045 C 
HETATM   16  C14 UNL     1      17.096 -53.351 -45.647  1.00  0.00     0.086 C 
HETATM   17  C15 UNL     1      17.958 -53.801 -46.847  1.00  0.00     0.049 C 
ENDROOT
BRANCH  16  18
HETATM   18  O2  UNL     1      15.793 -53.378 -46.184  1.00  0.00    -0.387 OA
ATOM     19  H2  UNL     1      15.496 -52.496 -46.373  1.00  0.00     0.210 HD
ENDBRANCH  16  18
BRANCH   6  20
HETATM   20  O1  UNL     1      14.489 -53.464 -40.988  1.00  0.00    -0.381 OA
ATOM     21  H1  UNL     1      13.706 -53.210 -41.463  1.00  0.00     0.211 HD
ENDBRANCH   6  20
TORSDOF 2
ENDMDL
MODEL 5
REMARK VINA RESULT: -6.303978472      2.390      5.316
REMARK  2 active torsions:
REMARK  status: ('A' for Active; 'I' for Inactive)
REMARK    1  A    between atoms: C4_6  and  O1_7 
REMARK    2  A    between atoms: C14_18  and  O2_20 
ROOT
HETATM    1  C1  UNL     1      16.495 -49.912 -43.061  1.00  0.00     0.050 C 
HETATM    2  C2  UNL     1      15.322 -50.861 -42.848  1.00  0.00     0.194 C 
HETATM    3  N1  UNL     1      15.576 -52.118 -42.452  1.00  0.00    -0.426 NA
HETATM    4  C3  UNL     1      15.867 -53.244 -42.198  1.00  0.00     0.193 C 
HETATM    5  N2  UNL     1      16.707 -54.165 -42.953  1.00  0.00    -0.069 NA
HETATM    6  C4  UNL     1      15.349 -53.906 -40.931  1.00  0.00     0.126 C 
HETATM    7  C5  UNL     1      16.493 -53.969 -40.002  1.00  0.00     0.047 C 
HETATM    8  C6  UNL     1      16.234 -53.760 -38.561  1.00  0.00     0.004 C 
HETATM    9  C7  UNL     1      16.707 -52.420 -38.020  1.00  0.00     0.000 C 
HETATM   10  C8  UNL     1      15.590 -51.598 -37.459  1.00  0.00     0.000 C 
HETATM   11  C9  UNL     1      15.103 -50.530 -38.382  1.00  0.00     0.005 C 
HETATM   12  C10 UNL     1      14.912 -51.073 -39.816  1.00  0.00    -0.012 C 
HETATM   13  C11 UNL     1      13.856 -52.099 -39.850  1.00  0.00     0.008 C 
HETATM   14  C12 UNL     1      14.059 -53.388 -40.479  1.00  0.00     0.047 C 
HETATM   15  C13 UNL     1      14.565 -49.866 -40.636  1.00  0.00     0.045 C 
HETATM   16  C14 UNL     1      14.301 -50.046 -42.065  1.00  0.00     0.086 C 
HETATM   17  C15 UNL     1      14.378 -48.644 -42.708  1.00  0.00     0.049 C 
ENDROOT
BRANCH  16  18
HETATM   18  O2  UNL     1      12.993 -50.456 -42.390  1.00  0.00    -0.387 OA
ATOM     19  H2  UNL     1      12.843 -51.346 -42.095  1.00  0.00     0.210 HD
ENDBRANCH  16  18
BRANCH   6  20
HETATM   20  O1  UNL     1      15.053 -55.270 -41.258  1.00  0.00    -0.381 OA
ATOM     21  H1  UNL     1      15.297 -55.797 -40.506  1.00  0.00     0.211 HD
ENDBRANCH   6  20
TORSDOF 2
ENDMDL
