MODEL 1
REMARK VINA RESULT: -4.806676666      0.000      0.000
REMARK  2 active torsions:
REMARK  status: ('A' for Active; 'I' for Inactive)
REMARK    1  A    between atoms: N1_2  and  C4_5 
REMARK    2  A    between atoms: C6_7  and  C7_8 
ROOT
HETATM    1  C4  UNL     1     -14.538  35.530  96.940  1.00  0.00     0.201 A 
HETATM    2  C5  UNL     1     -14.636  34.127  97.408  1.00  0.00     0.048 A 
HETATM    3  C6  UNL     1     -14.621  34.484  95.926  1.00  0.00     0.083 A 
ENDROOT
BRANCH   3   4
HETATM    4  C7  UNL     1     -15.882  34.136  95.239  1.00  0.00     0.093 C 
HETATM    5  N2  UNL     1     -15.953  33.383  94.197  1.00  0.00    -0.391 N 
ATOM      6  H22 UNL     1     -15.057  33.029  93.864  1.00  0.00     0.157 HD
ATOM      7  H21 UNL     1     -16.824  33.143  93.723  1.00  0.00     0.157 HD
HETATM    8  N3  UNL     1     -17.144  34.636  95.709  1.00  0.00    -0.088 NA
ENDBRANCH   3   4
BRANCH   1   9
HETATM    9  N1  UNL     1     -13.322  36.250  97.228  1.00  0.00    -0.074 N 
HETATM   10  C1  UNL     1     -13.206  36.600  98.634  1.00  0.00     0.272 C 
HETATM   11  C2  UNL     1     -12.133  35.534  96.822  1.00  0.00     0.272 C 
HETATM   12  C3  UNL     1     -13.290  37.517  96.512  1.00  0.00     0.272 C 
ENDBRANCH   1   9
TORSDOF 2
ENDMDL
MODEL 2
REMARK VINA RESULT: -4.262537853      1.730      2.739
REMARK  2 active torsions:
REMARK  status: ('A' for Active; 'I' for Inactive)
REMARK    1  A    between atoms: N1_2  and  C4_5 
REMARK    2  A    between atoms: C6_7  and  C7_8 
ROOT
HETATM    1  C4  UNL     1     -14.160  37.348  97.168  1.00  0.00     0.201 A 
HETATM    2  C5  UNL     1     -13.383  36.623  98.202  1.00  0.00     0.048 A 
HETATM    3  C6  UNL     1     -13.766  35.973  96.877  1.00  0.00     0.083 A 
ENDROOT
BRANCH   3   4
HETATM    4  C7  UNL     1     -14.684  34.829  97.043  1.00  0.00     0.093 C 
HETATM    5  N2  UNL     1     -14.320  33.664  97.453  1.00  0.00    -0.391 N 
ATOM      6  H22 UNL     1     -13.326  33.576  97.664  1.00  0.00     0.157 HD
ATOM      7  H21 UNL     1     -14.954  32.873  97.568  1.00  0.00     0.157 HD
HETATM    8  N3  UNL     1     -16.085  34.951  96.745  1.00  0.00    -0.088 NA
ENDBRANCH   3   4
BRANCH   1   9
HETATM    9  N1  UNL     1     -13.540  38.492  96.544  1.00  0.00    -0.074 N 
HETATM   10  C1  UNL     1     -12.131  38.273  96.264  1.00  0.00     0.272 C 
HETATM   11  C2  UNL     1     -14.205  38.898  95.326  1.00  0.00     0.272 C 
HETATM   12  C3  UNL     1     -13.582  39.648  97.427  1.00  0.00     0.272 C 
ENDBRANCH   1   9
TORSDOF 2
ENDMDL
MODEL 3
REMARK VINA RESULT: -4.253428812      1.733      2.557
REMARK  2 active torsions:
REMARK  status: ('A' for Active; 'I' for Inactive)
REMARK    1  A    between atoms: N1_2  and  C4_5 
REMARK    2  A    between atoms: C6_7  and  C7_8 
ROOT
HETATM    1  C4  UNL     1     -14.145  37.369  97.209  1.00  0.00     0.201 A 
HETATM    2  C5  UNL     1     -13.370  36.619  98.225  1.00  0.00     0.048 A 
HETATM    3  C6  UNL     1     -13.762  35.998  96.889  1.00  0.00     0.083 A 
ENDROOT
BRANCH   3   4
HETATM    4  C7  UNL     1     -14.688  34.857  97.037  1.00  0.00     0.093 C 
HETATM    5  N2  UNL     1     -14.331  33.684  97.431  1.00  0.00    -0.391 N 
ATOM      6  H22 UNL     1     -13.339  33.588  97.643  1.00  0.00     0.157 HD
ATOM      7  H21 UNL     1     -14.970  32.895  97.533  1.00  0.00     0.157 HD
HETATM    8  N3  UNL     1     -16.086  34.992  96.737  1.00  0.00    -0.088 NA
ENDBRANCH   3   4
BRANCH   1   9
HETATM    9  N1  UNL     1     -13.519  38.521  96.604  1.00  0.00    -0.074 N 
HETATM   10  C1  UNL     1     -13.601  39.701  97.448  1.00  0.00     0.272 C 
HETATM   11  C2  UNL     1     -12.137  38.290  96.248  1.00  0.00     0.272 C 
HETATM   12  C3  UNL     1     -14.195  38.885  95.367  1.00  0.00     0.272 C 
ENDBRANCH   1   9
TORSDOF 2
ENDMDL
MODEL 4
REMARK VINA RESULT: -4.134198895      7.338      8.385
REMARK  2 active torsions:
REMARK  status: ('A' for Active; 'I' for Inactive)
REMARK    1  A    between atoms: N1_2  and  C4_5 
REMARK    2  A    between atoms: C6_7  and  C7_8 
ROOT
HETATM    1  C4  UNL     1     -18.820  40.745  92.724  1.00  0.00     0.201 A 
HETATM    2  C5  UNL     1     -18.345  39.833  91.656  1.00  0.00     0.048 A 
HETATM    3  C6  UNL     1     -17.420  40.333  92.760  1.00  0.00     0.083 A 
ENDROOT
BRANCH   3   4
HETATM    4  C7  UNL     1     -16.325  41.183  92.251  1.00  0.00     0.093 C 
HETATM    5  N2  UNL     1     -15.242  40.727  91.725  1.00  0.00    -0.391 N 
ATOM      6  H22 UNL     1     -15.184  39.711  91.679  1.00  0.00     0.157 HD
ATOM      7  H21 UNL     1     -14.485  41.314  91.373  1.00  0.00     0.157 HD
HETATM    8  N3  UNL     1     -16.407  42.616  92.315  1.00  0.00    -0.088 NA
ENDBRANCH   3   4
BRANCH   1   9
HETATM    9  N1  UNL     1     -19.811  40.241  93.643  1.00  0.00    -0.074 N 
HETATM   10  C1  UNL     1     -19.355  40.280  95.023  1.00  0.00     0.272 C 
HETATM   11  C2  UNL     1     -21.075  40.935  93.545  1.00  0.00     0.272 C 
HETATM   12  C3  UNL     1     -20.101  38.840  93.374  1.00  0.00     0.272 C 
ENDBRANCH   1   9
TORSDOF 2
ENDMDL
MODEL 5
REMARK VINA RESULT: -4.028666212      1.601      2.372
REMARK  2 active torsions:
REMARK  status: ('A' for Active; 'I' for Inactive)
REMARK    1  A    between atoms: N1_2  and  C4_5 
REMARK    2  A    between atoms: C6_7  and  C7_8 
ROOT
HETATM    1  C4  UNL     1     -13.475  37.164  96.707  1.00  0.00     0.201 A 
HETATM    2  C5  UNL     1     -14.770  37.466  96.052  1.00  0.00     0.048 A 
HETATM    3  C6  UNL     1     -14.646  36.412  97.146  1.00  0.00     0.083 A 
ENDROOT
BRANCH   3   4
HETATM    4  C7  UNL     1     -14.945  35.048  96.665  1.00  0.00     0.093 C 
HETATM    5  N2  UNL     1     -14.054  34.136  96.481  1.00  0.00    -0.391 N 
ATOM      6  H22 UNL     1     -13.099  34.421  96.696  1.00  0.00     0.157 HD
ATOM      7  H21 UNL     1     -14.260  33.194  96.149  1.00  0.00     0.157 HD
HETATM    8  N3  UNL     1     -16.290  34.646  96.362  1.00  0.00    -0.088 NA
ENDBRANCH   3   4
BRANCH   1   9
HETATM    9  N1  UNL     1     -12.867  38.204  97.501  1.00  0.00    -0.074 N 
HETATM   10  C1  UNL     1     -12.860  37.884  98.919  1.00  0.00     0.272 C 
HETATM   11  C2  UNL     1     -11.519  38.518  97.082  1.00  0.00     0.272 C 
HETATM   12  C3  UNL     1     -13.619  39.445  97.391  1.00  0.00     0.272 C 
ENDBRANCH   1   9
TORSDOF 2
ENDMDL
