MODEL 1
REMARK VINA RESULT: -4.591088322      0.000      0.000
REMARK  1 active torsions:
REMARK  status: ('A' for Active; 'I' for Inactive)
REMARK       I    between atoms: C2_2  and  N1_4 
REMARK       I    between atoms: N1_4  and  C3_6 
REMARK       I    between atoms: C3_6  and  N2_8 
REMARK    1  A    between atoms: N2_8  and  C4_10 
ROOT
HETATM    1  C1  UNL     1     -16.174  33.328  95.160  1.00  0.00     0.117 C 
HETATM    2  C2  UNL     1     -15.562  34.407  96.035  1.00  0.00     0.221 C 
HETATM    3  O1  UNL     1     -16.331  35.327  96.336  1.00  0.00    -0.274 OA
HETATM    4  N1  UNL     1     -14.228  34.271  96.409  1.00  0.00    -0.280 N 
ATOM      5  H1  UNL     1     -13.740  33.444  96.066  1.00  0.00     0.173 HD
HETATM    6  C3  UNL     1     -13.478  35.157  97.211  1.00  0.00     0.323 C 
HETATM    7  O2  UNL     1     -12.247  34.803  97.416  1.00  0.00    -0.247 OA
HETATM    8  N2  UNL     1     -13.952  36.353  97.785  1.00  0.00    -0.338 N 
ATOM      9  H2  UNL     1     -14.917  36.644  97.632  1.00  0.00     0.164 HD
ENDROOT
BRANCH   8  10
HETATM   10  C4  UNL     1     -13.071  37.168  98.590  1.00  0.00     0.086 A 
HETATM   11  C5  UNL     1     -12.519  38.436  98.057  1.00  0.00     0.027 A 
HETATM   12  C6  UNL     1     -13.717  38.512  98.986  1.00  0.00     0.027 A 
ENDBRANCH   8  10
TORSDOF 1
ENDMDL
MODEL 2
REMARK VINA RESULT: -4.387672329      1.682      2.006
REMARK  1 active torsions:
REMARK  status: ('A' for Active; 'I' for Inactive)
REMARK       I    between atoms: C2_2  and  N1_4 
REMARK       I    between atoms: N1_4  and  C3_6 
REMARK       I    between atoms: C3_6  and  N2_8 
REMARK    1  A    between atoms: N2_8  and  C4_10 
ROOT
HETATM    1  C1  UNL     1     -16.392  33.779  95.372  1.00  0.00     0.117 C 
HETATM    2  C2  UNL     1     -15.559  34.680  96.266  1.00  0.00     0.221 C 
HETATM    3  O1  UNL     1     -15.085  34.123  97.263  1.00  0.00    -0.274 OA
HETATM    4  N1  UNL     1     -15.408  36.013  95.896  1.00  0.00    -0.280 N 
ATOM      5  H1  UNL     1     -15.873  36.303  95.036  1.00  0.00     0.173 HD
HETATM    6  C3  UNL     1     -14.680  37.006  96.585  1.00  0.00     0.323 C 
HETATM    7  O2  UNL     1     -14.692  38.179  96.031  1.00  0.00    -0.247 OA
HETATM    8  N2  UNL     1     -13.967  36.823  97.786  1.00  0.00    -0.338 N 
ATOM      9  H2  UNL     1     -13.949  35.907  98.233  1.00  0.00     0.164 HD
ENDROOT
BRANCH   8  10
HETATM   10  C4  UNL     1     -13.261  37.933  98.385  1.00  0.00     0.086 A 
HETATM   11  C5  UNL     1     -13.930  38.805  99.378  1.00  0.00     0.027 A 
HETATM   12  C6  UNL     1     -13.004  37.718  99.891  1.00  0.00     0.027 A 
ENDBRANCH   8  10
TORSDOF 1
ENDMDL
MODEL 3
REMARK VINA RESULT: -4.386665722      3.919      4.527
REMARK  1 active torsions:
REMARK  status: ('A' for Active; 'I' for Inactive)
REMARK       I    between atoms: C2_2  and  N1_4 
REMARK       I    between atoms: N1_4  and  C3_6 
REMARK       I    between atoms: C3_6  and  N2_8 
REMARK    1  A    between atoms: N2_8  and  C4_10 
ROOT
HETATM    1  C1  UNL     1     -15.091  34.085  96.868  1.00  0.00     0.117 C 
HETATM    2  C2  UNL     1     -15.748  35.250  96.151  1.00  0.00     0.221 C 
HETATM    3  O1  UNL     1     -16.875  35.012  95.702  1.00  0.00    -0.274 OA
HETATM    4  N1  UNL     1     -15.044  36.448  96.062  1.00  0.00    -0.280 N 
ATOM      5  H1  UNL     1     -14.120  36.466  96.492  1.00  0.00     0.173 HD
HETATM    6  C3  UNL     1     -15.475  37.640  95.442  1.00  0.00     0.323 C 
HETATM    7  O2  UNL     1     -14.629  38.623  95.496  1.00  0.00    -0.247 OA
HETATM    8  N2  UNL     1     -16.709  37.832  94.792  1.00  0.00    -0.338 N 
ATOM      9  H2  UNL     1     -17.383  37.069  94.742  1.00  0.00     0.164 HD
ENDROOT
BRANCH   8  10
HETATM   10  C4  UNL     1     -17.022  39.113  94.197  1.00  0.00     0.086 A 
HETATM   11  C5  UNL     1     -18.057  39.222  93.142  1.00  0.00     0.027 A 
HETATM   12  C6  UNL     1     -18.441  39.596  94.562  1.00  0.00     0.027 A 
ENDBRANCH   8  10
TORSDOF 1
ENDMDL
MODEL 4
REMARK VINA RESULT: -4.363687035      1.966      4.923
REMARK  1 active torsions:
REMARK  status: ('A' for Active; 'I' for Inactive)
REMARK       I    between atoms: C2_2  and  N1_4 
REMARK       I    between atoms: N1_4  and  C3_6 
REMARK       I    between atoms: C3_6  and  N2_8 
REMARK    1  A    between atoms: N2_8  and  C4_10 
ROOT
HETATM    1  C1  UNL     1     -11.687  39.913  97.186  1.00  0.00     0.117 C 
HETATM    2  C2  UNL     1     -12.485  38.622  97.201  1.00  0.00     0.221 C 
HETATM    3  O1  UNL     1     -12.005  37.725  97.904  1.00  0.00    -0.274 OA
HETATM    4  N1  UNL     1     -13.652  38.562  96.445  1.00  0.00    -0.280 N 
ATOM      5  H1  UNL     1     -13.899  39.402  95.921  1.00  0.00     0.173 HD
HETATM    6  C3  UNL     1     -14.530  37.464  96.325  1.00  0.00     0.323 C 
HETATM    7  O2  UNL     1     -15.555  37.662  95.554  1.00  0.00    -0.247 OA
HETATM    8  N2  UNL     1     -14.379  36.215  96.958  1.00  0.00    -0.338 N 
ATOM      9  H2  UNL     1     -13.578  36.045  97.565  1.00  0.00     0.164 HD
ENDROOT
BRANCH   8  10
HETATM   10  C4  UNL     1     -15.359  35.173  96.745  1.00  0.00     0.086 A 
HETATM   11  C5  UNL     1     -15.090  34.066  95.798  1.00  0.00     0.027 A 
HETATM   12  C6  UNL     1     -14.883  33.806  97.279  1.00  0.00     0.027 A 
ENDBRANCH   8  10
TORSDOF 1
ENDMDL
MODEL 5
REMARK VINA RESULT: -4.250440040      1.829      2.232
REMARK  1 active torsions:
REMARK  status: ('A' for Active; 'I' for Inactive)
REMARK       I    between atoms: C2_2  and  N1_4 
REMARK       I    between atoms: N1_4  and  C3_6 
REMARK       I    between atoms: C3_6  and  N2_8 
REMARK    1  A    between atoms: N2_8  and  C4_10 
ROOT
HETATM    1  C1  UNL     1     -15.144  34.056  96.568  1.00  0.00     0.117 C 
HETATM    2  C2  UNL     1     -14.825  35.529  96.748  1.00  0.00     0.221 C 
HETATM    3  O1  UNL     1     -15.544  36.297  96.099  1.00  0.00    -0.274 OA
HETATM    4  N1  UNL     1     -13.783  35.876  97.603  1.00  0.00    -0.280 N 
ATOM      5  H1  UNL     1     -13.293  35.107  98.059  1.00  0.00     0.173 HD
HETATM    6  C3  UNL     1     -13.332  37.178  97.905  1.00  0.00     0.323 C 
HETATM    7  O2  UNL     1     -12.337  37.235  98.737  1.00  0.00    -0.247 OA
HETATM    8  N2  UNL     1     -13.863  38.376  97.388  1.00  0.00    -0.338 N 
ATOM      9  H2  UNL     1     -14.643  38.346  96.733  1.00  0.00     0.164 HD
ENDROOT
BRANCH   8  10
HETATM   10  C4  UNL     1     -13.300  39.648  97.785  1.00  0.00     0.086 A 
HETATM   11  C5  UNL     1     -12.456  40.425  96.848  1.00  0.00     0.027 A 
HETATM   12  C6  UNL     1     -13.912  40.827  97.000  1.00  0.00     0.027 A 
ENDBRANCH   8  10
TORSDOF 1
ENDMDL
