MODEL 1
REMARK VINA RESULT: -4.602946681      0.000      0.000
REMARK  1 active torsions:
REMARK  status: ('A' for Active; 'I' for Inactive)
REMARK    1  A    between atoms: C6_6  and  N1_7 
ROOT
HETATM    1  C1  UNL     1     -13.563  39.865  96.579  1.00  0.00     0.011 C 
HETATM    2  C2  UNL     1     -14.031  38.438  96.679  1.00  0.00    -0.006 C 
HETATM    3  C3  UNL     1     -14.054  37.840  98.051  1.00  0.00     0.013 C 
HETATM    4  C4  UNL     1     -12.557  37.892  98.002  1.00  0.00     0.014 C 
HETATM    5  C5  UNL     1     -12.952  37.392  96.631  1.00  0.00     0.013 C 
HETATM    6  C6  UNL     1     -13.915  36.507  97.355  1.00  0.00     0.092 C 
ENDROOT
BRANCH   6   7
HETATM    7  N1  UNL     1     -15.109  36.148  96.656  1.00  0.00    -0.361 N 
HETATM    8  C7  UNL     1     -15.575  34.972  96.510  1.00  0.00     0.197 C 
HETATM    9  N2  UNL     1     -14.929  33.807  97.056  1.00  0.00    -0.067 NA
HETATM   10  N3  UNL     1     -16.771  34.796  95.785  1.00  0.00    -0.067 NA
ATOM     11  H1  UNL     1     -15.640  36.909  96.232  1.00  0.00     0.162 HD
ENDBRANCH   6   7
TORSDOF 1
ENDMDL
MODEL 2
REMARK VINA RESULT: -4.583982700      1.690      2.379
REMARK  1 active torsions:
REMARK  status: ('A' for Active; 'I' for Inactive)
REMARK    1  A    between atoms: C6_6  and  N1_7 
ROOT
HETATM    1  C1  UNL     1     -11.281  36.541  96.485  1.00  0.00     0.011 C 
HETATM    2  C2  UNL     1     -12.574  35.772  96.438  1.00  0.00    -0.006 C 
HETATM    3  C3  UNL     1     -13.810  36.525  96.821  1.00  0.00     0.013 C 
HETATM    4  C4  UNL     1     -13.264  36.535  98.217  1.00  0.00     0.014 C 
HETATM    5  C5  UNL     1     -12.999  35.128  97.728  1.00  0.00     0.013 C 
HETATM    6  C6  UNL     1     -14.389  35.178  97.181  1.00  0.00     0.092 C 
ENDROOT
BRANCH   6   7
HETATM    7  N1  UNL     1     -14.651  34.387  96.020  1.00  0.00    -0.361 N 
HETATM    8  C7  UNL     1     -15.777  34.236  95.445  1.00  0.00     0.197 C 
HETATM    9  N2  UNL     1     -16.980  34.873  95.914  1.00  0.00    -0.067 NA
HETATM   10  N3  UNL     1     -15.858  33.413  94.303  1.00  0.00    -0.067 NA
ATOM     11  H1  UNL     1     -13.856  33.894  95.610  1.00  0.00     0.162 HD
ENDBRANCH   6   7
TORSDOF 1
ENDMDL
MODEL 3
REMARK VINA RESULT: -4.511124420      1.396      1.638
REMARK  1 active torsions:
REMARK  status: ('A' for Active; 'I' for Inactive)
REMARK    1  A    between atoms: C6_6  and  N1_7 
ROOT
HETATM    1  C1  UNL     1     -13.578  38.242  98.747  1.00  0.00     0.011 C 
HETATM    2  C2  UNL     1     -14.161  37.207  97.822  1.00  0.00    -0.006 C 
HETATM    3  C3  UNL     1     -13.651  35.809  97.981  1.00  0.00     0.013 C 
HETATM    4  C4  UNL     1     -12.350  36.316  97.437  1.00  0.00     0.014 C 
HETATM    5  C5  UNL     1     -13.395  36.960  96.552  1.00  0.00     0.013 C 
HETATM    6  C6  UNL     1     -14.047  35.615  96.537  1.00  0.00     0.092 C 
ENDROOT
BRANCH   6   7
HETATM    7  N1  UNL     1     -15.466  35.591  96.376  1.00  0.00    -0.361 N 
HETATM    8  C7  UNL     1     -16.130  34.805  95.624  1.00  0.00     0.197 C 
HETATM    9  N2  UNL     1     -15.503  33.799  94.808  1.00  0.00    -0.067 NA
HETATM   10  N3  UNL     1     -17.534  34.920  95.584  1.00  0.00    -0.067 NA
ATOM     11  H1  UNL     1     -16.002  36.270  96.917  1.00  0.00     0.162 HD
ENDBRANCH   6   7
TORSDOF 1
ENDMDL
MODEL 4
REMARK VINA RESULT: -4.311437293      2.092      4.268
REMARK  1 active torsions:
REMARK  status: ('A' for Active; 'I' for Inactive)
REMARK    1  A    between atoms: C6_6  and  N1_7 
ROOT
HETATM    1  C1  UNL     1     -16.330  34.248  95.285  1.00  0.00     0.011 C 
HETATM    2  C2  UNL     1     -15.227  35.051  95.922  1.00  0.00    -0.006 C 
HETATM    3  C3  UNL     1     -14.015  34.289  96.357  1.00  0.00     0.013 C 
HETATM    4  C4  UNL     1     -14.886  33.677  97.412  1.00  0.00     0.014 C 
HETATM    5  C5  UNL     1     -15.268  35.141  97.422  1.00  0.00     0.013 C 
HETATM    6  C6  UNL     1     -13.799  35.408  97.347  1.00  0.00     0.092 C 
ENDROOT
BRANCH   6   7
HETATM    7  N1  UNL     1     -13.398  36.617  96.700  1.00  0.00    -0.361 N 
HETATM    8  C7  UNL     1     -12.713  37.560  97.214  1.00  0.00     0.197 C 
HETATM    9  N2  UNL     1     -12.236  37.521  98.572  1.00  0.00    -0.067 NA
HETATM   10  N3  UNL     1     -12.406  38.689  96.430  1.00  0.00    -0.067 NA
ATOM     11  H1  UNL     1     -13.689  36.738  95.729  1.00  0.00     0.162 HD
ENDBRANCH   6   7
TORSDOF 1
ENDMDL
MODEL 5
REMARK VINA RESULT: -4.302015337      6.700      7.514
REMARK  1 active torsions:
REMARK  status: ('A' for Active; 'I' for Inactive)
REMARK    1  A    between atoms: C6_6  and  N1_7 
ROOT
HETATM    1  C1  UNL     1     -20.922  41.892  97.874  1.00  0.00     0.011 C 
HETATM    2  C2  UNL     1     -20.462  40.959  96.786  1.00  0.00    -0.006 C 
HETATM    3  C3  UNL     1     -20.705  41.406  95.379  1.00  0.00     0.013 C 
HETATM    4  C4  UNL     1     -22.163  41.199  95.658  1.00  0.00     0.014 C 
HETATM    5  C5  UNL     1     -21.495  39.991  96.276  1.00  0.00     0.013 C 
HETATM    6  C6  UNL     1     -20.683  39.940  95.022  1.00  0.00     0.092 C 
ENDROOT
BRANCH   6   7
HETATM    7  N1  UNL     1     -19.369  39.388  95.129  1.00  0.00    -0.361 N 
HETATM    8  C7  UNL     1     -18.621  39.021  94.166  1.00  0.00     0.197 C 
HETATM    9  N2  UNL     1     -19.025  39.123  92.788  1.00  0.00    -0.067 NA
HETATM   10  N3  UNL     1     -17.346  38.494  94.452  1.00  0.00    -0.067 NA
ATOM     11  H1  UNL     1     -18.993  39.277  96.071  1.00  0.00     0.162 HD
ENDBRANCH   6   7
TORSDOF 1
ENDMDL
