MODEL 1
REMARK VINA RESULT: -4.697144190      0.000      0.000
REMARK  2 active torsions:
REMARK  status: ('A' for Active; 'I' for Inactive)
REMARK    1  A    between atoms: C2_2  and  C4_10 
REMARK    2  A    between atoms: N1_3  and  N2_5 
ROOT
HETATM    1  C1  UNL     1     -14.242  37.894  96.464  1.00  0.00     0.065 C 
HETATM    2  C2  UNL     1     -13.427  36.706  96.827  1.00  0.00     0.004 C 
HETATM    3  N1  UNL     1     -14.011  35.563  96.871  1.00  0.00    -0.307 N 
ATOM      4  H1  UNL     1     -13.477  34.729  97.117  1.00  0.00     0.186 HD
ENDROOT
BRANCH   3   5
HETATM    5  N2  UNL     1     -15.348  35.460  96.588  1.00  0.00    -0.276 N 
HETATM    6  C3  UNL     1     -15.905  34.666  95.768  1.00  0.00     0.215 C 
HETATM    7  N3  UNL     1     -15.224  33.707  94.967  1.00  0.00    -0.065 NA
HETATM    8  N4  UNL     1     -17.322  34.731  95.630  1.00  0.00    -0.065 NA
ATOM      9  H2  UNL     1     -15.966  36.094  97.094  1.00  0.00     0.189 HD
ENDBRANCH   3   5
BRANCH   2  10
HETATM   10  C4  UNL     1     -11.969  36.854  97.130  1.00  0.00     0.032 A 
HETATM   11  C5  UNL     1     -11.009  36.419  96.090  1.00  0.00     0.011 A 
HETATM   12  C6  UNL     1     -11.187  37.899  96.405  1.00  0.00     0.011 A 
ENDBRANCH   2  10
TORSDOF 2
ENDMDL
MODEL 2
REMARK VINA RESULT: -4.552610027      2.923      4.111
REMARK  2 active torsions:
REMARK  status: ('A' for Active; 'I' for Inactive)
REMARK    1  A    between atoms: C2_2  and  C4_10 
REMARK    2  A    between atoms: N1_3  and  N2_5 
ROOT
HETATM    1  C1  UNL     1     -14.452  37.288  96.748  1.00  0.00     0.065 C 
HETATM    2  C2  UNL     1     -15.381  36.311  96.126  1.00  0.00     0.004 C 
HETATM    3  N1  UNL     1     -16.083  36.698  95.123  1.00  0.00    -0.307 N 
ATOM      4  H1  UNL     1     -16.730  36.050  94.675  1.00  0.00     0.186 HD
ENDROOT
BRANCH   3   5
HETATM    5  N2  UNL     1     -15.966  37.980  94.653  1.00  0.00    -0.276 N 
HETATM    6  C3  UNL     1     -16.904  38.789  94.373  1.00  0.00     0.215 C 
HETATM    7  N3  UNL     1     -18.293  38.506  94.499  1.00  0.00    -0.065 NA
HETATM    8  N4  UNL     1     -16.551  40.084  93.895  1.00  0.00    -0.065 NA
ATOM      9  H2  UNL     1     -15.016  38.324  94.512  1.00  0.00     0.189 HD
ENDBRANCH   3   5
BRANCH   2  10
HETATM   10  C4  UNL     1     -15.485  34.918  96.664  1.00  0.00     0.032 A 
HETATM   11  C5  UNL     1     -14.727  33.858  95.962  1.00  0.00     0.011 A 
HETATM   12  C6  UNL     1     -14.298  34.323  97.348  1.00  0.00     0.011 A 
ENDBRANCH   2  10
TORSDOF 2
ENDMDL
MODEL 3
REMARK VINA RESULT: -4.548921566      2.878      4.820
REMARK  2 active torsions:
REMARK  status: ('A' for Active; 'I' for Inactive)
REMARK    1  A    between atoms: C2_2  and  C4_10 
REMARK    2  A    between atoms: N1_3  and  N2_5 
ROOT
HETATM    1  C1  UNL     1     -14.623  37.195  96.535  1.00  0.00     0.065 C 
HETATM    2  C2  UNL     1     -13.634  36.300  97.189  1.00  0.00     0.004 C 
HETATM    3  N1  UNL     1     -12.525  36.813  97.586  1.00  0.00    -0.307 N 
ATOM      4  H1  UNL     1     -11.826  36.224  98.038  1.00  0.00     0.186 HD
ENDROOT
BRANCH   3   5
HETATM    5  N2  UNL     1     -12.278  38.148  97.402  1.00  0.00    -0.276 N 
HETATM    6  C3  UNL     1     -11.218  38.683  96.951  1.00  0.00     0.215 C 
HETATM    7  N3  UNL     1     -10.055  37.973  96.539  1.00  0.00    -0.065 NA
HETATM    8  N4  UNL     1     -11.178  40.103  96.842  1.00  0.00    -0.065 NA
ATOM      9  H2  UNL     1     -13.032  38.786  97.657  1.00  0.00     0.189 HD
ENDBRANCH   3   5
BRANCH   2  10
HETATM   10  C4  UNL     1     -13.936  34.846  97.373  1.00  0.00     0.032 A 
HETATM   11  C5  UNL     1     -15.282  34.374  96.977  1.00  0.00     0.011 A 
HETATM   12  C6  UNL     1     -14.056  33.979  96.164  1.00  0.00     0.011 A 
ENDBRANCH   2  10
TORSDOF 2
ENDMDL
MODEL 4
REMARK VINA RESULT: -4.437946260      2.528      3.593
REMARK  2 active torsions:
REMARK  status: ('A' for Active; 'I' for Inactive)
REMARK    1  A    between atoms: C2_2  and  C4_10 
REMARK    2  A    between atoms: N1_3  and  N2_5 
ROOT
HETATM    1  C1  UNL     1     -16.305  34.549  95.480  1.00  0.00     0.065 C 
HETATM    2  C2  UNL     1     -15.262  35.280  96.244  1.00  0.00     0.004 C 
HETATM    3  N1  UNL     1     -15.185  36.554  96.095  1.00  0.00    -0.307 N 
ATOM      4  H1  UNL     1     -14.480  37.083  96.607  1.00  0.00     0.186 HD
ENDROOT
BRANCH   3   5
HETATM    5  N2  UNL     1     -16.047  37.202  95.251  1.00  0.00    -0.276 N 
HETATM    6  C3  UNL     1     -15.941  38.384  94.796  1.00  0.00     0.215 C 
HETATM    7  N3  UNL     1     -14.875  39.280  95.089  1.00  0.00    -0.065 NA
HETATM    8  N4  UNL     1     -16.962  38.861  93.925  1.00  0.00    -0.065 NA
ATOM      9  H2  UNL     1     -16.869  36.676  94.953  1.00  0.00     0.189 HD
ENDBRANCH   3   5
BRANCH   2  10
HETATM   10  C4  UNL     1     -14.336  34.540  97.159  1.00  0.00     0.032 A 
HETATM   11  C5  UNL     1     -12.903  34.502  96.791  1.00  0.00     0.011 A 
HETATM   12  C6  UNL     1     -13.371  35.321  97.988  1.00  0.00     0.011 A 
ENDBRANCH   2  10
TORSDOF 2
ENDMDL
MODEL 5
REMARK VINA RESULT: -4.426024802      1.454      2.304
REMARK  2 active torsions:
REMARK  status: ('A' for Active; 'I' for Inactive)
REMARK    1  A    between atoms: C2_2  and  C4_10 
REMARK    2  A    between atoms: N1_3  and  N2_5 
ROOT
HETATM    1  C1  UNL     1     -12.760  35.995  97.080  1.00  0.00     0.065 C 
HETATM    2  C2  UNL     1     -14.024  36.706  97.397  1.00  0.00     0.004 C 
HETATM    3  N1  UNL     1     -15.105  36.300  96.835  1.00  0.00    -0.307 N 
ATOM      4  H1  UNL     1     -15.989  36.768  97.034  1.00  0.00     0.186 HD
ENDROOT
BRANCH   3   5
HETATM    5  N2  UNL     1     -15.074  35.238  95.969  1.00  0.00    -0.276 N 
HETATM    6  C3  UNL     1     -16.063  34.644  95.440  1.00  0.00     0.215 C 
HETATM    7  N3  UNL     1     -17.430  34.980  95.654  1.00  0.00    -0.065 NA
HETATM    8  N4  UNL     1     -15.799  33.554  94.561  1.00  0.00    -0.065 NA
ATOM      9  H2  UNL     1     -14.150  34.885  95.721  1.00  0.00     0.189 HD
ENDBRANCH   3   5
BRANCH   2  10
HETATM   10  C4  UNL     1     -14.023  37.863  98.348  1.00  0.00     0.032 A 
HETATM   11  C5  UNL     1     -13.107  37.789  99.509  1.00  0.00     0.011 A 
HETATM   12  C6  UNL     1     -12.837  38.769  98.374  1.00  0.00     0.011 A 
ENDBRANCH   2  10
TORSDOF 2
ENDMDL
