MODEL 1
REMARK VINA RESULT: -5.314962272      0.000      0.000
REMARK  5 active torsions:
REMARK  status: ('A' for Active; 'I' for Inactive)
REMARK    1  A    between atoms: N1_2  and  C2_4 
REMARK    2  A    between atoms: C2_4  and  N2_6 
REMARK    3  A    between atoms: N2_6  and  C4_8 
REMARK    4  A    between atoms: C4_8  and  N3_10 
REMARK    5  A    between atoms: N3_10  and  C5_12 
ROOT
HETATM    1  N2  UNL     1      -9.717  35.602 -10.500  1.00  0.00    -0.347 N 
ATOM      2  H2  UNL     1      -9.863  35.497  -9.497  1.00  0.00     0.164 HD
ENDROOT
BRANCH   1   3
HETATM    3  C2  UNL     1      -9.022  36.761 -11.028  1.00  0.00     0.174 C 
HETATM    4  C3  UNL     1      -8.638  37.712  -9.877  1.00  0.00     0.055 C 
BRANCH   3   5
HETATM    5  N1  UNL     1      -7.811  36.363 -11.673  1.00  0.00    -0.406 N 
HETATM    6  C1  UNL     1      -6.663  36.259 -10.811  1.00  0.00     0.141 C 
ATOM      7  H1  UNL     1      -7.764  36.166 -12.673  1.00  0.00     0.154 HD
ENDBRANCH   3   5
ENDBRANCH   1   3
BRANCH   1   8
HETATM    8  C4  UNL     1     -10.189  34.622 -11.402  1.00  0.00     0.169 C 
HETATM    9  S1  UNL     1     -11.572  34.879 -12.255  1.00  0.00    -0.041 SA
BRANCH   8  10
HETATM   10  N3  UNL     1      -9.466  33.414 -11.539  1.00  0.00    -0.363 N 
ATOM     11  H3  UNL     1      -9.322  32.998 -12.459  1.00  0.00     0.162 HD
BRANCH  10  12
HETATM   12  C5  UNL     1      -8.935  32.780 -10.357  1.00  0.00     0.084 A 
HETATM   13  C6  UNL     1      -8.215  31.483 -10.477  1.00  0.00     0.027 A 
HETATM   14  C7  UNL     1      -7.422  32.797 -10.245  1.00  0.00     0.027 A 
ENDBRANCH  10  12
ENDBRANCH   8  10
ENDBRANCH   1   8
TORSDOF 5
ENDMDL
MODEL 2
REMARK VINA RESULT: -5.310765005      1.286      4.047
REMARK  5 active torsions:
REMARK  status: ('A' for Active; 'I' for Inactive)
REMARK    1  A    between atoms: N1_2  and  C2_4 
REMARK    2  A    between atoms: C2_4  and  N2_6 
REMARK    3  A    between atoms: N2_6  and  C4_8 
REMARK    4  A    between atoms: C4_8  and  N3_10 
REMARK    5  A    between atoms: N3_10  and  C5_12 
ROOT
HETATM    1  N2  UNL     1      -9.836  33.484 -11.061  1.00  0.00    -0.347 N 
ATOM      2  H2  UNL     1     -10.574  32.884 -10.693  1.00  0.00     0.164 HD
ENDROOT
BRANCH   1   3
HETATM    3  C2  UNL     1      -8.568  32.919 -11.484  1.00  0.00     0.174 C 
HETATM    4  C3  UNL     1      -7.767  32.448 -10.253  1.00  0.00     0.055 C 
BRANCH   3   5
HETATM    5  N1  UNL     1      -8.785  31.776 -12.313  1.00  0.00    -0.406 N 
HETATM    6  C1  UNL     1     -10.025  31.776 -13.045  1.00  0.00     0.141 C 
ATOM      7  H1  UNL     1      -8.109  31.015 -12.382  1.00  0.00     0.154 HD
ENDBRANCH   3   5
ENDBRANCH   1   3
BRANCH   1   8
HETATM    8  C4  UNL     1     -10.029  34.879 -11.169  1.00  0.00     0.169 C 
HETATM    9  S1  UNL     1     -10.997  35.492 -12.349  1.00  0.00    -0.041 SA
BRANCH   8  10
HETATM   10  N3  UNL     1      -9.359  35.734 -10.263  1.00  0.00    -0.363 N 
ATOM     11  H3  UNL     1      -9.509  35.644  -9.258  1.00  0.00     0.162 HD
BRANCH  10  12
HETATM   12  C5  UNL     1      -8.461  36.737 -10.783  1.00  0.00     0.084 A 
HETATM   13  C6  UNL     1      -7.489  37.399  -9.870  1.00  0.00     0.027 A 
HETATM   14  C7  UNL     1      -7.006  36.312 -10.867  1.00  0.00     0.027 A 
ENDBRANCH  10  12
ENDBRANCH   8  10
ENDBRANCH   1   8
TORSDOF 5
ENDMDL
MODEL 3
REMARK VINA RESULT: -5.275481145      2.144      3.022
REMARK  5 active torsions:
REMARK  status: ('A' for Active; 'I' for Inactive)
REMARK    1  A    between atoms: N1_2  and  C2_4 
REMARK    2  A    between atoms: C2_4  and  N2_6 
REMARK    3  A    between atoms: N2_6  and  C4_8 
REMARK    4  A    between atoms: C4_8  and  N3_10 
REMARK    5  A    between atoms: N3_10  and  C5_12 
ROOT
HETATM    1  N2  UNL     1      -8.919  35.507 -11.592  1.00  0.00    -0.347 N 
ATOM      2  H2  UNL     1      -8.442  35.339 -12.477  1.00  0.00     0.164 HD
ENDROOT
BRANCH   1   3
HETATM    3  C2  UNL     1     -10.248  36.090 -11.568  1.00  0.00     0.174 C 
HETATM    4  C3  UNL     1     -10.555  36.751 -12.927  1.00  0.00     0.055 C 
BRANCH   3   5
HETATM    5  N1  UNL     1     -11.232  35.076 -11.357  1.00  0.00    -0.406 N 
HETATM    6  C1  UNL     1     -11.592  34.317 -12.527  1.00  0.00     0.141 C 
ATOM      7  H1  UNL     1     -11.649  34.901 -10.442  1.00  0.00     0.154 HD
ENDBRANCH   3   5
ENDBRANCH   1   3
BRANCH   1   8
HETATM    8  C4  UNL     1      -8.300  35.177 -10.366  1.00  0.00     0.169 C 
HETATM    9  S1  UNL     1      -8.059  36.333  -9.222  1.00  0.00    -0.041 SA
BRANCH   8  10
HETATM   10  N3  UNL     1      -7.872  33.845 -10.152  1.00  0.00    -0.363 N 
ATOM     11  H3  UNL     1      -6.952  33.653  -9.758  1.00  0.00     0.162 HD
BRANCH  10  12
HETATM   12  C5  UNL     1      -8.760  32.762 -10.503  1.00  0.00     0.084 A 
HETATM   13  C6  UNL     1      -8.553  32.026 -11.780  1.00  0.00     0.027 A 
HETATM   14  C7  UNL     1      -8.141  31.378 -10.431  1.00  0.00     0.027 A 
ENDBRANCH  10  12
ENDBRANCH   8  10
ENDBRANCH   1   8
TORSDOF 5
ENDMDL
MODEL 4
REMARK VINA RESULT: -5.254345364      0.958      1.157
REMARK  5 active torsions:
REMARK  status: ('A' for Active; 'I' for Inactive)
REMARK    1  A    between atoms: N1_2  and  C2_4 
REMARK    2  A    between atoms: C2_4  and  N2_6 
REMARK    3  A    between atoms: N2_6  and  C4_8 
REMARK    4  A    between atoms: C4_8  and  N3_10 
REMARK    5  A    between atoms: N3_10  and  C5_12 
ROOT
HETATM    1  N2  UNL     1      -9.115  35.090 -10.378  1.00  0.00    -0.347 N 
ATOM      2  H2  UNL     1      -8.823  34.742  -9.465  1.00  0.00     0.164 HD
ENDROOT
BRANCH   1   3
HETATM    3  C2  UNL     1      -8.449  36.228 -10.982  1.00  0.00     0.174 C 
HETATM    4  C3  UNL     1      -8.636  37.477 -10.097  1.00  0.00     0.055 C 
BRANCH   3   5
HETATM    5  N1  UNL     1      -7.045  35.986 -11.083  1.00  0.00    -0.406 N 
HETATM    6  C1  UNL     1      -6.485  35.175 -10.033  1.00  0.00     0.141 C 
ATOM      7  H1  UNL     1      -6.479  36.360 -11.845  1.00  0.00     0.154 HD
ENDBRANCH   3   5
ENDBRANCH   1   3
BRANCH   1   8
HETATM    8  C4  UNL     1     -10.177  34.473 -11.077  1.00  0.00     0.169 C 
HETATM    9  S1  UNL     1     -11.598  35.270 -11.294  1.00  0.00    -0.041 SA
BRANCH   8  10
HETATM   10  N3  UNL     1     -10.001  33.156 -11.563  1.00  0.00    -0.363 N 
ATOM     11  H3  UNL     1     -10.802  32.608 -11.876  1.00  0.00     0.162 HD
BRANCH  10  12
HETATM   12  C5  UNL     1      -8.670  32.600 -11.609  1.00  0.00     0.084 A 
HETATM   13  C6  UNL     1      -8.245  31.623 -10.569  1.00  0.00     0.027 A 
HETATM   14  C7  UNL     1      -8.601  31.136 -11.999  1.00  0.00     0.027 A 
ENDBRANCH  10  12
ENDBRANCH   8  10
ENDBRANCH   1   8
TORSDOF 5
ENDMDL
MODEL 5
REMARK VINA RESULT: -5.221157250      1.304      1.684
REMARK  5 active torsions:
REMARK  status: ('A' for Active; 'I' for Inactive)
REMARK    1  A    between atoms: N1_2  and  C2_4 
REMARK    2  A    between atoms: C2_4  and  N2_6 
REMARK    3  A    between atoms: N2_6  and  C4_8 
REMARK    4  A    between atoms: C4_8  and  N3_10 
REMARK    5  A    between atoms: N3_10  and  C5_12 
ROOT
HETATM    1  N2  UNL     1      -8.961  35.269 -11.260  1.00  0.00    -0.347 N 
ATOM      2  H2  UNL     1      -8.414  35.486 -12.093  1.00  0.00     0.164 HD
ENDROOT
BRANCH   1   3
HETATM    3  C2  UNL     1      -8.552  35.762  -9.958  1.00  0.00     0.174 C 
HETATM    4  C3  UNL     1      -7.161  35.202  -9.599  1.00  0.00     0.055 C 
BRANCH   3   5
HETATM    5  N1  UNL     1      -8.445  37.186  -9.978  1.00  0.00    -0.406 N 
HETATM    6  C1  UNL     1      -7.181  37.713  -9.532  1.00  0.00     0.141 C 
ATOM      7  H1  UNL     1      -9.209  37.787 -10.285  1.00  0.00     0.154 HD
ENDBRANCH   3   5
ENDBRANCH   1   3
BRANCH   1   8
HETATM    8  C4  UNL     1     -10.131  34.483 -11.352  1.00  0.00     0.169 C 
HETATM    9  S1  UNL     1     -11.612  35.178 -11.185  1.00  0.00    -0.041 SA
BRANCH   8  10
HETATM   10  N3  UNL     1     -10.004  33.089 -11.567  1.00  0.00    -0.363 N 
ATOM     11  H3  UNL     1     -10.832  32.501 -11.654  1.00  0.00     0.162 HD
BRANCH  10  12
HETATM   12  C5  UNL     1      -8.684  32.516 -11.661  1.00  0.00     0.084 A 
HETATM   13  C6  UNL     1      -8.190  31.624 -10.576  1.00  0.00     0.027 A 
HETATM   14  C7  UNL     1      -8.652  31.023 -11.931  1.00  0.00     0.027 A 
ENDBRANCH  10  12
ENDBRANCH   8  10
ENDBRANCH   1   8
TORSDOF 5
ENDMDL
