MODEL 1
REMARK VINA RESULT: -7.002625744      0.000      0.000
REMARK  2 active torsions:
REMARK  status: ('A' for Active; 'I' for Inactive)
REMARK       I    between atoms: C1_4  and  N3_6 
REMARK    1  A    between atoms: N3_6  and  C2_8 
REMARK    2  A    between atoms: C5_11  and  C6_12 
ROOT
HETATM    1  C2  UNL     1      -9.001  33.538 -11.319  1.00  0.00     0.084 C 
HETATM    2  C3  UNL     1      -7.955  32.664 -10.707  1.00  0.00     0.026 C 
HETATM    3  C4  UNL     1      -7.020  33.414  -9.797  1.00  0.00     0.013 C 
HETATM    4  C5  UNL     1      -6.782  34.825 -10.191  1.00  0.00     0.047 C 
HETATM    5  C7  UNL     1      -8.003  35.604 -10.534  1.00  0.00     0.013 C 
HETATM    6  C8  UNL     1      -9.222  34.706 -10.352  1.00  0.00     0.026 C 
ENDROOT
BRANCH   1   7
HETATM    7  N3  UNL     1     -10.217  32.861 -11.639  1.00  0.00    -0.360 N 
HETATM    8  C1  UNL     1     -10.960  33.135 -12.815  1.00  0.00     0.182 C 
HETATM    9  N1  UNL     1     -10.800  32.466 -13.924  1.00  0.00    -0.374 N 
HETATM   10  N2  UNL     1     -11.931  34.177 -12.822  1.00  0.00    -0.064 NA
ATOM     11  H12 UNL     1     -11.334  32.662 -14.770  1.00  0.00     0.158 HD
ATOM     12  H11 UNL     1     -10.105  31.720 -13.919  1.00  0.00     0.158 HD
ATOM     13  H3  UNL     1     -10.566  32.152 -10.995  1.00  0.00     0.162 HD
ENDBRANCH   1   7
BRANCH   4  14
HETATM   14  C6  UNL     1      -6.122  35.516  -9.027  1.00  0.00     0.235 C 
HETATM   15  O1  UNL     1      -6.679  36.516  -8.590  1.00  0.00    -0.306 OA
ENDBRANCH   4  14
TORSDOF 2
ENDMDL
MODEL 2
REMARK VINA RESULT: -6.978036066      1.494      1.794
REMARK  2 active torsions:
REMARK  status: ('A' for Active; 'I' for Inactive)
REMARK       I    between atoms: C1_4  and  N3_6 
REMARK    1  A    between atoms: N3_6  and  C2_8 
REMARK    2  A    between atoms: C5_11  and  C6_12 
ROOT
HETATM    1  C2  UNL     1      -8.586  33.871 -11.221  1.00  0.00     0.084 C 
HETATM    2  C3  UNL     1      -7.387  33.737 -10.340  1.00  0.00     0.026 C 
HETATM    3  C4  UNL     1      -6.946  35.047  -9.741  1.00  0.00     0.013 C 
HETATM    4  C5  UNL     1      -7.206  36.230 -10.597  1.00  0.00     0.047 C 
HETATM    5  C7  UNL     1      -8.570  36.297 -11.193  1.00  0.00     0.013 C 
HETATM    6  C8  UNL     1      -9.370  35.089 -10.717  1.00  0.00     0.026 C 
ENDROOT
BRANCH   1   7
HETATM    7  N3  UNL     1      -9.396  32.697 -11.292  1.00  0.00    -0.360 N 
HETATM    8  C1  UNL     1      -9.503  31.910 -12.466  1.00  0.00     0.182 C 
HETATM    9  N1  UNL     1      -8.740  30.876 -12.695  1.00  0.00    -0.374 N 
HETATM   10  N2  UNL     1     -10.472  32.232 -13.458  1.00  0.00    -0.064 NA
ATOM     11  H12 UNL     1      -8.817  30.310 -13.540  1.00  0.00     0.158 HD
ATOM     12  H11 UNL     1      -8.046  30.646 -11.985  1.00  0.00     0.158 HD
ATOM     13  H3  UNL     1      -9.919  32.413 -10.465  1.00  0.00     0.162 HD
ENDBRANCH   1   7
BRANCH   4  14
HETATM   14  C6  UNL     1      -7.032  37.457  -9.741  1.00  0.00     0.235 C 
HETATM   15  O1  UNL     1      -7.967  38.248  -9.712  1.00  0.00    -0.306 OA
ENDBRANCH   4  14
TORSDOF 2
ENDMDL
MODEL 3
REMARK VINA RESULT: -6.839388755      1.492      2.511
REMARK  2 active torsions:
REMARK  status: ('A' for Active; 'I' for Inactive)
REMARK       I    between atoms: C1_4  and  N3_6 
REMARK    1  A    between atoms: N3_6  and  C2_8 
REMARK    2  A    between atoms: C5_11  and  C6_12 
ROOT
HETATM    1  C2  UNL     1      -9.713  35.848 -11.291  1.00  0.00     0.084 C 
HETATM    2  C3  UNL     1      -8.938  37.115 -11.133  1.00  0.00     0.026 C 
HETATM    3  C4  UNL     1      -7.660  36.932 -10.358  1.00  0.00     0.013 C 
HETATM    4  C5  UNL     1      -7.720  35.874  -9.320  1.00  0.00     0.047 C 
HETATM    5  C7  UNL     1      -8.318  34.583  -9.761  1.00  0.00     0.013 C 
HETATM    6  C8  UNL     1      -8.699  34.700 -11.233  1.00  0.00     0.026 C 
ENDROOT
BRANCH   1   7
HETATM    7  N3  UNL     1     -10.523  35.797 -12.466  1.00  0.00    -0.360 N 
HETATM    8  C1  UNL     1     -11.659  34.957 -12.578  1.00  0.00     0.182 C 
HETATM    9  N1  UNL     1     -12.865  35.357 -12.285  1.00  0.00    -0.374 N 
HETATM   10  N2  UNL     1     -11.513  33.613 -13.027  1.00  0.00    -0.064 NA
ATOM     11  H12 UNL     1     -13.683  34.753 -12.365  1.00  0.00     0.158 HD
ATOM     12  H11 UNL     1     -12.970  36.319 -11.963  1.00  0.00     0.158 HD
ATOM     13  H3  UNL     1     -10.274  36.390 -13.257  1.00  0.00     0.162 HD
ENDBRANCH   1   7
BRANCH   4  14
HETATM   14  C6  UNL     1      -6.308  35.586  -8.883  1.00  0.00     0.235 C 
HETATM   15  O1  UNL     1      -5.832  36.324  -8.030  1.00  0.00    -0.306 OA
ENDBRANCH   4  14
TORSDOF 2
ENDMDL
MODEL 4
REMARK VINA RESULT: -6.833318821      1.495      2.136
REMARK  2 active torsions:
REMARK  status: ('A' for Active; 'I' for Inactive)
REMARK       I    between atoms: C1_4  and  N3_6 
REMARK    1  A    between atoms: N3_6  and  C2_8 
REMARK    2  A    between atoms: C5_11  and  C6_12 
ROOT
HETATM    1  C2  UNL     1      -9.283  35.635 -11.831  1.00  0.00     0.084 C 
HETATM    2  C3  UNL     1      -9.327  34.501 -10.859  1.00  0.00     0.026 C 
HETATM    3  C4  UNL     1      -8.334  34.649  -9.737  1.00  0.00     0.013 C 
HETATM    4  C5  UNL     1      -7.087  35.359 -10.112  1.00  0.00     0.047 C 
HETATM    5  C7  UNL     1      -7.279  36.619 -10.883  1.00  0.00     0.013 C 
HETATM    6  C8  UNL     1      -8.774  36.859 -11.060  1.00  0.00     0.026 C 
ENDROOT
BRANCH   1   7
HETATM    7  N3  UNL     1     -10.522  35.889 -12.493  1.00  0.00    -0.360 N 
HETATM    8  C1  UNL     1     -11.692  35.126 -12.249  1.00  0.00     0.182 C 
HETATM    9  N1  UNL     1     -12.588  35.470 -11.366  1.00  0.00    -0.374 N 
HETATM   10  N2  UNL     1     -11.931  33.928 -12.982  1.00  0.00    -0.064 NA
ATOM     11  H12 UNL     1     -13.430  34.921 -11.190  1.00  0.00     0.158 HD
ATOM     12  H11 UNL     1     -12.417  36.327 -10.841  1.00  0.00     0.158 HD
ATOM     13  H3  UNL     1     -10.568  36.650 -13.170  1.00  0.00     0.162 HD
ENDBRANCH   1   7
BRANCH   4  14
HETATM   14  C6  UNL     1      -6.369  35.719  -8.838  1.00  0.00     0.235 C 
HETATM   15  O1  UNL     1      -6.317  36.908  -8.551  1.00  0.00    -0.306 OA
ENDBRANCH   4  14
TORSDOF 2
ENDMDL
MODEL 5
REMARK VINA RESULT: -6.699171803      4.002      5.474
REMARK  2 active torsions:
REMARK  status: ('A' for Active; 'I' for Inactive)
REMARK       I    between atoms: C1_4  and  N3_6 
REMARK    1  A    between atoms: N3_6  and  C2_8 
REMARK    2  A    between atoms: C5_11  and  C6_12 
ROOT
HETATM    1  C2  UNL     1      -8.553  36.152 -10.718  1.00  0.00     0.084 C 
HETATM    2  C3  UNL     1      -8.988  34.764 -10.380  1.00  0.00     0.026 C 
HETATM    3  C4  UNL     1     -10.175  34.306 -11.186  1.00  0.00     0.013 C 
HETATM    4  C5  UNL     1     -11.114  35.390 -11.564  1.00  0.00     0.047 C 
HETATM    5  C7  UNL     1     -10.479  36.617 -12.118  1.00  0.00     0.013 C 
HETATM    6  C8  UNL     1      -8.970  36.404 -12.172  1.00  0.00     0.026 C 
ENDROOT
BRANCH   1   7
HETATM    7  N3  UNL     1      -7.164  36.401 -10.502  1.00  0.00    -0.360 N 
HETATM    8  C1  UNL     1      -6.663  36.966  -9.302  1.00  0.00     0.182 C 
HETATM    9  N1  UNL     1      -6.249  36.243  -8.299  1.00  0.00    -0.374 N 
HETATM   10  N2  UNL     1      -6.596  38.381  -9.152  1.00  0.00    -0.064 NA
ATOM     11  H12 UNL     1      -5.889  36.649  -7.436  1.00  0.00     0.158 HD
ATOM     12  H11 UNL     1      -6.298  35.230  -8.407  1.00  0.00     0.158 HD
ATOM     13  H3  UNL     1      -6.503  36.161 -11.242  1.00  0.00     0.162 HD
ENDBRANCH   1   7
BRANCH   4  14
HETATM   14  C6  UNL     1     -12.034  34.845 -12.625  1.00  0.00     0.235 C 
HETATM   15  O1  UNL     1     -11.811  33.707 -13.017  1.00  0.00    -0.306 OA
ENDBRANCH   4  14
TORSDOF 2
ENDMDL
