MODEL 1
REMARK VINA RESULT: -6.333648571      0.000      0.000
REMARK  2 active torsions:
REMARK  status: ('A' for Active; 'I' for Inactive)
REMARK    1  A    between atoms: C2_2  and  N1_4 
REMARK       I    between atoms: C4_6  and  N3_8 
REMARK    2  A    between atoms: N3_8  and  C5_10 
ROOT
HETATM    1  N1  UNL     1      -8.524  35.932  -9.742  1.00  0.00    -0.361 N 
ATOM      2  H1  UNL     1      -8.890  35.567  -8.863  1.00  0.00     0.162 HD
HETATM    3  C4  UNL     1      -9.248  35.765 -10.770  1.00  0.00     0.184 C 
HETATM    4  N2  UNL     1      -8.842  36.236 -12.068  1.00  0.00    -0.064 NA
HETATM    5  N3  UNL     1     -10.507  35.108 -10.725  1.00  0.00    -0.360 N 
ATOM      6  H3  UNL     1     -11.246  35.524 -10.158  1.00  0.00     0.162 HD
ENDROOT
BRANCH   1   7
HETATM    7  C2  UNL     1      -7.257  36.572  -9.685  1.00  0.00     0.076 C 
HETATM    8  C1  UNL     1      -6.359  35.952  -8.648  1.00  0.00     0.032 C 
HETATM    9  C3  UNL     1      -7.305  38.047  -9.459  1.00  0.00     0.032 C 
ENDBRANCH   1   7
BRANCH   5  10
HETATM   10  C5  UNL     1     -10.800  33.900 -11.427  1.00  0.00     0.084 C 
HETATM   11  C6  UNL     1     -11.345  34.182 -12.789  1.00  0.00     0.025 C 
HETATM   12  C7  UNL     1     -11.026  32.948 -13.622  1.00  0.00     0.002 C 
HETATM   13  C8  UNL     1     -10.118  32.089 -12.764  1.00  0.00     0.002 C 
HETATM   14  C9  UNL     1      -9.547  33.089 -11.752  1.00  0.00     0.025 C 
ENDBRANCH   5  10
TORSDOF 2
ENDMDL
MODEL 2
REMARK VINA RESULT: -5.915377350      0.898      1.075
REMARK  2 active torsions:
REMARK  status: ('A' for Active; 'I' for Inactive)
REMARK    1  A    between atoms: C2_2  and  N1_4 
REMARK       I    between atoms: C4_6  and  N3_8 
REMARK    2  A    between atoms: N3_8  and  C5_10 
ROOT
HETATM    1  N1  UNL     1      -8.250  35.057  -9.717  1.00  0.00    -0.361 N 
ATOM      2  H1  UNL     1      -8.620  34.592  -8.888  1.00  0.00     0.162 HD
HETATM    3  C4  UNL     1      -9.036  35.159 -10.707  1.00  0.00     0.184 C 
HETATM    4  N2  UNL     1      -8.632  35.796 -11.933  1.00  0.00    -0.064 NA
HETATM    5  N3  UNL     1     -10.365  34.657 -10.688  1.00  0.00    -0.360 N 
ATOM      6  H3  UNL     1     -11.018  35.052 -10.012  1.00  0.00     0.162 HD
ENDROOT
BRANCH   1   7
HETATM    7  C2  UNL     1      -6.910  35.524  -9.638  1.00  0.00     0.076 C 
HETATM    8  C1  UNL     1      -5.921  34.460 -10.030  1.00  0.00     0.032 C 
HETATM    9  C3  UNL     1      -6.514  36.085  -8.313  1.00  0.00     0.032 C 
ENDBRANCH   1   7
BRANCH   5  10
HETATM   10  C5  UNL     1     -10.842  33.632 -11.561  1.00  0.00     0.084 C 
HETATM   11  C6  UNL     1     -11.345  34.203 -12.846  1.00  0.00     0.025 C 
HETATM   12  C7  UNL     1     -11.221  33.083 -13.869  1.00  0.00     0.002 C 
HETATM   13  C8  UNL     1     -10.449  31.974 -13.182  1.00  0.00     0.002 C 
HETATM   14  C9  UNL     1      -9.728  32.705 -12.043  1.00  0.00     0.025 C 
ENDBRANCH   5  10
TORSDOF 2
ENDMDL
MODEL 3
REMARK VINA RESULT: -5.782720263      0.980      1.645
REMARK  2 active torsions:
REMARK  status: ('A' for Active; 'I' for Inactive)
REMARK    1  A    between atoms: C2_2  and  N1_4 
REMARK       I    between atoms: C4_6  and  N3_8 
REMARK    2  A    between atoms: N3_8  and  C5_10 
ROOT
HETATM    1  N1  UNL     1      -7.719  35.687  -9.736  1.00  0.00    -0.361 N 
ATOM      2  H1  UNL     1      -7.896  35.017  -8.987  1.00  0.00     0.162 HD
HETATM    3  C4  UNL     1      -8.385  35.533 -10.804  1.00  0.00     0.184 C 
HETATM    4  N2  UNL     1      -8.226  36.415 -11.930  1.00  0.00    -0.064 NA
HETATM    5  N3  UNL     1      -9.333  34.489 -10.974  1.00  0.00    -0.360 N 
ATOM      6  H3  UNL     1     -10.145  34.471 -10.356  1.00  0.00     0.162 HD
ENDROOT
BRANCH   1   7
HETATM    7  C2  UNL     1      -6.752  36.694  -9.470  1.00  0.00     0.076 C 
HETATM    8  C1  UNL     1      -5.900  36.355  -8.276  1.00  0.00     0.032 C 
HETATM    9  C3  UNL     1      -7.306  38.069  -9.291  1.00  0.00     0.032 C 
ENDBRANCH   1   7
BRANCH   5  10
HETATM   10  C5  UNL     1      -9.219  33.462 -11.960  1.00  0.00     0.084 C 
HETATM   11  C6  UNL     1      -8.512  32.263 -11.415  1.00  0.00     0.025 C 
HETATM   12  C7  UNL     1      -8.989  31.089 -12.258  1.00  0.00     0.002 C 
HETATM   13  C8  UNL     1     -10.117  31.623 -13.118  1.00  0.00     0.002 C 
HETATM   14  C9  UNL     1     -10.571  32.875 -12.359  1.00  0.00     0.025 C 
ENDBRANCH   5  10
TORSDOF 2
ENDMDL
MODEL 4
REMARK VINA RESULT: -5.635253378      0.598      1.622
REMARK  2 active torsions:
REMARK  status: ('A' for Active; 'I' for Inactive)
REMARK    1  A    between atoms: C2_2  and  N1_4 
REMARK       I    between atoms: C4_6  and  N3_8 
REMARK    2  A    between atoms: N3_8  and  C5_10 
ROOT
HETATM    1  N1  UNL     1      -8.720  35.682  -9.565  1.00  0.00    -0.361 N 
ATOM      2  H1  UNL     1      -9.243  35.033  -8.977  1.00  0.00     0.162 HD
HETATM    3  C4  UNL     1      -9.100  35.788 -10.771  1.00  0.00     0.184 C 
HETATM    4  N2  UNL     1      -8.444  36.672 -11.698  1.00  0.00    -0.064 NA
HETATM    5  N3  UNL     1     -10.195  35.051 -11.299  1.00  0.00    -0.360 N 
ATOM      6  H3  UNL     1     -11.119  35.208 -10.896  1.00  0.00     0.162 HD
ENDROOT
BRANCH   1   7
HETATM    7  C2  UNL     1      -7.643  36.372  -8.946  1.00  0.00     0.076 C 
HETATM    8  C1  UNL     1      -7.483  37.767  -9.489  1.00  0.00     0.032 C 
HETATM    9  C3  UNL     1      -6.324  35.675  -9.016  1.00  0.00     0.032 C 
ENDBRANCH   1   7
BRANCH   5  10
HETATM   10  C5  UNL     1     -10.078  34.103 -12.360  1.00  0.00     0.084 C 
HETATM   11  C6  UNL     1      -9.564  32.791 -11.862  1.00  0.00     0.025 C 
HETATM   12  C7  UNL     1     -10.063  31.752 -12.856  1.00  0.00     0.002 C 
HETATM   13  C8  UNL     1     -11.027  32.480 -13.772  1.00  0.00     0.002 C 
HETATM   14  C9  UNL     1     -11.430  33.708 -12.949  1.00  0.00     0.025 C 
ENDBRANCH   5  10
TORSDOF 2
ENDMDL
MODEL 5
REMARK VINA RESULT: -5.590454986      1.733      5.484
REMARK  2 active torsions:
REMARK  status: ('A' for Active; 'I' for Inactive)
REMARK    1  A    between atoms: C2_2  and  N1_4 
REMARK       I    between atoms: C4_6  and  N3_8 
REMARK    2  A    between atoms: N3_8  and  C5_10 
ROOT
HETATM    1  N1  UNL     1      -9.110  33.139 -11.441  1.00  0.00    -0.361 N 
ATOM      2  H1  UNL     1      -9.987  33.635 -11.603  1.00  0.00     0.162 HD
HETATM    3  C4  UNL     1      -8.307  33.665 -10.612  1.00  0.00     0.184 C 
HETATM    4  N2  UNL     1      -7.040  33.061 -10.296  1.00  0.00    -0.064 NA
HETATM    5  N3  UNL     1      -8.590  34.882  -9.934  1.00  0.00    -0.360 N 
ATOM      6  H3  UNL     1      -9.397  34.908  -9.310  1.00  0.00     0.162 HD
ENDROOT
BRANCH   1   7
HETATM    7  C2  UNL     1      -8.919  31.932 -12.166  1.00  0.00     0.076 C 
HETATM    8  C1  UNL     1     -10.018  31.698 -13.167  1.00  0.00     0.032 C 
HETATM    9  C3  UNL     1      -8.767  30.708 -11.324  1.00  0.00     0.032 C 
ENDBRANCH   1   7
BRANCH   5  10
HETATM   10  C5  UNL     1      -7.812  36.071 -10.074  1.00  0.00     0.084 C 
HETATM   11  C6  UNL     1      -8.663  37.293  -9.964  1.00  0.00     0.025 C 
HETATM   12  C7  UNL     1      -7.730  38.403  -9.503  1.00  0.00     0.002 C 
HETATM   13  C8  UNL     1      -6.417  37.727  -9.158  1.00  0.00     0.002 C 
HETATM   14  C9  UNL     1      -6.827  36.269  -8.925  1.00  0.00     0.025 C 
ENDBRANCH   5  10
TORSDOF 2
ENDMDL
