MODEL 1
REMARK VINA RESULT: -4.963754475      0.000      0.000
REMARK  1 active torsions:
REMARK  status: ('A' for Active; 'I' for Inactive)
REMARK    1  A    between atoms: N1_2  and  C2_4 
REMARK       I    between atoms: N2_6  and  C4_7 
ROOT
HETATM    1  C2  UNL     1      15.051  23.734   9.204  1.00  0.00     0.116 C 
HETATM    2  C3  UNL     1      14.074  23.327  10.261  1.00  0.00     0.152 C 
HETATM    3  N2  UNL     1      14.042  24.684  10.791  1.00  0.00    -0.352 N 
HETATM    4  C4  UNL     1      13.153  25.342  11.689  1.00  0.00     0.184 C 
HETATM    5  N3  UNL     1      12.018  24.852  11.998  1.00  0.00    -0.374 N 
ATOM      6  H31 UNL     1      11.382  25.323  12.641  1.00  0.00     0.158 HD
ATOM      7  H32 UNL     1      11.758  23.960  11.578  1.00  0.00     0.158 HD
HETATM    8  N4  UNL     1      13.519  26.596  12.279  1.00  0.00    -0.064 NA
HETATM    9  C5  UNL     1      15.224  24.981  10.033  1.00  0.00     0.152 C 
ENDROOT
BRANCH   1  10
HETATM   10  N1  UNL     1      16.167  22.864   9.160  1.00  0.00    -0.400 N 
HETATM   11  C1  UNL     1      17.338  23.347   9.002  1.00  0.00     0.112 C 
ATOM     12  H1  UNL     1      16.035  21.856   9.254  1.00  0.00     0.158 HD
ENDBRANCH   1  10
TORSDOF 1
ENDMDL
MODEL 2
REMARK VINA RESULT: -4.949084175      1.372      4.267
REMARK  1 active torsions:
REMARK  status: ('A' for Active; 'I' for Inactive)
REMARK    1  A    between atoms: N1_2  and  C2_4 
REMARK       I    between atoms: N2_6  and  C4_7 
ROOT
HETATM    1  C2  UNL     1      13.713  25.355  12.128  1.00  0.00     0.116 C 
HETATM    2  C3  UNL     1      13.491  24.089  11.363  1.00  0.00     0.152 C 
HETATM    3  N2  UNL     1      14.384  24.541  10.304  1.00  0.00    -0.352 N 
HETATM    4  C4  UNL     1      15.017  23.857   9.225  1.00  0.00     0.184 C 
HETATM    5  N3  UNL     1      15.079  22.585   9.175  1.00  0.00    -0.374 N 
ATOM      6  H31 UNL     1      15.531  22.095   8.403  1.00  0.00     0.158 HD
ATOM      7  H32 UNL     1      14.656  22.059   9.940  1.00  0.00     0.158 HD
HETATM    8  N4  UNL     1      15.610  24.595   8.150  1.00  0.00    -0.064 NA
HETATM    9  C5  UNL     1      14.310  25.868  10.842  1.00  0.00     0.152 C 
ENDROOT
BRANCH   1  10
HETATM   10  N1  UNL     1      12.490  25.949  12.521  1.00  0.00    -0.400 N 
HETATM   11  C1  UNL     1      12.389  27.222  12.550  1.00  0.00     0.112 C 
ATOM     12  H1  UNL     1      11.695  25.365  12.779  1.00  0.00     0.158 HD
ENDBRANCH   1  10
TORSDOF 1
ENDMDL
MODEL 3
REMARK VINA RESULT: -4.742563700      1.662      2.017
REMARK  1 active torsions:
REMARK  status: ('A' for Active; 'I' for Inactive)
REMARK    1  A    between atoms: N1_2  and  C2_4 
REMARK       I    between atoms: N2_6  and  C4_7 
ROOT
HETATM    1  C2  UNL     1      14.014  23.896  10.544  1.00  0.00     0.116 C 
HETATM    2  C3  UNL     1      14.659  23.785  11.888  1.00  0.00     0.152 C 
HETATM    3  N2  UNL     1      14.378  25.186  12.169  1.00  0.00    -0.352 N 
HETATM    4  C4  UNL     1      14.401  25.947  13.374  1.00  0.00     0.184 C 
HETATM    5  N3  UNL     1      14.448  25.395  14.522  1.00  0.00    -0.374 N 
ATOM      6  H31 UNL     1      14.465  25.940  15.384  1.00  0.00     0.158 HD
ATOM      7  H32 UNL     1      14.470  24.377  14.556  1.00  0.00     0.158 HD
HETATM    8  N4  UNL     1      14.371  27.379  13.325  1.00  0.00    -0.064 NA
HETATM    9  C5  UNL     1      14.098  25.383  10.776  1.00  0.00     0.152 C 
ENDROOT
BRANCH   1  10
HETATM   10  N1  UNL     1      14.846  23.383   9.521  1.00  0.00    -0.400 N 
HETATM   11  C1  UNL     1      15.449  24.190   8.735  1.00  0.00     0.112 C 
ATOM     12  H1  UNL     1      14.964  22.376   9.411  1.00  0.00     0.158 HD
ENDBRANCH   1  10
TORSDOF 1
ENDMDL
MODEL 4
REMARK VINA RESULT: -4.722774439      1.200      4.272
REMARK  1 active torsions:
REMARK  status: ('A' for Active; 'I' for Inactive)
REMARK    1  A    between atoms: N1_2  and  C2_4 
REMARK       I    between atoms: N2_6  and  C4_7 
ROOT
HETATM    1  C2  UNL     1      14.070  24.646  11.845  1.00  0.00     0.116 C 
HETATM    2  C3  UNL     1      14.237  23.455  10.956  1.00  0.00     0.152 C 
HETATM    3  N2  UNL     1      15.307  24.118  10.223  1.00  0.00    -0.352 N 
HETATM    4  C4  UNL     1      16.292  23.633   9.313  1.00  0.00     0.184 C 
HETATM    5  N3  UNL     1      16.542  22.390   9.187  1.00  0.00    -0.374 N 
ATOM      6  H31 UNL     1      17.246  22.043   8.536  1.00  0.00     0.158 HD
ATOM      7  H32 UNL     1      16.009  21.739   9.764  1.00  0.00     0.158 HD
HETATM    8  N4  UNL     1      17.040  24.548   8.503  1.00  0.00    -0.064 NA
HETATM    9  C5  UNL     1      14.909  25.362  10.817  1.00  0.00     0.152 C 
ENDROOT
BRANCH   1  10
HETATM   10  N1  UNL     1      12.717  25.051  11.927  1.00  0.00    -0.400 N 
HETATM   11  C1  UNL     1      12.430  26.199  12.408  1.00  0.00     0.112 C 
ATOM     12  H1  UNL     1      11.975  24.430  11.605  1.00  0.00     0.158 HD
ENDBRANCH   1  10
TORSDOF 1
ENDMDL
MODEL 5
REMARK VINA RESULT: -4.689619284      1.356      4.237
REMARK  1 active torsions:
REMARK  status: ('A' for Active; 'I' for Inactive)
REMARK    1  A    between atoms: N1_2  and  C2_4 
REMARK       I    between atoms: N2_6  and  C4_7 
ROOT
HETATM    1  C2  UNL     1      13.560  24.739  11.501  1.00  0.00     0.116 C 
HETATM    2  C3  UNL     1      14.335  25.396  10.403  1.00  0.00     0.152 C 
HETATM    3  N2  UNL     1      15.116  24.184  10.193  1.00  0.00    -0.352 N 
HETATM    4  C4  UNL     1      15.968  23.763   9.130  1.00  0.00     0.184 C 
HETATM    5  N3  UNL     1      15.978  24.350   7.999  1.00  0.00    -0.374 N 
ATOM      6  H31 UNL     1      16.588  24.050   7.239  1.00  0.00     0.158 HD
ATOM      7  H32 UNL     1      15.350  25.143   7.872  1.00  0.00     0.158 HD
HETATM    8  N4  UNL     1      16.851  22.650   9.310  1.00  0.00    -0.064 NA
HETATM    9  C5  UNL     1      14.641  23.689  11.453  1.00  0.00     0.152 C 
ENDROOT
BRANCH   1  10
HETATM   10  N1  UNL     1      13.528  25.538  12.668  1.00  0.00    -0.400 N 
HETATM   11  C1  UNL     1      14.581  25.655  13.382  1.00  0.00     0.112 C 
ATOM     12  H1  UNL     1      12.669  26.017  12.939  1.00  0.00     0.158 HD
ENDBRANCH   1  10
TORSDOF 1
ENDMDL
