MODEL 1
REMARK VINA RESULT: -4.522637716      0.000      0.000
REMARK  2 active torsions:
REMARK  status: ('A' for Active; 'I' for Inactive)
REMARK    1  A    between atoms: C1_2  and  C2_4 
REMARK    2  A    between atoms: C2_4  and  C3_5 
ROOT
HETATM    1  C2  UNL     1     -13.662  36.892  96.852  1.00  0.00     0.206 C 
HETATM    2  C6  UNL     1     -12.735  37.411  95.740  1.00  0.00     0.050 C 
HETATM    3  C7  UNL     1     -13.495  38.703  95.402  1.00  0.00     0.030 C 
HETATM    4  C8  UNL     1     -14.896  38.137  95.317  1.00  0.00     0.234 C 
HETATM    5  N2  UNL     1     -14.976  37.140  96.369  1.00  0.00    -0.057 N 
ATOM      6  H21 UNL     1     -15.623  37.405  97.112  1.00  0.00     0.278 HD
ATOM      7  H22 UNL     1     -15.450  36.289  96.068  1.00  0.00     0.278 HD
ENDROOT
BRANCH   1   8
HETATM    8  C1  UNL     1     -13.327  37.761  98.041  1.00  0.00     0.268 C 
HETATM    9  N1  UNL     1     -11.975  37.697  98.479  1.00  0.00    -0.060 NA
HETATM   10  O1  UNL     1     -14.182  38.483  98.595  1.00  0.00    -0.274 OA
ENDBRANCH   1   8
BRANCH   1  11
HETATM   11  C3  UNL     1     -13.336  35.496  97.237  1.00  0.00     0.031 A 
HETATM   12  C4  UNL     1     -14.321  34.449  96.673  1.00  0.00     0.008 A 
HETATM   13  C5  UNL     1     -12.891  34.433  96.347  1.00  0.00     0.008 A 
ENDBRANCH   1  11
TORSDOF 2
ENDMDL
MODEL 2
REMARK VINA RESULT: -4.394353376      7.264      8.627
REMARK  2 active torsions:
REMARK  status: ('A' for Active; 'I' for Inactive)
REMARK    1  A    between atoms: C1_2  and  C2_4 
REMARK    2  A    between atoms: C2_4  and  C3_5 
ROOT
HETATM    1  C2  UNL     1     -20.690  40.054  94.079  1.00  0.00     0.206 C 
HETATM    2  C6  UNL     1     -21.640  39.060  93.391  1.00  0.00     0.050 C 
HETATM    3  C7  UNL     1     -21.648  39.692  91.990  1.00  0.00     0.030 C 
HETATM    4  C8  UNL     1     -21.868  41.137  92.386  1.00  0.00     0.234 C 
HETATM    5  N2  UNL     1     -21.095  41.329  93.598  1.00  0.00    -0.057 N 
ATOM      6  H21 UNL     1     -20.309  41.966  93.466  1.00  0.00     0.278 HD
ATOM      7  H22 UNL     1     -21.596  41.872  94.301  1.00  0.00     0.278 HD
ENDROOT
BRANCH   1   8
HETATM    8  C1  UNL     1     -19.323  39.668  93.565  1.00  0.00     0.268 C 
HETATM    9  N1  UNL     1     -18.905  38.346  93.885  1.00  0.00    -0.060 NA
HETATM   10  O1  UNL     1     -18.617  40.458  92.904  1.00  0.00    -0.274 OA
ENDBRANCH   1   8
BRANCH   1  11
HETATM   11  C3  UNL     1     -20.662  39.865  95.551  1.00  0.00     0.031 A 
HETATM   12  C4  UNL     1     -20.514  41.181  96.345  1.00  0.00     0.008 A 
HETATM   13  C5  UNL     1     -21.676  40.301  96.500  1.00  0.00     0.008 A 
ENDBRANCH   1  11
TORSDOF 2
ENDMDL
MODEL 3
REMARK VINA RESULT: -4.369622366      8.127      9.120
REMARK  2 active torsions:
REMARK  status: ('A' for Active; 'I' for Inactive)
REMARK    1  A    between atoms: C1_2  and  C2_4 
REMARK    2  A    between atoms: C2_4  and  C3_5 
ROOT
HETATM    1  C2  UNL     1     -20.926  40.082  93.586  1.00  0.00     0.206 C 
HETATM    2  C6  UNL     1     -22.424  39.950  93.264  1.00  0.00     0.050 C 
HETATM    3  C7  UNL     1     -22.412  40.607  91.875  1.00  0.00     0.030 C 
HETATM    4  C8  UNL     1     -21.590  41.835  92.203  1.00  0.00     0.234 C 
HETATM    5  N2  UNL     1     -20.575  41.384  93.138  1.00  0.00    -0.057 N 
ATOM      6  H21 UNL     1     -19.635  41.425  92.746  1.00  0.00     0.278 HD
ATOM      7  H22 UNL     1     -20.433  42.039  93.908  1.00  0.00     0.278 HD
ENDROOT
BRANCH   1   8
HETATM    8  C1  UNL     1     -20.277  39.006  92.748  1.00  0.00     0.268 C 
HETATM    9  N1  UNL     1     -19.014  39.351  92.189  1.00  0.00    -0.060 NA
HETATM   10  O1  UNL     1     -20.815  37.894  92.564  1.00  0.00    -0.274 OA
ENDBRANCH   1   8
BRANCH   1  11
HETATM   11  C3  UNL     1     -20.634  39.754  95.004  1.00  0.00     0.031 A 
HETATM   12  C4  UNL     1     -20.303  40.987  95.873  1.00  0.00     0.008 A 
HETATM   13  C5  UNL     1     -21.443  40.110  96.161  1.00  0.00     0.008 A 
ENDBRANCH   1  11
TORSDOF 2
ENDMDL
MODEL 4
REMARK VINA RESULT: -4.190499389      8.433      9.429
REMARK  2 active torsions:
REMARK  status: ('A' for Active; 'I' for Inactive)
REMARK    1  A    between atoms: C1_2  and  C2_4 
REMARK    2  A    between atoms: C2_4  and  C3_5 
ROOT
HETATM    1  C2  UNL     1     -21.124  40.442  93.637  1.00  0.00     0.206 C 
HETATM    2  C6  UNL     1     -22.639  40.279  93.431  1.00  0.00     0.050 C 
HETATM    3  C7  UNL     1     -22.776  41.084  92.130  1.00  0.00     0.030 C 
HETATM    4  C8  UNL     1     -21.972  42.305  92.524  1.00  0.00     0.234 C 
HETATM    5  N2  UNL     1     -20.862  41.801  93.312  1.00  0.00    -0.057 N 
ATOM      6  H21 UNL     1     -19.962  41.927  92.848  1.00  0.00     0.278 HD
ATOM      7  H22 UNL     1     -20.675  42.372  94.136  1.00  0.00     0.278 HD
ENDROOT
BRANCH   1   8
HETATM    8  C1  UNL     1     -20.515  39.496  92.630  1.00  0.00     0.268 C 
HETATM    9  N1  UNL     1     -21.088  38.194  92.596  1.00  0.00    -0.060 NA
HETATM   10  O1  UNL     1     -19.576  39.840  91.881  1.00  0.00    -0.274 OA
ENDBRANCH   1   8
BRANCH   1  11
HETATM   11  C3  UNL     1     -20.694  39.974  94.978  1.00  0.00     0.031 A 
HETATM   12  C4  UNL     1     -20.381  41.118  95.966  1.00  0.00     0.008 A 
HETATM   13  C5  UNL     1     -21.429  40.125  96.226  1.00  0.00     0.008 A 
ENDBRANCH   1  11
TORSDOF 2
ENDMDL
MODEL 5
REMARK VINA RESULT: -4.162036338      6.422      7.956
REMARK  2 active torsions:
REMARK  status: ('A' for Active; 'I' for Inactive)
REMARK    1  A    between atoms: C1_2  and  C2_4 
REMARK    2  A    between atoms: C2_4  and  C3_5 
ROOT
HETATM    1  C2  UNL     1     -19.864  40.203  93.955  1.00  0.00     0.206 C 
HETATM    2  C6  UNL     1     -20.353  39.349  92.774  1.00  0.00     0.050 C 
HETATM    3  C7  UNL     1     -19.770  40.193  91.631  1.00  0.00     0.030 C 
HETATM    4  C8  UNL     1     -20.220  41.562  92.096  1.00  0.00     0.234 C 
HETATM    5  N2  UNL     1     -20.080  41.546  93.540  1.00  0.00    -0.057 N 
ATOM      6  H21 UNL     1     -19.353  42.180  93.870  1.00  0.00     0.278 HD
ATOM      7  H22 UNL     1     -20.870  41.981  94.016  1.00  0.00     0.278 HD
ENDROOT
BRANCH   1   8
HETATM    8  C1  UNL     1     -18.393  39.877  94.056  1.00  0.00     0.268 C 
HETATM    9  N1  UNL     1     -18.075  38.490  94.022  1.00  0.00    -0.060 NA
HETATM   10  O1  UNL     1     -17.522  40.766  94.162  1.00  0.00    -0.274 OA
ENDBRANCH   1   8
BRANCH   1  11
HETATM   11  C3  UNL     1     -20.484  39.784  95.236  1.00  0.00     0.031 A 
HETATM   12  C4  UNL     1     -20.641  40.932  96.257  1.00  0.00     0.008 A 
HETATM   13  C5  UNL     1     -21.791  40.185  95.738  1.00  0.00     0.008 A 
ENDBRANCH   1  11
TORSDOF 2
ENDMDL
