MODEL 1
REMARK VINA RESULT: -5.443420120      0.000      0.000
REMARK  1 active torsions:
REMARK  status: ('A' for Active; 'I' for Inactive)
REMARK    1  A    between atoms: C1_2  and  C2_4 
ROOT
HETATM    1  C2  UNL     1     -15.501  35.148  96.208  1.00  0.00     0.110 C 
HETATM    2  C3  UNL     1     -14.922  36.525  95.998  1.00  0.00     0.051 C 
HETATM    3  C4  UNL     1     -13.715  36.489  96.903  1.00  0.00     0.227 C 
HETATM    4  C5  UNL     1     -12.431  36.425  96.135  1.00  0.00     0.071 C 
HETATM    5  C6  UNL     1     -12.442  34.975  96.536  1.00  0.00     0.228 A 
HETATM    6  C7  UNL     1     -13.237  34.129  95.571  1.00  0.00     0.072 A 
HETATM    7  C8  UNL     1     -14.329  34.264  96.573  1.00  0.00     0.238 A 
HETATM    8  N2  UNL     1     -13.555  35.160  97.406  1.00  0.00     0.103 N 
ENDROOT
BRANCH   1   9
HETATM    9  C1  UNL     1     -16.300  34.649  95.093  1.00  0.00     0.237 C 
HETATM   10  N1  UNL     1     -15.799  33.714  94.143  1.00  0.00    -0.062 NA
HETATM   11  O1  UNL     1     -17.499  35.086  94.984  1.00  0.00    -0.276 OA
ENDBRANCH   1   9
TORSDOF 1
ENDMDL
MODEL 2
REMARK VINA RESULT: -5.231134345      7.916      9.308
REMARK  1 active torsions:
REMARK  status: ('A' for Active; 'I' for Inactive)
REMARK    1  A    between atoms: C1_2  and  C2_4 
ROOT
HETATM    1  C2  UNL     1     -20.929  40.089  95.608  1.00  0.00     0.110 C 
HETATM    2  C3  UNL     1     -19.879  39.755  94.579  1.00  0.00     0.051 C 
HETATM    3  C4  UNL     1     -20.701  39.071  93.515  1.00  0.00     0.227 C 
HETATM    4  C5  UNL     1     -20.858  39.916  92.288  1.00  0.00     0.071 C 
HETATM    5  C6  UNL     1     -22.242  40.164  92.822  1.00  0.00     0.228 A 
HETATM    6  C7  UNL     1     -22.272  41.313  93.801  1.00  0.00     0.072 A 
HETATM    7  C8  UNL     1     -22.221  40.246  94.838  1.00  0.00     0.238 A 
HETATM    8  N2  UNL     1     -22.086  39.192  93.853  1.00  0.00     0.103 N 
ENDROOT
BRANCH   1   9
HETATM    9  C1  UNL     1     -20.602  41.226  96.463  1.00  0.00     0.237 C 
HETATM   10  N1  UNL     1     -21.386  41.591  97.594  1.00  0.00    -0.062 NA
HETATM   11  O1  UNL     1     -19.563  41.911  96.162  1.00  0.00    -0.276 OA
ENDBRANCH   1   9
TORSDOF 1
ENDMDL
MODEL 3
REMARK VINA RESULT: -5.199524493      1.559      1.796
REMARK  1 active torsions:
REMARK  status: ('A' for Active; 'I' for Inactive)
REMARK    1  A    between atoms: C1_2  and  C2_4 
ROOT
HETATM    1  C2  UNL     1     -14.608  35.959  96.794  1.00  0.00     0.110 C 
HETATM    2  C3  UNL     1     -14.506  37.238  96.002  1.00  0.00     0.051 C 
HETATM    3  C4  UNL     1     -13.216  37.819  96.527  1.00  0.00     0.227 C 
HETATM    4  C5  UNL     1     -12.109  37.746  95.521  1.00  0.00     0.071 C 
HETATM    5  C6  UNL     1     -11.625  36.598  96.365  1.00  0.00     0.228 A 
HETATM    6  C7  UNL     1     -12.275  35.293  95.970  1.00  0.00     0.072 A 
HETATM    7  C8  UNL     1     -13.185  35.563  97.116  1.00  0.00     0.238 A 
HETATM    8  N2  UNL     1     -12.590  36.857  97.380  1.00  0.00     0.103 N 
ENDROOT
BRANCH   1   9
HETATM    9  C1  UNL     1     -15.389  34.907  96.149  1.00  0.00     0.237 C 
HETATM   10  N1  UNL     1     -16.475  35.183  95.270  1.00  0.00    -0.062 NA
HETATM   11  O1  UNL     1     -15.067  33.694  96.401  1.00  0.00    -0.276 OA
ENDBRANCH   1   9
TORSDOF 1
ENDMDL
MODEL 4
REMARK VINA RESULT: -5.190261783      7.847      9.266
REMARK  1 active torsions:
REMARK  status: ('A' for Active; 'I' for Inactive)
REMARK    1  A    between atoms: C1_2  and  C2_4 
ROOT
HETATM    1  C2  UNL     1     -20.910  40.043  95.476  1.00  0.00     0.110 C 
HETATM    2  C3  UNL     1     -19.915  39.628  94.422  1.00  0.00     0.051 C 
HETATM    3  C4  UNL     1     -20.809  38.958  93.407  1.00  0.00     0.227 C 
HETATM    4  C5  UNL     1     -20.967  39.776  92.162  1.00  0.00     0.071 C 
HETATM    5  C6  UNL     1     -22.317  40.109  92.736  1.00  0.00     0.228 A 
HETATM    6  C7  UNL     1     -22.254  41.285  93.682  1.00  0.00     0.072 A 
HETATM    7  C8  UNL     1     -22.219  40.245  94.746  1.00  0.00     0.238 A 
HETATM    8  N2  UNL     1     -22.172  39.159  93.789  1.00  0.00     0.103 N 
ENDROOT
BRANCH   1   9
HETATM    9  C1  UNL     1     -20.496  41.185  96.285  1.00  0.00     0.237 C 
HETATM   10  N1  UNL     1     -19.386  42.010  95.943  1.00  0.00    -0.062 NA
HETATM   11  O1  UNL     1     -21.172  41.436  97.343  1.00  0.00    -0.276 OA
ENDBRANCH   1   9
TORSDOF 1
ENDMDL
MODEL 5
REMARK VINA RESULT: -5.167309612      1.151      1.151
REMARK  1 active torsions:
REMARK  status: ('A' for Active; 'I' for Inactive)
REMARK    1  A    between atoms: C1_2  and  C2_4 
ROOT
HETATM    1  C2  UNL     1     -15.152  34.966  96.228  1.00  0.00     0.110 C 
HETATM    2  C3  UNL     1     -14.934  36.426  95.920  1.00  0.00     0.051 C 
HETATM    3  C4  UNL     1     -13.816  36.774  96.873  1.00  0.00     0.227 C 
HETATM    4  C5  UNL     1     -12.513  36.988  96.166  1.00  0.00     0.071 C 
HETATM    5  C6  UNL     1     -12.178  35.619  96.693  1.00  0.00     0.228 A 
HETATM    6  C7  UNL     1     -12.669  34.525  95.775  1.00  0.00     0.072 A 
HETATM    7  C8  UNL     1     -13.819  34.447  96.716  1.00  0.00     0.238 A 
HETATM    8  N2  UNL     1     -13.353  35.574  97.498  1.00  0.00     0.103 N 
ENDROOT
BRANCH   1   9
HETATM    9  C1  UNL     1     -15.727  34.194  95.130  1.00  0.00     0.237 C 
HETATM   10  N1  UNL     1     -17.128  34.141  94.876  1.00  0.00    -0.062 NA
HETATM   11  O1  UNL     1     -14.920  33.545  94.378  1.00  0.00    -0.276 OA
ENDBRANCH   1   9
TORSDOF 1
ENDMDL
