MODEL 1
REMARK VINA RESULT: -5.094057686      0.000      0.000
REMARK  2 active torsions:
REMARK  status: ('A' for Active; 'I' for Inactive)
REMARK    1  A    between atoms: C1_2  and  C2_4 
REMARK    2  A    between atoms: C8_10  and  N2_11 
ROOT
HETATM    1  C2  UNL     1     -15.022  35.205  95.775  1.00  0.00     0.049 A 
HETATM    2  C3  UNL     1     -14.105  36.287  96.365  1.00  0.00     0.026 C 
HETATM    3  C4  UNL     1     -12.986  35.403  96.858  1.00  0.00     0.018 C 
HETATM    4  C5  UNL     1     -13.749  34.385  97.674  1.00  0.00     0.013 C 
HETATM    5  C6  UNL     1     -14.832  34.050  96.639  1.00  0.00     0.011 A 
HETATM    6  C7  UNL     1     -14.128  34.142  95.304  1.00  0.00     0.039 A 
HETATM    7  C8  UNL     1     -12.702  34.590  95.598  1.00  0.00     0.193 C 
ENDROOT
BRANCH   7   8
HETATM    8  N2  UNL     1     -11.831  33.483  95.863  1.00  0.00    -0.074 N 
ATOM      9  H23 UNL     1     -10.886  33.798  96.084  1.00  0.00     0.274 HD
ATOM     10  H22 UNL     1     -12.061  33.033  96.748  1.00  0.00     0.274 HD
ATOM     11  H21 UNL     1     -11.827  32.811  95.095  1.00  0.00     0.274 HD
ENDBRANCH   7   8
BRANCH   1  12
HETATM   12  C1  UNL     1     -16.260  35.582  95.128  1.00  0.00     0.240 C 
HETATM   13  N1  UNL     1     -16.410  36.858  94.532  1.00  0.00    -0.061 NA
HETATM   14  O1  UNL     1     -17.242  34.797  95.070  1.00  0.00    -0.276 OA
ENDBRANCH   1  12
TORSDOF 2
ENDMDL
MODEL 2
REMARK VINA RESULT: -4.942858448      1.890      2.353
REMARK  2 active torsions:
REMARK  status: ('A' for Active; 'I' for Inactive)
REMARK    1  A    between atoms: C1_2  and  C2_4 
REMARK    2  A    between atoms: C8_10  and  N2_11 
ROOT
HETATM    1  C2  UNL     1     -14.029  35.737  96.441  1.00  0.00     0.049 A 
HETATM    2  C3  UNL     1     -14.163  37.206  96.010  1.00  0.00     0.026 C 
HETATM    3  C4  UNL     1     -12.770  37.677  96.344  1.00  0.00     0.018 C 
HETATM    4  C5  UNL     1     -12.633  37.212  97.775  1.00  0.00     0.013 C 
HETATM    5  C6  UNL     1     -13.121  35.769  97.578  1.00  0.00     0.011 A 
HETATM    6  C7  UNL     1     -12.626  35.382  96.203  1.00  0.00     0.039 A 
HETATM    7  C8  UNL     1     -11.941  36.615  95.628  1.00  0.00     0.193 C 
ENDROOT
BRANCH   7   8
HETATM    8  N2  UNL     1     -10.556  36.683  95.992  1.00  0.00    -0.074 N 
ATOM      9  H23 UNL     1     -10.219  37.647  95.993  1.00  0.00     0.274 HD
ATOM     10  H22 UNL     1     -10.421  36.466  96.980  1.00  0.00     0.274 HD
ATOM     11  H21 UNL     1      -9.977  36.089  95.399  1.00  0.00     0.274 HD
ENDBRANCH   7   8
BRANCH   1  12
HETATM   12  C1  UNL     1     -15.144  34.830  96.275  1.00  0.00     0.240 C 
HETATM   13  N1  UNL     1     -16.385  35.289  95.771  1.00  0.00    -0.061 NA
HETATM   14  O1  UNL     1     -15.054  33.610  96.569  1.00  0.00    -0.276 OA
ENDBRANCH   1  12
TORSDOF 2
ENDMDL
MODEL 3
REMARK VINA RESULT: -4.774274477      2.123      2.786
REMARK  2 active torsions:
REMARK  status: ('A' for Active; 'I' for Inactive)
REMARK    1  A    between atoms: C1_2  and  C2_4 
REMARK    2  A    between atoms: C8_10  and  N2_11 
ROOT
HETATM    1  C2  UNL     1     -14.101  36.139  96.541  1.00  0.00     0.049 A 
HETATM    2  C3  UNL     1     -14.447  37.616  96.298  1.00  0.00     0.026 C 
HETATM    3  C4  UNL     1     -13.096  38.223  96.586  1.00  0.00     0.018 C 
HETATM    4  C5  UNL     1     -12.783  37.626  97.938  1.00  0.00     0.013 C 
HETATM    5  C6  UNL     1     -13.110  36.163  97.607  1.00  0.00     0.011 A 
HETATM    6  C7  UNL     1     -12.692  35.994  96.163  1.00  0.00     0.039 A 
HETATM    7  C8  UNL     1     -12.210  37.361  95.692  1.00  0.00     0.193 C 
ENDROOT
BRANCH   7   8
HETATM    8  N2  UNL     1     -10.817  37.566  95.962  1.00  0.00    -0.074 N 
ATOM      9  H23 UNL     1     -10.627  38.537  96.212  1.00  0.00     0.274 HD
ATOM     10  H22 UNL     1     -10.539  37.118  96.835  1.00  0.00     0.274 HD
ATOM     11  H21 UNL     1     -10.230  37.262  95.186  1.00  0.00     0.274 HD
ENDBRANCH   7   8
BRANCH   1  12
HETATM   12  C1  UNL     1     -15.110  35.120  96.348  1.00  0.00     0.240 C 
HETATM   13  N1  UNL     1     -14.794  33.747  96.494  1.00  0.00    -0.061 NA
HETATM   14  O1  UNL     1     -16.296  35.412  96.045  1.00  0.00    -0.276 OA
ENDBRANCH   1  12
TORSDOF 2
ENDMDL
MODEL 4
REMARK VINA RESULT: -4.735371934      7.716      8.858
REMARK  2 active torsions:
REMARK  status: ('A' for Active; 'I' for Inactive)
REMARK    1  A    between atoms: C1_2  and  C2_4 
REMARK    2  A    between atoms: C8_10  and  N2_11 
ROOT
HETATM    1  C2  UNL     1     -20.874  40.000  94.617  1.00  0.00     0.049 A 
HETATM    2  C3  UNL     1     -19.645  39.194  94.168  1.00  0.00     0.026 C 
HETATM    3  C4  UNL     1     -19.994  39.026  92.710  1.00  0.00     0.018 C 
HETATM    4  C5  UNL     1     -21.397  38.473  92.802  1.00  0.00     0.013 C 
HETATM    5  C6  UNL     1     -21.965  39.494  93.798  1.00  0.00     0.011 A 
HETATM    6  C7  UNL     1     -21.274  40.793  93.450  1.00  0.00     0.039 A 
HETATM    7  C8  UNL     1     -20.292  40.473  92.330  1.00  0.00     0.193 C 
ENDROOT
BRANCH   7   8
HETATM    8  N2  UNL     1     -20.899  40.571  91.034  1.00  0.00    -0.074 N 
ATOM      9  H23 UNL     1     -20.425  39.974  90.356  1.00  0.00     0.274 HD
ATOM     10  H22 UNL     1     -21.818  40.129  91.022  1.00  0.00     0.274 HD
ATOM     11  H21 UNL     1     -20.947  41.536  90.709  1.00  0.00     0.274 HD
ENDBRANCH   7   8
BRANCH   1  12
HETATM   12  C1  UNL     1     -20.983  40.447  95.988  1.00  0.00     0.240 C 
HETATM   13  N1  UNL     1     -20.217  41.542  96.459  1.00  0.00    -0.061 NA
HETATM   14  O1  UNL     1     -21.756  39.886  96.808  1.00  0.00    -0.276 OA
ENDBRANCH   1  12
TORSDOF 2
ENDMDL
MODEL 5
REMARK VINA RESULT: -4.532653262      2.440      3.245
REMARK  2 active torsions:
REMARK  status: ('A' for Active; 'I' for Inactive)
REMARK    1  A    between atoms: C1_2  and  C2_4 
REMARK    2  A    between atoms: C8_10  and  N2_11 
ROOT
HETATM    1  C2  UNL     1     -13.941  36.028  96.444  1.00  0.00     0.049 A 
HETATM    2  C3  UNL     1     -12.467  35.619  96.306  1.00  0.00     0.026 C 
HETATM    3  C4  UNL     1     -11.827  36.968  96.529  1.00  0.00     0.018 C 
HETATM    4  C5  UNL     1     -12.578  37.822  95.534  1.00  0.00     0.013 C 
HETATM    5  C6  UNL     1     -14.001  37.378  95.903  1.00  0.00     0.011 A 
HETATM    6  C7  UNL     1     -13.955  37.144  97.396  1.00  0.00     0.039 A 
HETATM    7  C8  UNL     1     -12.513  37.386  97.826  1.00  0.00     0.193 C 
ENDROOT
BRANCH   7   8
HETATM    8  N2  UNL     1     -12.267  38.763  98.140  1.00  0.00    -0.074 N 
ATOM      9  H23 UNL     1     -11.452  39.118  97.639  1.00  0.00     0.274 HD
ATOM     10  H22 UNL     1     -12.981  39.369  97.736  1.00  0.00     0.274 HD
ATOM     11  H21 UNL     1     -12.177  38.914  99.145  1.00  0.00     0.274 HD
ENDBRANCH   7   8
BRANCH   1  12
HETATM   12  C1  UNL     1     -14.981  35.028  96.339  1.00  0.00     0.240 C 
HETATM   13  N1  UNL     1     -16.270  35.368  95.859  1.00  0.00    -0.061 NA
HETATM   14  O1  UNL     1     -14.783  33.830  96.666  1.00  0.00    -0.276 OA
ENDBRANCH   1  12
TORSDOF 2
ENDMDL
