MODEL 1
REMARK VINA RESULT: -4.587313016      0.000      0.000
REMARK  3 active torsions:
REMARK  status: ('A' for Active; 'I' for Inactive)
REMARK    1  A    between atoms: C1_2  and  C2_3 
REMARK       I    between atoms: C1_2  and  N2_11 
REMARK    2  A    between atoms: C2_3  and  C3_4 
REMARK    3  A    between atoms: N2_11  and  C7_13 
ROOT
HETATM    1  C2  UNL     1     -13.445  41.144  91.563  1.00  0.00     0.135 C 
ENDROOT
BRANCH   1   2
HETATM    2  C1  UNL     1     -14.839  41.368  91.119  1.00  0.00     0.219 C 
HETATM    3  O1  UNL     1     -15.075  42.348  90.374  1.00  0.00    -0.274 OA
HETATM    4  N2  UNL     1     -15.866  40.498  91.525  1.00  0.00    -0.356 N 
ATOM      5  H2  UNL     1     -15.658  39.705  92.132  1.00  0.00     0.162 HD
BRANCH   4   6
HETATM    6  C7  UNL     1     -17.220  40.740  91.076  1.00  0.00     0.084 A 
HETATM    7  C8  UNL     1     -17.806  39.874  90.021  1.00  0.00     0.027 A 
HETATM    8  C9  UNL     1     -18.186  39.670  91.468  1.00  0.00     0.027 A 
ENDBRANCH   4   6
ENDBRANCH   1   2
BRANCH   1   9
HETATM    9  C3  UNL     1     -13.052  42.220  92.544  1.00  0.00     0.194 C 
HETATM   10  C4  UNL     1     -11.655  41.883  93.035  1.00  0.00     0.035 C 
HETATM   11  C5  UNL     1     -10.807  42.773  92.149  1.00  0.00     0.029 C 
HETATM   12  C6  UNL     1     -11.664  44.045  92.132  1.00  0.00     0.233 C 
HETATM   13  N1  UNL     1     -12.970  43.490  91.873  1.00  0.00    -0.070 N 
ATOM     14  H12 UNL     1     -13.181  43.425  90.878  1.00  0.00     0.277 HD
ATOM     15  H11 UNL     1     -13.726  44.123  92.132  1.00  0.00     0.277 HD
ENDBRANCH   1   9
TORSDOF 3
ENDMDL
MODEL 2
REMARK VINA RESULT: -4.514266658      5.667      7.467
REMARK  3 active torsions:
REMARK  status: ('A' for Active; 'I' for Inactive)
REMARK    1  A    between atoms: C1_2  and  C2_3 
REMARK       I    between atoms: C1_2  and  N2_11 
REMARK    2  A    between atoms: C2_3  and  C3_4 
REMARK    3  A    between atoms: N2_11  and  C7_13 
ROOT
HETATM    1  C2  UNL     1     -10.599  37.216  95.093  1.00  0.00     0.135 C 
ENDROOT
BRANCH   1   2
HETATM    2  C1  UNL     1     -10.496  38.681  95.270  1.00  0.00     0.219 C 
HETATM    3  O1  UNL     1      -9.762  39.119  96.188  1.00  0.00    -0.274 OA
HETATM    4  N2  UNL     1     -11.206  39.554  94.428  1.00  0.00    -0.356 N 
ATOM      5  H2  UNL     1     -11.800  39.183  93.686  1.00  0.00     0.162 HD
BRANCH   4   6
HETATM    6  C7  UNL     1     -11.088  40.983  94.624  1.00  0.00     0.084 A 
HETATM    7  C8  UNL     1     -11.351  41.901  93.487  1.00  0.00     0.027 A 
HETATM    8  C9  UNL     1     -12.391  41.710  94.564  1.00  0.00     0.027 A 
ENDBRANCH   4   6
ENDBRANCH   1   2
BRANCH   1   9
HETATM    9  C3  UNL     1     -11.344  36.619  96.260  1.00  0.00     0.194 C 
HETATM   10  C4  UNL     1     -12.704  37.293  96.308  1.00  0.00     0.035 C 
HETATM   11  C5  UNL     1     -13.567  36.271  95.597  1.00  0.00     0.029 C 
HETATM   12  C6  UNL     1     -12.988  34.972  96.173  1.00  0.00     0.233 C 
HETATM   13  N1  UNL     1     -11.574  35.218  96.033  1.00  0.00    -0.070 N 
ATOM     14  H12 UNL     1     -11.205  34.898  95.138  1.00  0.00     0.277 HD
ATOM     15  H11 UNL     1     -11.008  34.622  96.636  1.00  0.00     0.277 HD
ENDBRANCH   1   9
TORSDOF 3
ENDMDL
MODEL 3
REMARK VINA RESULT: -4.491167378      2.327      3.576
REMARK  3 active torsions:
REMARK  status: ('A' for Active; 'I' for Inactive)
REMARK    1  A    between atoms: C1_2  and  C2_3 
REMARK       I    between atoms: C1_2  and  N2_11 
REMARK    2  A    between atoms: C2_3  and  C3_4 
REMARK    3  A    between atoms: N2_11  and  C7_13 
ROOT
HETATM    1  C2  UNL     1     -16.855  40.582  90.631  1.00  0.00     0.135 C 
ENDROOT
BRANCH   1   2
HETATM    2  C1  UNL     1     -18.156  41.095  91.116  1.00  0.00     0.219 C 
HETATM    3  O1  UNL     1     -18.351  42.333  91.100  1.00  0.00    -0.274 OA
HETATM    4  N2  UNL     1     -19.143  40.209  91.582  1.00  0.00    -0.356 N 
ATOM      5  H2  UNL     1     -18.971  39.204  91.589  1.00  0.00     0.162 HD
BRANCH   4   6
HETATM    6  C7  UNL     1     -20.406  40.738  92.051  1.00  0.00     0.084 A 
HETATM    7  C8  UNL     1     -21.580  40.744  91.140  1.00  0.00     0.027 A 
HETATM    8  C9  UNL     1     -21.467  39.700  92.225  1.00  0.00     0.027 A 
ENDBRANCH   4   6
ENDBRANCH   1   2
BRANCH   1   9
HETATM    9  C3  UNL     1     -15.748  41.483  91.116  1.00  0.00     0.194 C 
HETATM   10  C4  UNL     1     -15.552  41.188  92.593  1.00  0.00     0.035 C 
HETATM   11  C5  UNL     1     -14.376  40.234  92.551  1.00  0.00     0.029 C 
HETATM   12  C6  UNL     1     -13.521  40.896  91.463  1.00  0.00     0.233 C 
HETATM   13  N1  UNL     1     -14.517  41.150  90.451  1.00  0.00    -0.070 N 
ATOM     14  H12 UNL     1     -14.619  40.377  89.795  1.00  0.00     0.277 HD
ATOM     15  H11 UNL     1     -14.225  41.861  89.781  1.00  0.00     0.277 HD
ENDBRANCH   1   9
TORSDOF 3
ENDMDL
MODEL 4
REMARK VINA RESULT: -4.431431661      2.983      4.312
REMARK  3 active torsions:
REMARK  status: ('A' for Active; 'I' for Inactive)
REMARK    1  A    between atoms: C1_2  and  C2_3 
REMARK       I    between atoms: C1_2  and  N2_11 
REMARK    2  A    between atoms: C2_3  and  C3_4 
REMARK    3  A    between atoms: N2_11  and  C7_13 
ROOT
HETATM    1  C2  UNL     1     -17.355  40.119  90.462  1.00  0.00     0.135 C 
ENDROOT
BRANCH   1   2
HETATM    2  C1  UNL     1     -18.774  40.439  90.731  1.00  0.00     0.219 C 
HETATM    3  O1  UNL     1     -19.401  39.720  91.545  1.00  0.00    -0.274 OA
HETATM    4  N2  UNL     1     -19.397  41.522  90.087  1.00  0.00    -0.356 N 
ATOM      5  H2  UNL     1     -18.874  42.097  89.427  1.00  0.00     0.162 HD
BRANCH   4   6
HETATM    6  C7  UNL     1     -20.786  41.812  90.369  1.00  0.00     0.084 A 
HETATM    7  C8  UNL     1     -21.526  42.763  89.501  1.00  0.00     0.027 A 
HETATM    8  C9  UNL     1     -21.734  41.276  89.346  1.00  0.00     0.027 A 
ENDBRANCH   4   6
ENDBRANCH   1   2
BRANCH   1   9
HETATM    9  C3  UNL     1     -16.483  41.247  90.953  1.00  0.00     0.194 C 
HETATM   10  C4  UNL     1     -16.359  41.087  92.458  1.00  0.00     0.035 C 
HETATM   11  C5  UNL     1     -15.023  40.380  92.571  1.00  0.00     0.029 C 
HETATM   12  C6  UNL     1     -14.222  41.129  91.498  1.00  0.00     0.233 C 
HETATM   13  N1  UNL     1     -15.160  41.121  90.403  1.00  0.00    -0.070 N 
ATOM     14  H12 UNL     1     -15.059  40.304  89.802  1.00  0.00     0.277 HD
ATOM     15  H11 UNL     1     -14.955  41.833  89.702  1.00  0.00     0.277 HD
ENDBRANCH   1   9
TORSDOF 3
ENDMDL
MODEL 5
REMARK VINA RESULT: -4.397242462      3.300      5.540
REMARK  3 active torsions:
REMARK  status: ('A' for Active; 'I' for Inactive)
REMARK    1  A    between atoms: C1_2  and  C2_3 
REMARK       I    between atoms: C1_2  and  N2_11 
REMARK    2  A    between atoms: C2_3  and  C3_4 
REMARK    3  A    between atoms: N2_11  and  C7_13 
ROOT
HETATM    1  C2  UNL     1     -12.131  41.660  92.740  1.00  0.00     0.135 C 
ENDROOT
BRANCH   1   2
HETATM    2  C1  UNL     1     -11.461  41.068  93.919  1.00  0.00     0.219 C 
HETATM    3  O1  UNL     1     -10.737  41.808  94.625  1.00  0.00    -0.274 OA
HETATM    4  N2  UNL     1     -11.636  39.708  94.231  1.00  0.00    -0.356 N 
ATOM      5  H2  UNL     1     -12.227  39.118  93.646  1.00  0.00     0.162 HD
BRANCH   4   6
HETATM    6  C7  UNL     1     -10.968  39.155  95.390  1.00  0.00     0.084 A 
HETATM    7  C8  UNL     1     -11.136  37.715  95.713  1.00  0.00     0.027 A 
HETATM    8  C9  UNL     1      -9.867  38.202  95.054  1.00  0.00     0.027 A 
ENDBRANCH   4   6
ENDBRANCH   1   2
BRANCH   1   9
HETATM    9  C3  UNL     1     -13.393  40.890  92.440  1.00  0.00     0.194 C 
HETATM   10  C4  UNL     1     -14.541  41.659  93.068  1.00  0.00     0.035 C 
HETATM   11  C5  UNL     1     -15.066  42.434  91.877  1.00  0.00     0.029 C 
HETATM   12  C6  UNL     1     -14.958  41.365  90.782  1.00  0.00     0.233 C 
HETATM   13  N1  UNL     1     -13.627  40.864  91.021  1.00  0.00    -0.070 N 
ATOM     14  H12 UNL     1     -12.915  41.369  90.494  1.00  0.00     0.277 HD
ATOM     15  H11 UNL     1     -13.473  39.943  90.612  1.00  0.00     0.277 HD
ENDBRANCH   1   9
TORSDOF 3
ENDMDL
