MODEL 1
REMARK VINA RESULT: -4.792148511      0.000      0.000
REMARK  2 active torsions:
REMARK  status: ('A' for Active; 'I' for Inactive)
REMARK    1  A    between atoms: C2_2  and  C3_3 
REMARK       I    between atoms: C3_3  and  N1_5 
REMARK    2  A    between atoms: N1_5  and  C4_7 
ROOT
HETATM    1  C4  UNL     1     -12.878  37.943  95.816  1.00  0.00     0.084 C 
HETATM    2  C5  UNL     1     -13.012  39.009  94.801  1.00  0.00     0.025 C 
HETATM    3  C6  UNL     1     -12.265  40.275  95.091  1.00  0.00     0.002 C 
HETATM    4  C7  UNL     1     -12.411  40.714  96.546  1.00  0.00     0.000 C 
HETATM    5  C8  UNL     1     -11.848  39.575  97.366  1.00  0.00     0.002 C 
HETATM    6  C9  UNL     1     -12.868  38.462  97.245  1.00  0.00     0.025 C 
ENDROOT
BRANCH   1   7
HETATM    7  N1  UNL     1     -13.931  36.974  95.616  1.00  0.00    -0.353 N 
HETATM    8  C3  UNL     1     -13.619  35.592  95.654  1.00  0.00     0.240 C 
HETATM    9  O1  UNL     1     -12.447  35.171  95.857  1.00  0.00    -0.269 OA
ATOM     10  H1  UNL     1     -14.888  37.281  95.449  1.00  0.00     0.163 HD
BRANCH   8  11
HETATM   11  C2  UNL     1     -14.675  34.618  95.454  1.00  0.00     0.064 C 
HETATM   12  C1  UNL     1     -15.492  34.696  94.415  1.00  0.00     0.017 C 
ENDBRANCH   8  11
ENDBRANCH   1   7
TORSDOF 2
ENDMDL
MODEL 2
REMARK VINA RESULT: -4.582165328      6.645      7.818
REMARK  2 active torsions:
REMARK  status: ('A' for Active; 'I' for Inactive)
REMARK    1  A    between atoms: C2_2  and  C3_3 
REMARK       I    between atoms: C3_3  and  N1_5 
REMARK    2  A    between atoms: N1_5  and  C4_7 
ROOT
HETATM    1  C4  UNL     1     -18.815  40.516  93.112  1.00  0.00     0.084 C 
HETATM    2  C5  UNL     1     -19.098  41.210  94.387  1.00  0.00     0.025 C 
HETATM    3  C6  UNL     1     -20.488  41.042  94.919  1.00  0.00     0.002 C 
HETATM    4  C7  UNL     1     -21.548  41.186  93.830  1.00  0.00     0.000 C 
HETATM    5  C8  UNL     1     -21.239  40.099  92.824  1.00  0.00     0.002 C 
HETATM    6  C9  UNL     1     -19.974  40.557  92.128  1.00  0.00     0.025 C 
ENDROOT
BRANCH   1   7
HETATM    7  N1  UNL     1     -17.615  41.074  92.534  1.00  0.00    -0.353 N 
HETATM    8  C3  UNL     1     -16.448  40.273  92.451  1.00  0.00     0.240 C 
HETATM    9  O1  UNL     1     -16.416  39.083  92.867  1.00  0.00    -0.269 OA
ATOM     10  H1  UNL     1     -17.606  42.033  92.190  1.00  0.00     0.163 HD
BRANCH   8  11
HETATM   11  C2  UNL     1     -15.241  40.831  91.871  1.00  0.00     0.064 C 
HETATM   12  C1  UNL     1     -15.273  41.492  90.724  1.00  0.00     0.017 C 
ENDBRANCH   8  11
ENDBRANCH   1   7
TORSDOF 2
ENDMDL
MODEL 3
REMARK VINA RESULT: -4.484890126      6.027      7.408
REMARK  2 active torsions:
REMARK  status: ('A' for Active; 'I' for Inactive)
REMARK    1  A    between atoms: C2_2  and  C3_3 
REMARK       I    between atoms: C3_3  and  N1_5 
REMARK    2  A    between atoms: N1_5  and  C4_7 
ROOT
HETATM    1  C4  UNL     1     -18.258  40.069  92.951  1.00  0.00     0.084 C 
HETATM    2  C5  UNL     1     -19.019  40.916  93.894  1.00  0.00     0.025 C 
HETATM    3  C6  UNL     1     -20.495  40.662  93.944  1.00  0.00     0.002 C 
HETATM    4  C7  UNL     1     -21.102  40.497  92.553  1.00  0.00     0.000 C 
HETATM    5  C8  UNL     1     -20.389  39.311  91.943  1.00  0.00     0.002 C 
HETATM    6  C9  UNL     1     -18.989  39.807  91.644  1.00  0.00     0.025 C 
ENDROOT
BRANCH   1   7
HETATM    7  N1  UNL     1     -16.967  40.673  92.719  1.00  0.00    -0.353 N 
HETATM    8  C3  UNL     1     -15.801  39.872  92.806  1.00  0.00     0.240 C 
HETATM    9  O1  UNL     1     -15.846  38.642  93.080  1.00  0.00    -0.269 OA
ATOM     10  H1  UNL     1     -16.895  41.665  92.496  1.00  0.00     0.163 HD
BRANCH   8  11
HETATM   11  C2  UNL     1     -14.503  40.477  92.574  1.00  0.00     0.064 C 
HETATM   12  C1  UNL     1     -14.216  41.067  91.424  1.00  0.00     0.017 C 
ENDBRANCH   8  11
ENDBRANCH   1   7
TORSDOF 2
ENDMDL
MODEL 4
REMARK VINA RESULT: -4.447212841      8.234      9.553
REMARK  2 active torsions:
REMARK  status: ('A' for Active; 'I' for Inactive)
REMARK    1  A    between atoms: C2_2  and  C3_3 
REMARK       I    between atoms: C3_3  and  N1_5 
REMARK    2  A    between atoms: N1_5  and  C4_7 
ROOT
HETATM    1  C4  UNL     1     -19.773  40.977  90.692  1.00  0.00     0.084 C 
HETATM    2  C5  UNL     1     -20.242  40.324  91.933  1.00  0.00     0.025 C 
HETATM    3  C6  UNL     1     -21.721  40.099  92.025  1.00  0.00     0.002 C 
HETATM    4  C7  UNL     1     -22.522  41.313  91.563  1.00  0.00     0.000 C 
HETATM    5  C8  UNL     1     -22.116  41.537  90.123  1.00  0.00     0.002 C 
HETATM    6  C9  UNL     1     -20.701  42.072  90.194  1.00  0.00     0.025 C 
ENDROOT
BRANCH   1   7
HETATM    7  N1  UNL     1     -18.435  41.478  90.906  1.00  0.00    -0.353 N 
HETATM    8  C3  UNL     1     -17.327  40.687  90.513  1.00  0.00     0.240 C 
HETATM    9  O1  UNL     1     -17.463  39.552  89.979  1.00  0.00    -0.269 OA
ATOM     10  H1  UNL     1     -18.290  42.391  91.336  1.00  0.00     0.163 HD
BRANCH   8  11
HETATM   11  C2  UNL     1     -15.982  41.189  90.727  1.00  0.00     0.064 C 
HETATM   12  C1  UNL     1     -15.766  42.453  91.054  1.00  0.00     0.017 C 
ENDBRANCH   8  11
ENDBRANCH   1   7
TORSDOF 2
ENDMDL
MODEL 5
REMARK VINA RESULT: -4.383901205      6.318      7.512
REMARK  2 active torsions:
REMARK  status: ('A' for Active; 'I' for Inactive)
REMARK    1  A    between atoms: C2_2  and  C3_3 
REMARK       I    between atoms: C3_3  and  N1_5 
REMARK    2  A    between atoms: N1_5  and  C4_7 
ROOT
HETATM    1  C4  UNL     1     -18.589  40.225  92.634  1.00  0.00     0.084 C 
HETATM    2  C5  UNL     1     -19.323  39.515  91.565  1.00  0.00     0.025 C 
HETATM    3  C6  UNL     1     -20.759  39.908  91.396  1.00  0.00     0.002 C 
HETATM    4  C7  UNL     1     -21.485  40.038  92.733  1.00  0.00     0.000 C 
HETATM    5  C8  UNL     1     -20.736  41.110  93.493  1.00  0.00     0.002 C 
HETATM    6  C9  UNL     1     -19.421  40.468  93.883  1.00  0.00     0.025 C 
ENDROOT
BRANCH   1   7
HETATM    7  N1  UNL     1     -17.384  39.490  92.940  1.00  0.00    -0.353 N 
HETATM    8  C3  UNL     1     -16.125  40.114  92.757  1.00  0.00     0.240 C 
HETATM    9  O1  UNL     1     -16.014  41.297  92.332  1.00  0.00    -0.269 OA
ATOM     10  H1  UNL     1     -17.439  38.532  93.284  1.00  0.00     0.163 HD
BRANCH   8  11
HETATM   11  C2  UNL     1     -14.913  39.377  93.064  1.00  0.00     0.064 C 
HETATM   12  C1  UNL     1     -13.725  39.957  93.006  1.00  0.00     0.017 C 
ENDBRANCH   8  11
ENDBRANCH   1   7
TORSDOF 2
ENDMDL
