MODEL 1
REMARK VINA RESULT: -4.620417629      0.000      0.000
REMARK  4 active torsions:
REMARK  status: ('A' for Active; 'I' for Inactive)
REMARK    1  A    between atoms: N1_1  and  C1_5 
REMARK    2  A    between atoms: C1_5  and  C2_6 
REMARK    3  A    between atoms: C1_5  and  C6_13 
REMARK       I    between atoms: C2_6  and  N2_8 
REMARK    4  A    between atoms: N2_8  and  C3_10 
ROOT
HETATM    1  C1  UNL     1     -13.422  41.053  91.486  1.00  0.00     0.278 C 
ENDROOT
BRANCH   1   2
HETATM    2  N1  UNL     1     -13.494  39.787  92.230  1.00  0.00    -0.066 N 
ATOM      3  H13 UNL     1     -12.583  39.448  92.540  1.00  0.00     0.275 HD
ATOM      4  H12 UNL     1     -13.915  39.885  93.155  1.00  0.00     0.275 HD
ATOM      5  H11 UNL     1     -13.988  39.125  91.631  1.00  0.00     0.275 HD
ENDBRANCH   1   2
BRANCH   1   6
HETATM    6  C2  UNL     1     -14.813  41.409  91.124  1.00  0.00     0.248 C 
HETATM    7  O1  UNL     1     -15.120  42.512  90.586  1.00  0.00    -0.271 OA
HETATM    8  N2  UNL     1     -15.868  40.501  91.376  1.00  0.00    -0.355 N 
ATOM      9  H2  UNL     1     -15.646  39.605  91.809  1.00  0.00     0.162 HD
BRANCH   8  10
HETATM   10  C3  UNL     1     -17.251  40.786  91.045  1.00  0.00     0.084 A 
HETATM   11  C4  UNL     1     -18.326  39.828  91.388  1.00  0.00     0.027 A 
HETATM   12  C5  UNL     1     -17.857  39.852  89.986  1.00  0.00     0.027 A 
ENDBRANCH   8  10
ENDBRANCH   1   6
BRANCH   1  13
HETATM   13  C6  UNL     1     -12.796  42.048  92.435  1.00  0.00     0.025 C 
HETATM   14  C7  UNL     1     -12.457  41.359  93.746  1.00  0.00     0.007 C 
HETATM   15  C8  UNL     1     -11.097  42.029  93.746  1.00  0.00     0.001 C 
HETATM   16  C9  UNL     1     -11.316  42.284  92.247  1.00  0.00     0.007 C 
ENDBRANCH   1  13
TORSDOF 4
ENDMDL
MODEL 2
REMARK VINA RESULT: -4.611148169      1.813      5.417
REMARK  4 active torsions:
REMARK  status: ('A' for Active; 'I' for Inactive)
REMARK    1  A    between atoms: N1_1  and  C1_5 
REMARK    2  A    between atoms: C1_5  and  C2_6 
REMARK    3  A    between atoms: C1_5  and  C6_13 
REMARK       I    between atoms: C2_6  and  N2_8 
REMARK    4  A    between atoms: N2_8  and  C3_10 
ROOT
HETATM    1  C1  UNL     1     -14.951  41.234  91.648  1.00  0.00     0.278 C 
ENDROOT
BRANCH   1   2
HETATM    2  N1  UNL     1     -14.696  41.275  90.200  1.00  0.00    -0.066 N 
ATOM      3  H13 UNL     1     -14.846  40.377  89.738  1.00  0.00     0.275 HD
ATOM      4  H12 UNL     1     -15.397  41.803  89.681  1.00  0.00     0.275 HD
ATOM      5  H11 UNL     1     -13.749  41.636  90.081  1.00  0.00     0.275 HD
ENDBRANCH   1   2
BRANCH   1   6
HETATM    6  C2  UNL     1     -14.325  42.447  92.220  1.00  0.00     0.248 C 
HETATM    7  O1  UNL     1     -14.977  43.312  92.873  1.00  0.00    -0.271 OA
HETATM    8  N2  UNL     1     -12.940  42.682  92.048  1.00  0.00    -0.355 N 
ATOM      9  H2  UNL     1     -12.392  41.999  91.525  1.00  0.00     0.162 HD
BRANCH   8  10
HETATM   10  C3  UNL     1     -12.264  43.848  92.583  1.00  0.00     0.084 A 
HETATM   11  C4  UNL     1     -11.636  44.841  91.682  1.00  0.00     0.027 A 
HETATM   12  C5  UNL     1     -10.746  43.866  92.348  1.00  0.00     0.027 A 
ENDBRANCH   8  10
ENDBRANCH   1   6
BRANCH   1  13
HETATM   13  C6  UNL     1     -16.454  41.229  91.796  1.00  0.00     0.025 C 
HETATM   14  C7  UNL     1     -17.080  40.488  90.628  1.00  0.00     0.007 C 
HETATM   15  C8  UNL     1     -17.993  39.749  91.586  1.00  0.00     0.001 C 
HETATM   16  C9  UNL     1     -17.016  40.157  92.699  1.00  0.00     0.007 C 
ENDBRANCH   1  13
TORSDOF 4
ENDMDL
MODEL 3
REMARK VINA RESULT: -4.577125444      2.846      3.679
REMARK  4 active torsions:
REMARK  status: ('A' for Active; 'I' for Inactive)
REMARK    1  A    between atoms: N1_1  and  C1_5 
REMARK    2  A    between atoms: C1_5  and  C2_6 
REMARK    3  A    between atoms: C1_5  and  C6_13 
REMARK       I    between atoms: C2_6  and  N2_8 
REMARK    4  A    between atoms: N2_8  and  C3_10 
ROOT
HETATM    1  C1  UNL     1     -11.957  44.627  92.563  1.00  0.00     0.278 C 
ENDROOT
BRANCH   1   2
HETATM    2  N1  UNL     1     -12.043  45.092  91.171  1.00  0.00    -0.066 N 
ATOM      3  H13 UNL     1     -12.162  44.334  90.498  1.00  0.00     0.275 HD
ATOM      4  H12 UNL     1     -12.913  45.584  90.963  1.00  0.00     0.275 HD
ATOM      5  H11 UNL     1     -11.210  45.656  91.000  1.00  0.00     0.275 HD
ENDBRANCH   1   2
BRANCH   1   6
HETATM    6  C2  UNL     1     -13.112  43.727  92.779  1.00  0.00     0.248 C 
HETATM    7  O1  UNL     1     -13.597  43.497  93.924  1.00  0.00    -0.271 OA
HETATM    8  N2  UNL     1     -13.723  43.078  91.681  1.00  0.00    -0.355 N 
ATOM      9  H2  UNL     1     -13.350  43.246  90.747  1.00  0.00     0.162 HD
BRANCH   8  10
HETATM   10  C3  UNL     1     -14.857  42.185  91.822  1.00  0.00     0.084 A 
HETATM   11  C4  UNL     1     -15.395  41.450  90.656  1.00  0.00     0.027 A 
HETATM   12  C5  UNL     1     -16.130  42.654  91.100  1.00  0.00     0.027 A 
ENDBRANCH   8  10
ENDBRANCH   1   6
BRANCH   1  13
HETATM   13  C6  UNL     1     -10.631  43.909  92.671  1.00  0.00     0.025 C 
HETATM   14  C7  UNL     1      -9.505  44.925  92.729  1.00  0.00     0.007 C 
HETATM   15  C8  UNL     1      -8.869  44.154  93.869  1.00  0.00     0.001 C 
HETATM   16  C9  UNL     1     -10.235  43.479  94.063  1.00  0.00     0.007 C 
ENDBRANCH   1  13
TORSDOF 4
ENDMDL
MODEL 4
REMARK VINA RESULT: -4.546838967      6.192      6.991
REMARK  4 active torsions:
REMARK  status: ('A' for Active; 'I' for Inactive)
REMARK    1  A    between atoms: N1_1  and  C1_5 
REMARK    2  A    between atoms: C1_5  and  C2_6 
REMARK    3  A    between atoms: C1_5  and  C6_13 
REMARK       I    between atoms: C2_6  and  N2_8 
REMARK    4  A    between atoms: N2_8  and  C3_10 
ROOT
HETATM    1  C1  UNL     1     -20.450  40.375  92.560  1.00  0.00     0.278 C 
ENDROOT
BRANCH   1   2
HETATM    2  N1  UNL     1     -21.812  39.819  92.527  1.00  0.00    -0.066 N 
ATOM      3  H13 UNL     1     -22.538  40.534  92.480  1.00  0.00     0.275 HD
ATOM      4  H12 UNL     1     -22.036  39.352  91.649  1.00  0.00     0.275 HD
ATOM      5  H11 UNL     1     -21.897  39.211  93.341  1.00  0.00     0.275 HD
ENDBRANCH   1   2
BRANCH   1   6
HETATM    6  C2  UNL     1     -20.169  40.881  91.198  1.00  0.00     0.248 C 
HETATM    7  O1  UNL     1     -19.078  40.660  90.596  1.00  0.00    -0.271 OA
HETATM    8  N2  UNL     1     -21.138  41.648  90.510  1.00  0.00    -0.355 N 
ATOM      9  H2  UNL     1     -22.025  41.840  90.973  1.00  0.00     0.162 HD
BRANCH   8  10
HETATM   10  C3  UNL     1     -20.927  42.174  89.174  1.00  0.00     0.084 A 
HETATM   11  C4  UNL     1     -22.036  42.801  88.421  1.00  0.00     0.027 A 
HETATM   12  C5  UNL     1     -21.671  41.412  88.066  1.00  0.00     0.027 A 
ENDBRANCH   8  10
ENDBRANCH   1   6
BRANCH   1  13
HETATM   13  C6  UNL     1     -20.484  41.475  93.594  1.00  0.00     0.025 C 
HETATM   14  C7  UNL     1     -21.633  41.235  94.557  1.00  0.00     0.007 C 
HETATM   15  C8  UNL     1     -20.717  41.545  95.726  1.00  0.00     0.001 C 
HETATM   16  C9  UNL     1     -19.545  41.298  94.764  1.00  0.00     0.007 C 
ENDBRANCH   1  13
TORSDOF 4
ENDMDL
MODEL 5
REMARK VINA RESULT: -4.544359210      2.241      6.303
REMARK  4 active torsions:
REMARK  status: ('A' for Active; 'I' for Inactive)
REMARK    1  A    between atoms: N1_1  and  C1_5 
REMARK    2  A    between atoms: C1_5  and  C2_6 
REMARK    3  A    between atoms: C1_5  and  C6_13 
REMARK       I    between atoms: C2_6  and  N2_8 
REMARK    4  A    between atoms: N2_8  and  C3_10 
ROOT
HETATM    1  C1  UNL     1     -18.388  39.828  91.081  1.00  0.00     0.278 C 
ENDROOT
BRANCH   1   2
HETATM    2  N1  UNL     1     -18.208  40.891  90.081  1.00  0.00    -0.066 N 
ATOM      3  H13 UNL     1     -17.721  41.710  90.445  1.00  0.00     0.275 HD
ATOM      4  H12 UNL     1     -17.531  40.652  89.356  1.00  0.00     0.275 HD
ATOM      5  H11 UNL     1     -19.135  41.104  89.712  1.00  0.00     0.275 HD
ENDBRANCH   1   2
BRANCH   1   6
HETATM    6  C2  UNL     1     -17.163  39.819  91.912  1.00  0.00     0.248 C 
HETATM    7  O1  UNL     1     -17.085  39.197  93.010  1.00  0.00    -0.271 OA
HETATM    8  N2  UNL     1     -16.013  40.526  91.491  1.00  0.00    -0.355 N 
ATOM      9  H2  UNL     1     -16.051  41.036  90.609  1.00  0.00     0.162 HD
BRANCH   8  10
HETATM   10  C3  UNL     1     -14.781  40.559  92.256  1.00  0.00     0.084 A 
HETATM   11  C4  UNL     1     -14.031  41.822  92.434  1.00  0.00     0.027 A 
HETATM   12  C5  UNL     1     -13.525  40.866  91.425  1.00  0.00     0.027 A 
ENDBRANCH   8  10
ENDBRANCH   1   6
BRANCH   1  13
HETATM   13  C6  UNL     1     -19.621  40.213  91.866  1.00  0.00     0.025 C 
HETATM   14  C7  UNL     1     -20.408  41.260  91.098  1.00  0.00     0.007 C 
HETATM   15  C8  UNL     1     -21.692  40.506  91.387  1.00  0.00     0.001 C 
HETATM   16  C9  UNL     1     -20.807  39.292  91.707  1.00  0.00     0.007 C 
ENDBRANCH   1  13
TORSDOF 4
ENDMDL
