MODEL 1
REMARK VINA RESULT: -5.545381375      0.000      0.000
REMARK  4 active torsions:
REMARK  status: ('A' for Active; 'I' for Inactive)
REMARK    1  A    between atoms: C2_2  and  O1_3 
REMARK    2  A    between atoms: C2_2  and  C3_5 
REMARK    3  A    between atoms: C8_10  and  C9_11 
REMARK    4  A    between atoms: C9_11  and  C10_12 
ROOT
HETATM    1  C3  UNL     1     -12.349  37.353  96.425  1.00  0.00     0.019 C 
HETATM    2  C4  UNL     1     -12.126  38.770  96.007  1.00  0.00     0.013 C 
HETATM    3  C5  UNL     1     -12.182  39.766  97.111  1.00  0.00    -0.001 A 
HETATM    4  C6  UNL     1     -13.171  39.530  98.154  1.00  0.00    -0.001 A 
HETATM    5  C7  UNL     1     -13.978  38.297  98.123  1.00  0.00     0.011 C 
HETATM    6  C8  UNL     1     -13.493  37.137  97.358  1.00  0.00     0.001 C 
HETATM    7  C11 UNL     1     -13.399  40.646  97.173  1.00  0.00    -0.040 A 
HETATM    8  C12 UNL     1     -13.158  42.085  97.665  1.00  0.00     0.015 C 
HETATM    9  C13 UNL     1     -14.459  40.569  96.137  1.00  0.00     0.015 C 
ENDROOT
BRANCH   1  10
HETATM   10  C2  UNL     1     -11.084  36.844  97.103  1.00  0.00     0.118 C 
HETATM   11  C1  UNL     1      -9.864  37.118  96.246  1.00  0.00     0.040 C 
BRANCH  10  12
HETATM   12  O1  UNL     1     -11.132  35.477  97.324  1.00  0.00    -0.396 OA
ATOM     13  H1  UNL     1     -11.844  35.314  97.931  1.00  0.00     0.210 HD
ENDBRANCH  10  12
ENDBRANCH   1  10
BRANCH   6  14
HETATM   14  C9  UNL     1     -14.639  36.561  96.548  1.00  0.00     0.104 C 
BRANCH  14  15
HETATM   15  C10 UNL     1     -14.783  35.099  96.661  1.00  0.00     0.231 C 
HETATM   16  N1  UNL     1     -16.062  34.573  96.287  1.00  0.00    -0.062 NA
HETATM   17  O2  UNL     1     -13.920  34.291  97.041  1.00  0.00    -0.277 OA
ENDBRANCH  14  15
ENDBRANCH   6  14
TORSDOF 4
ENDMDL
MODEL 2
REMARK VINA RESULT: -5.541688322      8.819     10.939
REMARK  4 active torsions:
REMARK  status: ('A' for Active; 'I' for Inactive)
REMARK    1  A    between atoms: C2_2  and  O1_3 
REMARK    2  A    between atoms: C2_2  and  C3_5 
REMARK    3  A    between atoms: C8_10  and  C9_11 
REMARK    4  A    between atoms: C9_11  and  C10_12 
ROOT
HETATM    1  C3  UNL     1     -22.106  42.133  94.540  1.00  0.00     0.019 C 
HETATM    2  C4  UNL     1     -21.891  42.521  93.113  1.00  0.00     0.013 C 
HETATM    3  C5  UNL     1     -22.659  41.719  92.122  1.00  0.00    -0.001 A 
HETATM    4  C6  UNL     1     -22.810  40.299  92.407  1.00  0.00    -0.001 A 
HETATM    5  C7  UNL     1     -22.298  39.755  93.677  1.00  0.00     0.011 C 
HETATM    6  C8  UNL     1     -22.072  40.666  94.812  1.00  0.00     0.001 C 
HETATM    7  C11 UNL     1     -21.884  40.726  91.303  1.00  0.00    -0.040 A 
HETATM    8  C12 UNL     1     -22.369  40.532  89.854  1.00  0.00     0.015 C 
HETATM    9  C13 UNL     1     -20.410  40.605  91.430  1.00  0.00     0.015 C 
ENDROOT
BRANCH   1  10
HETATM   10  C2  UNL     1     -23.461  42.665  94.987  1.00  0.00     0.118 C 
HETATM   11  C1  UNL     1     -23.302  43.671  96.109  1.00  0.00     0.040 C 
BRANCH  10  12
HETATM   12  O1  UNL     1     -24.282  41.652  95.456  1.00  0.00    -0.396 OA
ATOM     13  H1  UNL     1     -25.180  41.929  95.317  1.00  0.00     0.210 HD
ENDBRANCH  10  12
ENDBRANCH   1  10
BRANCH   6  14
HETATM   14  C9  UNL     1     -20.728  40.351  95.442  1.00  0.00     0.104 C 
BRANCH  14  15
HETATM   15  C10 UNL     1     -20.428  41.140  96.650  1.00  0.00     0.231 C 
HETATM   16  N1  UNL     1     -19.263  41.969  96.574  1.00  0.00    -0.062 NA
HETATM   17  O2  UNL     1     -21.075  41.156  97.711  1.00  0.00    -0.277 OA
ENDBRANCH  14  15
ENDBRANCH   6  14
TORSDOF 4
ENDMDL
MODEL 3
REMARK VINA RESULT: -5.325148140      7.089      8.689
REMARK  4 active torsions:
REMARK  status: ('A' for Active; 'I' for Inactive)
REMARK    1  A    between atoms: C2_2  and  O1_3 
REMARK    2  A    between atoms: C2_2  and  C3_5 
REMARK    3  A    between atoms: C8_10  and  C9_11 
REMARK    4  A    between atoms: C9_11  and  C10_12 
ROOT
HETATM    1  C3  UNL     1     -19.045  39.239  94.057  1.00  0.00     0.019 C 
HETATM    2  C4  UNL     1     -19.942  38.750  92.967  1.00  0.00     0.013 C 
HETATM    3  C5  UNL     1     -20.257  39.754  91.915  1.00  0.00    -0.001 A 
HETATM    4  C6  UNL     1     -20.443  41.129  92.359  1.00  0.00    -0.001 A 
HETATM    5  C7  UNL     1     -20.216  41.471  93.774  1.00  0.00     0.011 C 
HETATM    6  C8  UNL     1     -19.387  40.584  94.607  1.00  0.00     0.001 C 
HETATM    7  C11 UNL     1     -21.643  40.336  91.922  1.00  0.00    -0.040 A 
HETATM    8  C12 UNL     1     -22.240  40.655  90.540  1.00  0.00     0.015 C 
HETATM    9  C13 UNL     1     -22.667  39.874  92.892  1.00  0.00     0.015 C 
ENDROOT
BRANCH   1  10
HETATM   10  C2  UNL     1     -17.620  39.296  93.522  1.00  0.00     0.118 C 
HETATM   11  C1  UNL     1     -16.739  38.282  94.224  1.00  0.00     0.040 C 
BRANCH  10  12
HETATM   12  O1  UNL     1     -17.047  40.543  93.716  1.00  0.00    -0.396 OA
ATOM     13  H1  UNL     1     -16.892  40.919  92.857  1.00  0.00     0.210 HD
ENDBRANCH  10  12
ENDBRANCH   1  10
BRANCH   6  14
HETATM   14  C9  UNL     1     -20.074  40.368  95.942  1.00  0.00     0.104 C 
BRANCH  14  15
HETATM   15  C10 UNL     1     -19.946  41.499  96.877  1.00  0.00     0.231 C 
HETATM   16  N1  UNL     1     -18.755  42.282  96.741  1.00  0.00    -0.062 NA
HETATM   17  O2  UNL     1     -20.755  41.835  97.758  1.00  0.00    -0.277 OA
ENDBRANCH  14  15
ENDBRANCH   6  14
TORSDOF 4
ENDMDL
MODEL 4
REMARK VINA RESULT: -5.292008933      6.514      8.282
REMARK  4 active torsions:
REMARK  status: ('A' for Active; 'I' for Inactive)
REMARK    1  A    between atoms: C2_2  and  O1_3 
REMARK    2  A    between atoms: C2_2  and  C3_5 
REMARK    3  A    between atoms: C8_10  and  C9_11 
REMARK    4  A    between atoms: C9_11  and  C10_12 
ROOT
HETATM    1  C3  UNL     1     -16.825  40.805  93.422  1.00  0.00     0.019 C 
HETATM    2  C4  UNL     1     -17.410  39.484  93.802  1.00  0.00     0.013 C 
HETATM    3  C5  UNL     1     -18.526  39.019  92.934  1.00  0.00    -0.001 A 
HETATM    4  C6  UNL     1     -19.449  40.040  92.455  1.00  0.00    -0.001 A 
HETATM    5  C7  UNL     1     -19.184  41.457  92.756  1.00  0.00     0.011 C 
HETATM    6  C8  UNL     1     -17.818  41.876  93.112  1.00  0.00     0.001 C 
HETATM    7  C11 UNL     1     -19.911  39.081  93.516  1.00  0.00    -0.040 A 
HETATM    8  C12 UNL     1     -20.866  37.952  93.086  1.00  0.00     0.015 C 
HETATM    9  C13 UNL     1     -20.140  39.518  94.915  1.00  0.00     0.015 C 
ENDROOT
BRANCH   1  10
HETATM   10  C2  UNL     1     -15.944  40.609  92.195  1.00  0.00     0.118 C 
HETATM   11  C1  UNL     1     -14.540  40.205  92.598  1.00  0.00     0.040 C 
BRANCH  10  12
HETATM   12  O1  UNL     1     -15.838  41.771  91.446  1.00  0.00    -0.396 OA
ATOM     13  H1  UNL     1     -15.268  41.581  90.711  1.00  0.00     0.210 HD
ENDBRANCH  10  12
ENDBRANCH   1  10
BRANCH   6  14
HETATM   14  C9  UNL     1     -17.877  42.802  94.312  1.00  0.00     0.104 C 
BRANCH  14  15
HETATM   15  C10 UNL     1     -17.057  44.018  94.178  1.00  0.00     0.231 C 
HETATM   16  N1  UNL     1     -16.662  44.353  92.843  1.00  0.00    -0.062 NA
HETATM   17  O2  UNL     1     -16.682  44.769  95.094  1.00  0.00    -0.277 OA
ENDBRANCH  14  15
ENDBRANCH   6  14
TORSDOF 4
ENDMDL
MODEL 5
REMARK VINA RESULT: -5.245839444      7.934      9.828
REMARK  4 active torsions:
REMARK  status: ('A' for Active; 'I' for Inactive)
REMARK    1  A    between atoms: C2_2  and  O1_3 
REMARK    2  A    between atoms: C2_2  and  C3_5 
REMARK    3  A    between atoms: C8_10  and  C9_11 
REMARK    4  A    between atoms: C9_11  and  C10_12 
ROOT
HETATM    1  C3  UNL     1     -21.217  41.011  93.450  1.00  0.00     0.019 C 
HETATM    2  C4  UNL     1     -19.861  40.747  92.880  1.00  0.00     0.013 C 
HETATM    3  C5  UNL     1     -19.255  39.447  93.278  1.00  0.00    -0.001 A 
HETATM    4  C6  UNL     1     -19.498  39.005  94.644  1.00  0.00    -0.001 A 
HETATM    5  C7  UNL     1     -20.391  39.790  95.514  1.00  0.00     0.011 C 
HETATM    6  C8  UNL     1     -21.366  40.709  94.904  1.00  0.00     0.001 C 
HETATM    7  C11 UNL     1     -18.128  39.497  94.271  1.00  0.00    -0.040 A 
HETATM    8  C12 UNL     1     -17.022  38.443  94.079  1.00  0.00     0.015 C 
HETATM    9  C13 UNL     1     -17.601  40.790  94.774  1.00  0.00     0.015 C 
ENDROOT
BRANCH   1  10
HETATM   10  C2  UNL     1     -22.233  40.172  92.687  1.00  0.00     0.118 C 
HETATM   11  C1  UNL     1     -22.296  40.592  91.232  1.00  0.00     0.040 C 
BRANCH  10  12
HETATM   12  O1  UNL     1     -23.510  40.308  93.209  1.00  0.00    -0.396 OA
ATOM     13  H1  UNL     1     -23.917  39.450  93.186  1.00  0.00     0.210 HD
ENDBRANCH  10  12
ENDBRANCH   1  10
BRANCH   6  14
HETATM   14  C9  UNL     1     -21.337  42.031  95.648  1.00  0.00     0.104 C 
BRANCH  14  15
HETATM   15  C10 UNL     1     -22.506  42.892  95.396  1.00  0.00     0.231 C 
HETATM   16  N1  UNL     1     -22.255  44.301  95.431  1.00  0.00    -0.062 NA
HETATM   17  O2  UNL     1     -23.668  42.522  95.159  1.00  0.00    -0.277 OA
ENDBRANCH  14  15
ENDBRANCH   6  14
TORSDOF 4
ENDMDL
