MODEL 1
REMARK VINA RESULT: -5.914786139      0.000      0.000
REMARK  3 active torsions:
REMARK  status: ('A' for Active; 'I' for Inactive)
REMARK    1  A    between atoms: C2_2  and  N1_3 
REMARK    2  A    between atoms: C2_2  and  C4_8 
REMARK       I    between atoms: N1_3  and  C3_5 
REMARK    3  A    between atoms: C4_8  and  C6_10 
ROOT
HETATM    1  C4  UNL     1     -19.921  39.137  94.281  1.00  0.00     0.013 C 
HETATM    2  C5  UNL     1     -20.729  38.688  93.055  1.00  0.00     0.012 C 
ENDROOT
BRANCH   1   3
HETATM    3  C2  UNL     1     -18.525  39.270  93.792  1.00  0.00     0.086 C 
HETATM    4  C1  UNL     1     -18.545  38.957  92.262  1.00  0.00     0.032 C 
BRANCH   3   5
HETATM    5  N1  UNL     1     -17.615  38.227  94.285  1.00  0.00    -0.341 N 
HETATM    6  C3  UNL     1     -16.256  38.551  94.533  1.00  0.00     0.329 C 
HETATM    7  N2  UNL     1     -15.392  37.537  95.007  1.00  0.00    -0.040 NA
HETATM    8  O1  UNL     1     -15.787  39.700  94.349  1.00  0.00    -0.251 OA
ATOM      9  H1  UNL     1     -17.957  37.280  94.447  1.00  0.00     0.164 HD
ENDBRANCH   3   5
ENDBRANCH   1   3
BRANCH   1  10
HETATM   10  C6  UNL     1     -20.561  40.308  94.897  1.00  0.00    -0.030 C 
HETATM   11  C7  UNL     1     -19.630  41.037  95.869  1.00  0.00     0.015 C 
HETATM   12  C8  UNL     1     -20.551  41.412  96.978  1.00  0.00    -0.013 C 
HETATM   13  C9  UNL     1     -21.567  42.378  96.399  1.00  0.00     0.010 C 
HETATM   14  C13 UNL     1     -21.424  40.152  97.084  1.00  0.00     0.010 C 
HETATM   15  C10 UNL     1     -22.200  41.507  95.337  1.00  0.00    -0.009 C 
HETATM   16  C11 UNL     1     -21.283  41.328  94.105  1.00  0.00     0.015 C 
HETATM   17  C12 UNL     1     -21.842  40.073  95.655  1.00  0.00    -0.001 C 
ENDBRANCH   1  10
TORSDOF 3
ENDMDL
MODEL 2
REMARK VINA RESULT: -5.876777160      4.603      5.746
REMARK  3 active torsions:
REMARK  status: ('A' for Active; 'I' for Inactive)
REMARK    1  A    between atoms: C2_2  and  N1_3 
REMARK    2  A    between atoms: C2_2  and  C4_8 
REMARK       I    between atoms: N1_3  and  C3_5 
REMARK    3  A    between atoms: C4_8  and  C6_10 
ROOT
HETATM    1  C4  UNL     1     -21.495  40.786  90.668  1.00  0.00     0.013 C 
HETATM    2  C5  UNL     1     -22.866  40.192  90.318  1.00  0.00     0.012 C 
ENDROOT
BRANCH   1   3
HETATM    3  C2  UNL     1     -21.544  42.183  90.168  1.00  0.00     0.086 C 
HETATM    4  C1  UNL     1     -23.045  42.614  90.159  1.00  0.00     0.032 C 
BRANCH   3   5
HETATM    5  N1  UNL     1     -21.200  42.322  88.746  1.00  0.00    -0.341 N 
HETATM    6  C3  UNL     1     -20.635  43.539  88.283  1.00  0.00     0.329 C 
HETATM    7  N2  UNL     1     -20.309  43.657  86.913  1.00  0.00    -0.040 NA
HETATM    8  O1  UNL     1     -20.412  44.515  89.039  1.00  0.00    -0.251 OA
ATOM      9  H1  UNL     1     -21.365  41.551  88.098  1.00  0.00     0.164 HD
ENDBRANCH   3   5
ENDBRANCH   1   3
BRANCH   1  10
HETATM   10  C6  UNL     1     -21.206  40.564  92.092  1.00  0.00    -0.030 C 
HETATM   11  C7  UNL     1     -19.835  39.923  92.317  1.00  0.00     0.015 C 
HETATM   12  C8  UNL     1     -20.103  38.963  93.423  1.00  0.00    -0.013 C 
HETATM   13  C9  UNL     1     -20.501  39.786  94.633  1.00  0.00     0.010 C 
HETATM   14  C13 UNL     1     -21.481  38.415  93.018  1.00  0.00     0.010 C 
HETATM   15  C10 UNL     1     -21.737  40.478  94.100  1.00  0.00    -0.009 C 
HETATM   16  C11 UNL     1     -21.390  41.617  93.115  1.00  0.00     0.015 C 
HETATM   17  C12 UNL     1     -22.184  39.720  92.870  1.00  0.00    -0.001 C 
ENDBRANCH   1  10
TORSDOF 3
ENDMDL
MODEL 3
REMARK VINA RESULT: -5.873217351      2.149      3.763
REMARK  3 active torsions:
REMARK  status: ('A' for Active; 'I' for Inactive)
REMARK    1  A    between atoms: C2_2  and  N1_3 
REMARK    2  A    between atoms: C2_2  and  C4_8 
REMARK       I    between atoms: N1_3  and  C3_5 
REMARK    3  A    between atoms: C4_8  and  C6_10 
ROOT
HETATM    1  C4  UNL     1     -19.744  41.398  95.289  1.00  0.00     0.013 C 
HETATM    2  C5  UNL     1     -20.114  41.367  96.778  1.00  0.00     0.012 C 
ENDROOT
BRANCH   1   3
HETATM    3  C2  UNL     1     -18.262  41.484  95.264  1.00  0.00     0.086 C 
HETATM    4  C1  UNL     1     -17.838  42.427  96.435  1.00  0.00     0.032 C 
BRANCH   3   5
HETATM    5  N1  UNL     1     -17.722  42.209  94.105  1.00  0.00    -0.341 N 
HETATM    6  C3  UNL     1     -16.745  41.584  93.288  1.00  0.00     0.329 C 
HETATM    7  N2  UNL     1     -16.236  42.294  92.177  1.00  0.00    -0.040 NA
HETATM    8  O1  UNL     1     -16.313  40.427  93.509  1.00  0.00    -0.251 OA
ATOM      9  H1  UNL     1     -18.048  43.152  93.891  1.00  0.00     0.164 HD
ENDBRANCH   3   5
ENDBRANCH   1   3
BRANCH   1  10
HETATM   10  C6  UNL     1     -20.391  40.278  94.592  1.00  0.00    -0.030 C 
HETATM   11  C7  UNL     1     -19.496  39.038  94.523  1.00  0.00     0.015 C 
HETATM   12  C8  UNL     1     -19.767  38.519  93.154  1.00  0.00    -0.013 C 
HETATM   13  C9  UNL     1     -21.228  38.113  93.118  1.00  0.00     0.010 C 
HETATM   14  C13 UNL     1     -19.841  39.824  92.346  1.00  0.00     0.010 C 
HETATM   15  C10 UNL     1     -21.888  39.441  93.419  1.00  0.00    -0.009 C 
HETATM   16  C11 UNL     1     -21.765  39.830  94.910  1.00  0.00     0.015 C 
HETATM   17  C12 UNL     1     -20.859  40.522  93.181  1.00  0.00    -0.001 C 
ENDBRANCH   1  10
TORSDOF 3
ENDMDL
MODEL 4
REMARK VINA RESULT: -5.856985670      2.162      2.737
REMARK  3 active torsions:
REMARK  status: ('A' for Active; 'I' for Inactive)
REMARK    1  A    between atoms: C2_2  and  N1_3 
REMARK    2  A    between atoms: C2_2  and  C4_8 
REMARK       I    between atoms: N1_3  and  C3_5 
REMARK    3  A    between atoms: C4_8  and  C6_10 
ROOT
HETATM    1  C4  UNL     1     -21.300  40.290  93.153  1.00  0.00     0.013 C 
HETATM    2  C5  UNL     1     -22.736  40.587  92.700  1.00  0.00     0.012 C 
ENDROOT
BRANCH   1   3
HETATM    3  C2  UNL     1     -20.436  40.989  92.170  1.00  0.00     0.086 C 
HETATM    4  C1  UNL     1     -21.154  40.902  90.785  1.00  0.00     0.032 C 
BRANCH   3   5
HETATM    5  N1  UNL     1     -19.174  40.293  91.879  1.00  0.00    -0.341 N 
HETATM    6  C3  UNL     1     -17.943  40.924  92.200  1.00  0.00     0.329 C 
HETATM    7  N2  UNL     1     -16.738  40.241  91.916  1.00  0.00    -0.040 NA
HETATM    8  O1  UNL     1     -17.879  42.060  92.726  1.00  0.00    -0.251 OA
ATOM      9  H1  UNL     1     -19.183  39.367  91.453  1.00  0.00     0.164 HD
ENDBRANCH   3   5
ENDBRANCH   1   3
BRANCH   1  10
HETATM   10  C6  UNL     1     -21.150  40.622  94.577  1.00  0.00    -0.030 C 
HETATM   11  C7  UNL     1     -20.635  42.048  94.792  1.00  0.00     0.015 C 
HETATM   12  C8  UNL     1     -19.693  41.883  95.933  1.00  0.00    -0.013 C 
HETATM   13  C9  UNL     1     -20.517  41.437  97.125  1.00  0.00     0.010 C 
HETATM   14  C13 UNL     1     -19.016  40.550  95.574  1.00  0.00     0.010 C 
HETATM   15  C10 UNL     1     -21.084  40.138  96.597  1.00  0.00    -0.009 C 
HETATM   16  C11 UNL     1     -22.216  40.368  95.570  1.00  0.00     0.015 C 
HETATM   17  C12 UNL     1     -20.251  39.735  95.400  1.00  0.00    -0.001 C 
ENDBRANCH   1  10
TORSDOF 3
ENDMDL
MODEL 5
REMARK VINA RESULT: -5.785490929      1.644      1.692
REMARK  3 active torsions:
REMARK  status: ('A' for Active; 'I' for Inactive)
REMARK    1  A    between atoms: C2_2  and  N1_3 
REMARK    2  A    between atoms: C2_2  and  C4_8 
REMARK       I    between atoms: N1_3  and  C3_5 
REMARK    3  A    between atoms: C4_8  and  C6_10 
ROOT
HETATM    1  C4  UNL     1     -18.796  39.673  94.190  1.00  0.00     0.013 C 
HETATM    2  C5  UNL     1     -19.484  38.374  93.747  1.00  0.00     0.012 C 
ENDROOT
BRANCH   1   3
HETATM    3  C2  UNL     1     -17.998  40.104  93.015  1.00  0.00     0.086 C 
HETATM    4  C1  UNL     1     -18.504  39.276  91.790  1.00  0.00     0.032 C 
BRANCH   3   5
HETATM    5  N1  UNL     1     -16.587  39.699  93.068  1.00  0.00    -0.341 N 
HETATM    6  C3  UNL     1     -15.599  40.545  92.497  1.00  0.00     0.329 C 
HETATM    7  N2  UNL     1     -14.246  40.142  92.556  1.00  0.00    -0.040 NA
HETATM    8  O1  UNL     1     -15.877  41.634  91.942  1.00  0.00    -0.251 OA
ATOM      9  H1  UNL     1     -16.319  38.820  93.511  1.00  0.00     0.164 HD
ENDBRANCH   3   5
ENDBRANCH   1   3
BRANCH   1  10
HETATM   10  C6  UNL     1     -19.795  40.603  94.736  1.00  0.00    -0.030 C 
HETATM   11  C7  UNL     1     -19.269  41.381  95.944  1.00  0.00     0.015 C 
HETATM   12  C8  UNL     1     -20.455  41.420  96.845  1.00  0.00    -0.013 C 
HETATM   13  C9  UNL     1     -21.525  42.222  96.130  1.00  0.00     0.010 C 
HETATM   14  C13 UNL     1     -21.023  40.005  96.656  1.00  0.00     0.010 C 
HETATM   15  C10 UNL     1     -21.717  41.378  94.889  1.00  0.00    -0.009 C 
HETATM   16  C11 UNL     1     -20.555  41.544  93.883  1.00  0.00     0.015 C 
HETATM   17  C12 UNL     1     -21.115  40.019  95.169  1.00  0.00    -0.001 C 
ENDBRANCH   1  10
TORSDOF 3
ENDMDL
