MODEL 1
REMARK VINA RESULT: -5.783028845      0.000      0.000
REMARK  3 active torsions:
REMARK  status: ('A' for Active; 'I' for Inactive)
REMARK    1  A    between atoms: N1_7  and  C7_8 
REMARK    2  A    between atoms: C7_8  and  C8_9 
REMARK    3  A    between atoms: C8_9  and  C9_10 
ROOT
HETATM    1  C1  UNL     1     -11.625  42.202  93.276  1.00  0.00     0.069 C 
HETATM    2  C2  UNL     1     -13.000  41.637  93.404  1.00  0.00     0.020 C 
HETATM    3  C3  UNL     1     -13.828  42.164  94.257  1.00  0.00     0.029 C 
HETATM    4  C4  UNL     1     -15.216  41.899  94.660  1.00  0.00     0.049 C 
HETATM    5  C5  UNL     1     -15.789  43.180  95.281  1.00  0.00     0.043 C 
HETATM    6  C6  UNL     1     -15.154  40.846  95.794  1.00  0.00     0.043 C 
HETATM    7  N1  UNL     1     -16.072  41.336  93.672  1.00  0.00    -0.321 N 
HETATM    8  C12 UNL     1     -15.766  40.587  92.487  1.00  0.00     0.337 C 
HETATM    9  O1  UNL     1     -16.716  40.222  91.747  1.00  0.00    -0.245 OA
HETATM   10  N2  UNL     1     -14.493  40.161  91.977  1.00  0.00    -0.251 N 
ATOM     11  H2  UNL     1     -14.486  39.551  91.160  1.00  0.00     0.191 HD
HETATM   12  N3  UNL     1     -13.258  40.530  92.529  1.00  0.00    -0.302 N 
ATOM     13  H3  UNL     1     -12.457  39.948  92.284  1.00  0.00     0.186 HD
ENDROOT
BRANCH   7  14
HETATM   14  C7  UNL     1     -17.487  41.485  93.853  1.00  0.00     0.129 C 
BRANCH  14  15
HETATM   15  C8  UNL     1     -18.191  40.372  94.541  1.00  0.00     0.024 C 
BRANCH  15  16
HETATM   16  C9  UNL     1     -19.450  40.931  95.213  1.00  0.00    -0.021 C 
HETATM   17  C10 UNL     1     -19.077  41.807  96.392  1.00  0.00     0.009 C 
HETATM   18  C11 UNL     1     -20.314  39.815  95.748  1.00  0.00     0.009 C 
ENDBRANCH  15  16
ENDBRANCH  14  15
ENDBRANCH   7  14
TORSDOF 3
ENDMDL
MODEL 2
REMARK VINA RESULT: -5.730070043      2.530      3.597
REMARK  3 active torsions:
REMARK  status: ('A' for Active; 'I' for Inactive)
REMARK    1  A    between atoms: N1_7  and  C7_8 
REMARK    2  A    between atoms: C7_8  and  C8_9 
REMARK    3  A    between atoms: C8_9  and  C9_10 
ROOT
HETATM    1  C1  UNL     1     -14.200  40.421  92.541  1.00  0.00     0.069 C 
HETATM    2  C2  UNL     1     -15.649  40.775  92.504  1.00  0.00     0.020 C 
HETATM    3  C3  UNL     1     -16.519  39.948  93.006  1.00  0.00     0.029 C 
HETATM    4  C4  UNL     1     -17.981  39.939  93.153  1.00  0.00     0.049 C 
HETATM    5  C5  UNL     1     -18.342  38.983  94.297  1.00  0.00     0.043 C 
HETATM    6  C6  UNL     1     -18.552  39.315  91.855  1.00  0.00     0.043 C 
HETATM    7  N1  UNL     1     -18.619  41.205  93.272  1.00  0.00    -0.321 N 
HETATM    8  C12 UNL     1     -18.187  42.512  92.866  1.00  0.00     0.337 C 
HETATM    9  O1  UNL     1     -18.933  43.494  93.117  1.00  0.00    -0.245 OA
HETATM   10  N2  UNL     1     -16.986  42.909  92.186  1.00  0.00    -0.251 N 
ATOM     11  H2  UNL     1     -16.901  43.883  91.898  1.00  0.00     0.191 HD
HETATM   12  N3  UNL     1     -15.923  42.042  91.892  1.00  0.00    -0.302 N 
ATOM     13  H3  UNL     1     -15.276  42.347  91.165  1.00  0.00     0.186 HD
ENDROOT
BRANCH   7  14
HETATM   14  C7  UNL     1     -19.927  41.240  93.861  1.00  0.00     0.129 C 
BRANCH  14  15
HETATM   15  C8  UNL     1     -21.072  40.964  92.956  1.00  0.00     0.024 C 
BRANCH  15  16
HETATM   16  C9  UNL     1     -22.073  40.065  93.692  1.00  0.00    -0.021 C 
HETATM   17  C10 UNL     1     -21.894  40.194  95.192  1.00  0.00     0.009 C 
HETATM   18  C11 UNL     1     -21.849  38.614  93.344  1.00  0.00     0.009 C 
ENDBRANCH  15  16
ENDBRANCH  14  15
ENDBRANCH   7  14
TORSDOF 3
ENDMDL
MODEL 3
REMARK VINA RESULT: -5.576052801      2.926      4.049
REMARK  3 active torsions:
REMARK  status: ('A' for Active; 'I' for Inactive)
REMARK    1  A    between atoms: N1_7  and  C7_8 
REMARK    2  A    between atoms: C7_8  and  C8_9 
REMARK    3  A    between atoms: C8_9  and  C9_10 
ROOT
HETATM    1  C1  UNL     1     -14.156  40.242  93.101  1.00  0.00     0.069 C 
HETATM    2  C2  UNL     1     -15.544  40.669  92.758  1.00  0.00     0.020 C 
HETATM    3  C3  UNL     1     -16.540  39.882  93.042  1.00  0.00     0.029 C 
HETATM    4  C4  UNL     1     -17.998  39.946  92.869  1.00  0.00     0.049 C 
HETATM    5  C5  UNL     1     -18.644  38.997  93.887  1.00  0.00     0.043 C 
HETATM    6  C6  UNL     1     -18.302  39.366  91.466  1.00  0.00     0.043 C 
HETATM    7  N1  UNL     1     -18.586  41.242  92.874  1.00  0.00    -0.321 N 
HETATM    8  C12 UNL     1     -18.015  42.529  92.599  1.00  0.00     0.337 C 
HETATM    9  O1  UNL     1     -18.750  43.545  92.703  1.00  0.00    -0.245 OA
HETATM   10  N2  UNL     1     -16.678  42.872  92.204  1.00  0.00    -0.251 N 
ATOM     11  H2  UNL     1     -16.486  43.843  91.962  1.00  0.00     0.191 HD
HETATM   12  N3  UNL     1     -15.619  41.956  92.129  1.00  0.00    -0.302 N 
ATOM     13  H3  UNL     1     -14.815  42.234  91.566  1.00  0.00     0.186 HD
ENDROOT
BRANCH   7  14
HETATM   14  C7  UNL     1     -19.988  41.337  93.166  1.00  0.00     0.129 C 
BRANCH  14  15
HETATM   15  C8  UNL     1     -20.884  41.670  92.029  1.00  0.00     0.024 C 
BRANCH  15  16
HETATM   16  C9  UNL     1     -21.822  40.483  91.781  1.00  0.00    -0.021 C 
HETATM   17  C10 UNL     1     -22.380  40.535  90.373  1.00  0.00     0.009 C 
HETATM   18  C11 UNL     1     -22.999  40.522  92.725  1.00  0.00     0.009 C 
ENDBRANCH  15  16
ENDBRANCH  14  15
ENDBRANCH   7  14
TORSDOF 3
ENDMDL
MODEL 4
REMARK VINA RESULT: -5.537705528      2.448      3.414
REMARK  3 active torsions:
REMARK  status: ('A' for Active; 'I' for Inactive)
REMARK    1  A    between atoms: N1_7  and  C7_8 
REMARK    2  A    between atoms: C7_8  and  C8_9 
REMARK    3  A    between atoms: C8_9  and  C9_10 
ROOT
HETATM    1  C1  UNL     1     -14.210  40.259  92.633  1.00  0.00     0.069 C 
HETATM    2  C2  UNL     1     -15.643  40.662  92.530  1.00  0.00     0.020 C 
HETATM    3  C3  UNL     1     -16.563  39.864  92.987  1.00  0.00     0.029 C 
HETATM    4  C4  UNL     1     -18.030  39.904  93.065  1.00  0.00     0.049 C 
HETATM    5  C5  UNL     1     -18.476  38.956  94.186  1.00  0.00     0.043 C 
HETATM    6  C6  UNL     1     -18.561  39.305  91.739  1.00  0.00     0.043 C 
HETATM    7  N1  UNL     1     -18.629  41.191  93.162  1.00  0.00    -0.321 N 
HETATM    8  C12 UNL     1     -18.135  42.484  92.784  1.00  0.00     0.337 C 
HETATM    9  O1  UNL     1     -18.858  43.490  93.006  1.00  0.00    -0.245 OA
HETATM   10  N2  UNL     1     -16.890  42.842  92.163  1.00  0.00    -0.251 N 
ATOM     11  H2  UNL     1     -16.759  43.814  91.885  1.00  0.00     0.191 HD
HETATM   12  N3  UNL     1     -15.845  41.941  91.914  1.00  0.00    -0.302 N 
ATOM     13  H3  UNL     1     -15.154  42.226  91.220  1.00  0.00     0.186 HD
ENDROOT
BRANCH   7  14
HETATM   14  C7  UNL     1     -19.962  41.268  93.690  1.00  0.00     0.129 C 
BRANCH  14  15
HETATM   15  C8  UNL     1     -20.089  41.604  95.131  1.00  0.00     0.024 C 
BRANCH  15  16
HETATM   16  C9  UNL     1     -21.408  41.023  95.654  1.00  0.00    -0.021 C 
HETATM   17  C10 UNL     1     -21.193  40.345  96.993  1.00  0.00     0.009 C 
HETATM   18  C11 UNL     1     -21.945  39.975  94.710  1.00  0.00     0.009 C 
ENDBRANCH  15  16
ENDBRANCH  14  15
ENDBRANCH   7  14
TORSDOF 3
ENDMDL
MODEL 5
REMARK VINA RESULT: -5.457608024      4.312      7.288
REMARK  3 active torsions:
REMARK  status: ('A' for Active; 'I' for Inactive)
REMARK    1  A    between atoms: N1_7  and  C7_8 
REMARK    2  A    between atoms: C7_8  and  C8_9 
REMARK    3  A    between atoms: C8_9  and  C9_10 
ROOT
HETATM    1  C1  UNL     1     -24.593  43.310  93.894  1.00  0.00     0.069 C 
HETATM    2  C2  UNL     1     -23.534  42.268  94.037  1.00  0.00     0.020 C 
HETATM    3  C3  UNL     1     -22.537  42.255  93.202  1.00  0.00     0.029 C 
HETATM    4  C4  UNL     1     -21.342  41.419  93.021  1.00  0.00     0.049 C 
HETATM    5  C5  UNL     1     -20.301  42.233  92.241  1.00  0.00     0.043 C 
HETATM    6  C6  UNL     1     -21.760  40.241  92.108  1.00  0.00     0.043 C 
HETATM    7  N1  UNL     1     -20.803  40.814  94.191  1.00  0.00    -0.321 N 
HETATM    8  C12 UNL     1     -21.415  40.508  95.452  1.00  0.00     0.337 C 
HETATM    9  O1  UNL     1     -20.704  39.992  96.353  1.00  0.00    -0.245 OA
HETATM   10  N2  UNL     1     -22.772  40.700  95.882  1.00  0.00    -0.251 N 
ATOM     11  H2  UNL     1     -23.041  40.329  96.793  1.00  0.00     0.191 HD
HETATM   12  N3  UNL     1     -23.751  41.364  95.129  1.00  0.00    -0.302 N 
ATOM     13  H3  UNL     1     -24.722  41.184  95.385  1.00  0.00     0.186 HD
ENDROOT
BRANCH   7  14
HETATM   14  C7  UNL     1     -19.433  40.391  94.152  1.00  0.00     0.129 C 
BRANCH  14  15
HETATM   15  C8  UNL     1     -19.181  38.987  93.736  1.00  0.00     0.024 C 
BRANCH  15  16
HETATM   16  C9  UNL     1     -17.898  38.948  92.898  1.00  0.00    -0.021 C 
HETATM   17  C10 UNL     1     -16.877  39.924  93.448  1.00  0.00     0.009 C 
HETATM   18  C11 UNL     1     -18.175  39.355  91.472  1.00  0.00     0.009 C 
ENDBRANCH  15  16
ENDBRANCH  14  15
ENDBRANCH   7  14
TORSDOF 3
ENDMDL
