MODEL 1
REMARK VINA RESULT: -7.754195269      0.000      0.000
REMARK  12 active torsions:
REMARK  status: ('A' for Active; 'I' for Inactive)
REMARK    1  A    between atoms: C2_2  and  C3_3 
REMARK    2  A    between atoms: C3_3  and  N1_4 
REMARK       I    between atoms: N1_4  and  C4_5 
REMARK    3  A    between atoms: N1_4  and  C17_25 
REMARK    4  A    between atoms: C4_5  and  C5_7 
REMARK    5  A    between atoms: C5_7  and  C6_8 
REMARK    6  A    between atoms: C6_8  and  C9_11 
REMARK    7  A    between atoms: C10_14  and  C11_15 
REMARK       I    between atoms: C11_15  and  N3_17 
REMARK    8  A    between atoms: N3_17  and  C12_19 
REMARK    9  A    between atoms: C19_27  and  C20_28 
REMARK       I    between atoms: N4_33  and  C23_34 
REMARK   10  A    between atoms: C23_34  and  C24_36 
REMARK   11  A    between atoms: C24_36  and  C25_37 
REMARK   12  A    between atoms: C25_37  and  C26_38 
ROOT
HETATM    1  N1  UNL     1       7.320  60.046  19.305  1.00  0.00    -0.307 N 
HETATM    2  C4  UNL     1       8.443  60.963  19.286  1.00  0.00     0.226 C 
HETATM    3  O1  UNL     1       9.357  60.915  20.135  1.00  0.00    -0.273 OA
ENDROOT
BRANCH   1   4
HETATM    4  C3  UNL     1       7.379  59.085  20.354  1.00  0.00     0.133 C 
BRANCH   4   5
HETATM    5  C2  UNL     1       6.675  59.313  21.622  1.00  0.00     0.016 C 
HETATM    6  C1  UNL     1       7.263  59.017  22.927  1.00  0.00     0.006 C 
ENDBRANCH   4   5
ENDBRANCH   1   4
BRANCH   1   7
HETATM    7  C17 UNL     1       6.297  60.142  18.361  1.00  0.00     0.091 C 
HETATM    8  C18 UNL     1       4.883  60.084  18.746  1.00  0.00     0.092 C 
HETATM    9  C19 UNL     1       3.951  60.318  17.569  1.00  0.00     0.095 C 
HETATM   10  C21 UNL     1       4.285  59.435  16.395  1.00  0.00     0.036 C 
HETATM   11  C22 UNL     1       5.706  59.803  16.015  1.00  0.00     0.134 C 
HETATM   12  N4  UNL     1       6.497  59.322  17.164  1.00  0.00    -0.307 N 
HETATM   13  C23 UNL     1       7.305  58.239  16.907  1.00  0.00     0.225 C 
HETATM   14  O5  UNL     1       8.149  57.675  17.651  1.00  0.00    -0.273 OA
BRANCH   9  15
HETATM   15  C20 UNL     1       2.537  60.167  17.985  1.00  0.00     0.177 C 
HETATM   16  O3  UNL     1       1.712  61.132  17.872  1.00  0.00    -0.648 OA
HETATM   17  O4  UNL     1       2.094  58.969  18.500  1.00  0.00    -0.648 OA
ENDBRANCH   9  15
BRANCH  13  18
HETATM   18  C24 UNL     1       7.201  57.593  15.549  1.00  0.00     0.114 C 
BRANCH  18  19
HETATM   19  C25 UNL     1       8.602  57.401  14.959  1.00  0.00     0.122 C 
BRANCH  19  20
HETATM   20  C26 UNL     1       9.017  58.597  14.226  1.00  0.00     0.172 C 
HETATM   21  O6  UNL     1       8.159  59.338  13.686  1.00  0.00    -0.648 OA
HETATM   22  O7  UNL     1      10.351  58.932  14.114  1.00  0.00    -0.648 OA
ENDBRANCH  19  20
ENDBRANCH  18  19
ENDBRANCH  13  18
ENDBRANCH   1   7
BRANCH   2  23
HETATM   23  C5  UNL     1       8.565  62.013  18.253  1.00  0.00     0.118 C 
BRANCH  23  24
HETATM   24  C6  UNL     1       9.598  61.679  17.197  1.00  0.00     0.010 C 
HETATM   25  C7  UNL     1       8.896  61.942  15.850  1.00  0.00     0.022 C 
HETATM   26  C8  UNL     1      10.172  60.323  17.270  1.00  0.00     0.022 C 
BRANCH  24  27
HETATM   27  C9  UNL     1      10.628  62.782  17.262  1.00  0.00     0.059 A 
HETATM   28  N2  UNL     1      11.649  63.044  16.498  1.00  0.00    -0.348 N 
HETATM   29  C10 UNL     1      12.408  64.074  16.740  1.00  0.00     0.107 A 
ATOM     30  H2  UNL     1      11.855  62.439  15.703  1.00  0.00     0.166 HD
HETATM   31  C16 UNL     1      12.073  64.851  17.826  1.00  0.00     0.086 A 
HETATM   32  S1  UNL     1      10.688  64.039  18.419  1.00  0.00    -0.085 SA
BRANCH  29  33
HETATM   33  C11 UNL     1      13.588  64.444  15.908  1.00  0.00     0.269 C 
HETATM   34  O2  UNL     1      14.549  65.094  16.373  1.00  0.00    -0.266 OA
HETATM   35  N3  UNL     1      13.663  64.067  14.537  1.00  0.00    -0.348 N 
ATOM     36  H3  UNL     1      12.896  63.532  14.129  1.00  0.00     0.163 HD
BRANCH  35  37
HETATM   37  C12 UNL     1      14.793  64.419  13.704  1.00  0.00     0.022 C 
HETATM   38  C13 UNL     1      15.994  63.609  14.138  1.00  0.00     0.037 C 
HETATM   39  C14 UNL     1      14.540  64.031  12.251  1.00  0.00     0.037 C 
HETATM   40  C15 UNL     1      15.084  65.900  13.715  1.00  0.00     0.037 C 
ENDBRANCH  35  37
ENDBRANCH  29  33
ENDBRANCH  24  27
ENDBRANCH  23  24
ENDBRANCH   2  23
TORSDOF 12
ENDMDL
MODEL 2
REMARK VINA RESULT: -7.689967585      0.848      1.158
REMARK  12 active torsions:
REMARK  status: ('A' for Active; 'I' for Inactive)
REMARK    1  A    between atoms: C2_2  and  C3_3 
REMARK    2  A    between atoms: C3_3  and  N1_4 
REMARK       I    between atoms: N1_4  and  C4_5 
REMARK    3  A    between atoms: N1_4  and  C17_25 
REMARK    4  A    between atoms: C4_5  and  C5_7 
REMARK    5  A    between atoms: C5_7  and  C6_8 
REMARK    6  A    between atoms: C6_8  and  C9_11 
REMARK    7  A    between atoms: C10_14  and  C11_15 
REMARK       I    between atoms: C11_15  and  N3_17 
REMARK    8  A    between atoms: N3_17  and  C12_19 
REMARK    9  A    between atoms: C19_27  and  C20_28 
REMARK       I    between atoms: N4_33  and  C23_34 
REMARK   10  A    between atoms: C23_34  and  C24_36 
REMARK   11  A    between atoms: C24_36  and  C25_37 
REMARK   12  A    between atoms: C25_37  and  C26_38 
ROOT
HETATM    1  N1  UNL     1       7.539  60.265  19.513  1.00  0.00    -0.307 N 
HETATM    2  C4  UNL     1       8.663  61.157  19.309  1.00  0.00     0.226 C 
HETATM    3  O1  UNL     1       9.651  61.170  20.072  1.00  0.00    -0.273 OA
ENDROOT
BRANCH   1   4
HETATM    4  C3  UNL     1       7.685  59.402  20.635  1.00  0.00     0.133 C 
BRANCH   4   5
HETATM    5  C2  UNL     1       7.274  59.836  21.977  1.00  0.00     0.016 C 
HETATM    6  C1  UNL     1       7.277  58.951  23.140  1.00  0.00     0.006 C 
ENDBRANCH   4   5
ENDBRANCH   1   4
BRANCH   1   7
HETATM    7  C17 UNL     1       6.435  60.293  18.661  1.00  0.00     0.091 C 
HETATM    8  C18 UNL     1       5.061  60.273  19.175  1.00  0.00     0.092 C 
HETATM    9  C19 UNL     1       4.026  60.420  18.073  1.00  0.00     0.095 C 
HETATM   10  C21 UNL     1       4.253  59.447  16.946  1.00  0.00     0.036 C 
HETATM   11  C22 UNL     1       5.634  59.776  16.412  1.00  0.00     0.134 C 
HETATM   12  N4  UNL     1       6.526  59.382  17.518  1.00  0.00    -0.307 N 
HETATM   13  C23 UNL     1       7.310  58.278  17.274  1.00  0.00     0.225 C 
HETATM   14  O5  UNL     1       8.219  57.768  17.980  1.00  0.00    -0.273 OA
BRANCH   9  15
HETATM   15  C20 UNL     1       2.655  60.309  18.625  1.00  0.00     0.177 C 
HETATM   16  O3  UNL     1       1.802  61.240  18.457  1.00  0.00    -0.648 OA
HETATM   17  O4  UNL     1       2.285  59.186  19.331  1.00  0.00    -0.648 OA
ENDBRANCH   9  15
BRANCH  13  18
HETATM   18  C24 UNL     1       7.084  57.528  15.985  1.00  0.00     0.114 C 
BRANCH  18  19
HETATM   19  C25 UNL     1       8.426  57.284  15.288  1.00  0.00     0.122 C 
BRANCH  19  20
HETATM   20  C26 UNL     1       8.743  58.391  14.384  1.00  0.00     0.172 C 
HETATM   21  O6  UNL     1       7.822  59.018  13.805  1.00  0.00    -0.648 OA
HETATM   22  O7  UNL     1      10.051  58.764  14.154  1.00  0.00    -0.648 OA
ENDBRANCH  19  20
ENDBRANCH  18  19
ENDBRANCH  13  18
ENDBRANCH   1   7
BRANCH   2  23
HETATM   23  C5  UNL     1       8.699  62.108  18.178  1.00  0.00     0.118 C 
BRANCH  23  24
HETATM   24  C6  UNL     1       9.608  61.650  17.056  1.00  0.00     0.010 C 
HETATM   25  C7  UNL     1       8.769  61.798  15.772  1.00  0.00     0.022 C 
HETATM   26  C8  UNL     1      10.169  60.294  17.200  1.00  0.00     0.022 C 
BRANCH  24  27
HETATM   27  C9  UNL     1      10.653  62.730  16.903  1.00  0.00     0.059 A 
HETATM   28  N2  UNL     1      11.564  62.915  15.992  1.00  0.00    -0.348 N 
HETATM   29  C10 UNL     1      12.364  63.940  16.056  1.00  0.00     0.107 A 
ATOM     30  H2  UNL     1      11.652  62.252  15.222  1.00  0.00     0.166 HD
HETATM   31  C16 UNL     1      12.191  64.797  17.120  1.00  0.00     0.086 A 
HETATM   32  S1  UNL     1      10.889  64.062  17.950  1.00  0.00    -0.085 SA
BRANCH  29  33
HETATM   33  C11 UNL     1      13.424  64.224  15.048  1.00  0.00     0.269 C 
HETATM   34  O2  UNL     1      13.222  64.098  13.821  1.00  0.00    -0.266 OA
HETATM   35  N3  UNL     1      14.720  64.653  15.450  1.00  0.00    -0.348 N 
ATOM     36  H3  UNL     1      14.915  64.770  16.445  1.00  0.00     0.163 HD
BRANCH  35  37
HETATM   37  C12 UNL     1      15.770  64.930  14.494  1.00  0.00     0.022 C 
HETATM   38  C13 UNL     1      15.314  66.035  13.569  1.00  0.00     0.037 C 
HETATM   39  C14 UNL     1      17.015  65.467  15.191  1.00  0.00     0.037 C 
HETATM   40  C15 UNL     1      16.197  63.701  13.728  1.00  0.00     0.037 C 
ENDBRANCH  35  37
ENDBRANCH  29  33
ENDBRANCH  24  27
ENDBRANCH  23  24
ENDBRANCH   2  23
TORSDOF 12
ENDMDL
MODEL 3
REMARK VINA RESULT: -7.675339523      2.491      9.165
REMARK  12 active torsions:
REMARK  status: ('A' for Active; 'I' for Inactive)
REMARK    1  A    between atoms: C2_2  and  C3_3 
REMARK    2  A    between atoms: C3_3  and  N1_4 
REMARK       I    between atoms: N1_4  and  C4_5 
REMARK    3  A    between atoms: N1_4  and  C17_25 
REMARK    4  A    between atoms: C4_5  and  C5_7 
REMARK    5  A    between atoms: C5_7  and  C6_8 
REMARK    6  A    between atoms: C6_8  and  C9_11 
REMARK    7  A    between atoms: C10_14  and  C11_15 
REMARK       I    between atoms: C11_15  and  N3_17 
REMARK    8  A    between atoms: N3_17  and  C12_19 
REMARK    9  A    between atoms: C19_27  and  C20_28 
REMARK       I    between atoms: N4_33  and  C23_34 
REMARK   10  A    between atoms: C23_34  and  C24_36 
REMARK   11  A    between atoms: C24_36  and  C25_37 
REMARK   12  A    between atoms: C25_37  and  C26_38 
ROOT
HETATM    1  N1  UNL     1      11.454  61.627  16.400  1.00  0.00    -0.307 N 
HETATM    2  C4  UNL     1      10.334  61.639  17.322  1.00  0.00     0.226 C 
HETATM    3  O1  UNL     1       9.714  60.600  17.631  1.00  0.00    -0.273 OA
ENDROOT
BRANCH   1   4
HETATM    4  C3  UNL     1      11.787  60.332  15.916  1.00  0.00     0.133 C 
BRANCH   4   5
HETATM    5  C2  UNL     1      11.082  59.756  14.763  1.00  0.00     0.016 C 
HETATM    6  C1  UNL     1      10.048  60.472  14.020  1.00  0.00     0.006 C 
ENDBRANCH   4   5
ENDBRANCH   1   4
BRANCH   1   7
HETATM    7  C17 UNL     1      12.109  62.809  16.050  1.00  0.00     0.091 C 
HETATM    8  C18 UNL     1      12.669  63.013  14.710  1.00  0.00     0.092 C 
HETATM    9  C19 UNL     1      13.237  64.409  14.524  1.00  0.00     0.095 C 
HETATM   10  C21 UNL     1      14.186  64.789  15.630  1.00  0.00     0.036 C 
HETATM   11  C22 UNL     1      13.360  64.727  16.900  1.00  0.00     0.134 C 
HETATM   12  N4  UNL     1      13.071  63.288  17.044  1.00  0.00    -0.307 N 
HETATM   13  C23 UNL     1      13.705  62.665  18.095  1.00  0.00     0.225 C 
HETATM   14  O5  UNL     1      13.585  61.486  18.518  1.00  0.00    -0.273 OA
BRANCH   9  15
HETATM   15  C20 UNL     1      13.867  64.544  13.190  1.00  0.00     0.177 C 
HETATM   16  O3  UNL     1      13.462  63.853  12.199  1.00  0.00    -0.648 OA
HETATM   17  O4  UNL     1      14.907  65.428  13.005  1.00  0.00    -0.648 OA
ENDBRANCH   9  15
BRANCH  13  18
HETATM   18  C24 UNL     1      14.704  63.469  18.887  1.00  0.00     0.114 C 
BRANCH  18  19
HETATM   19  C25 UNL     1      13.969  64.358  19.895  1.00  0.00     0.122 C 
BRANCH  19  20
HETATM   20  C26 UNL     1      14.726  65.585  20.145  1.00  0.00     0.172 C 
HETATM   21  O6  UNL     1      15.441  66.082  19.240  1.00  0.00    -0.648 OA
HETATM   22  O7  UNL     1      14.668  66.216  21.370  1.00  0.00    -0.648 OA
ENDBRANCH  19  20
ENDBRANCH  18  19
ENDBRANCH  13  18
ENDBRANCH   1   7
BRANCH   2  23
HETATM   23  C5  UNL     1       9.861  62.892  17.947  1.00  0.00     0.118 C 
BRANCH  23  24
HETATM   24  C6  UNL     1       9.927  62.854  19.459  1.00  0.00     0.010 C 
HETATM   25  C7  UNL     1       9.876  64.329  19.902  1.00  0.00     0.022 C 
HETATM   26  C8  UNL     1      11.084  62.141  20.031  1.00  0.00     0.022 C 
BRANCH  24  27
HETATM   27  C9  UNL     1       8.592  62.318  19.918  1.00  0.00     0.059 A 
HETATM   28  N2  UNL     1       7.606  61.793  19.250  1.00  0.00    -0.348 N 
HETATM   29  C10 UNL     1       6.535  61.380  19.866  1.00  0.00     0.107 A 
ATOM     30  H2  UNL     1       7.673  61.703  18.236  1.00  0.00     0.166 HD
HETATM   31  C16 UNL     1       6.511  61.528  21.235  1.00  0.00     0.086 A 
HETATM   32  S1  UNL     1       8.032  62.252  21.533  1.00  0.00    -0.085 SA
BRANCH  29  33
HETATM   33  C11 UNL     1       5.371  60.761  19.172  1.00  0.00     0.269 C 
HETATM   34  O2  UNL     1       4.249  60.669  19.716  1.00  0.00    -0.266 OA
HETATM   35  N3  UNL     1       5.495  60.247  17.851  1.00  0.00    -0.348 N 
ATOM     36  H3  UNL     1       6.396  60.312  17.378  1.00  0.00     0.163 HD
BRANCH  35  37
HETATM   37  C12 UNL     1       4.382  59.635  17.157  1.00  0.00     0.022 C 
HETATM   38  C13 UNL     1       4.841  59.198  15.784  1.00  0.00     0.037 C 
HETATM   39  C14 UNL     1       3.932  58.361  17.864  1.00  0.00     0.037 C 
HETATM   40  C15 UNL     1       3.177  60.540  17.081  1.00  0.00     0.037 C 
ENDBRANCH  35  37
ENDBRANCH  29  33
ENDBRANCH  24  27
ENDBRANCH  23  24
ENDBRANCH   2  23
TORSDOF 12
ENDMDL
MODEL 4
REMARK VINA RESULT: -7.496468964      2.084      2.745
REMARK  12 active torsions:
REMARK  status: ('A' for Active; 'I' for Inactive)
REMARK    1  A    between atoms: C2_2  and  C3_3 
REMARK    2  A    between atoms: C3_3  and  N1_4 
REMARK       I    between atoms: N1_4  and  C4_5 
REMARK    3  A    between atoms: N1_4  and  C17_25 
REMARK    4  A    between atoms: C4_5  and  C5_7 
REMARK    5  A    between atoms: C5_7  and  C6_8 
REMARK    6  A    between atoms: C6_8  and  C9_11 
REMARK    7  A    between atoms: C10_14  and  C11_15 
REMARK       I    between atoms: C11_15  and  N3_17 
REMARK    8  A    between atoms: N3_17  and  C12_19 
REMARK    9  A    between atoms: C19_27  and  C20_28 
REMARK       I    between atoms: N4_33  and  C23_34 
REMARK   10  A    between atoms: C23_34  and  C24_36 
REMARK   11  A    between atoms: C24_36  and  C25_37 
REMARK   12  A    between atoms: C25_37  and  C26_38 
ROOT
HETATM    1  N1  UNL     1       7.965  60.753  19.588  1.00  0.00    -0.307 N 
HETATM    2  C4  UNL     1       9.025  61.388  18.827  1.00  0.00     0.226 C 
HETATM    3  O1  UNL     1      10.199  61.451  19.245  1.00  0.00    -0.273 OA
ENDROOT
BRANCH   1   4
HETATM    4  C3  UNL     1       8.398  60.196  20.824  1.00  0.00     0.133 C 
BRANCH   4   5
HETATM    5  C2  UNL     1       8.330  60.978  22.066  1.00  0.00     0.016 C 
HETATM    6  C1  UNL     1       8.447  62.434  22.101  1.00  0.00     0.006 C 
ENDBRANCH   4   5
ENDBRANCH   1   4
BRANCH   1   7
HETATM    7  C17 UNL     1       6.655  60.723  19.108  1.00  0.00     0.091 C 
HETATM    8  C18 UNL     1       5.501  60.801  20.011  1.00  0.00     0.092 C 
HETATM    9  C19 UNL     1       4.181  60.861  19.261  1.00  0.00     0.095 C 
HETATM   10  C21 UNL     1       4.061  59.765  18.234  1.00  0.00     0.036 C 
HETATM   11  C22 UNL     1       5.214  59.993  17.276  1.00  0.00     0.134 C 
HETATM   12  N4  UNL     1       6.400  59.692  18.100  1.00  0.00    -0.307 N 
HETATM   13  C23 UNL     1       7.078  58.545  17.758  1.00  0.00     0.225 C 
HETATM   14  O5  UNL     1       8.159  58.087  18.210  1.00  0.00    -0.273 OA
BRANCH   9  15
HETATM   15  C20 UNL     1       3.041  60.852  20.208  1.00  0.00     0.177 C 
HETATM   16  O3  UNL     1       2.785  61.865  20.937  1.00  0.00    -0.648 OA
HETATM   17  O4  UNL     1       2.240  59.737  20.311  1.00  0.00    -0.648 OA
ENDBRANCH   9  15
BRANCH  13  18
HETATM   18  C24 UNL     1       6.476  57.669  16.689  1.00  0.00     0.114 C 
BRANCH  18  19
HETATM   19  C25 UNL     1       6.724  58.290  15.311  1.00  0.00     0.122 C 
BRANCH  19  20
HETATM   20  C26 UNL     1       7.766  57.553  14.596  1.00  0.00     0.172 C 
HETATM   21  O6  UNL     1       8.662  56.947  15.233  1.00  0.00    -0.648 OA
HETATM   22  O7  UNL     1       7.784  57.510  13.217  1.00  0.00    -0.648 OA
ENDBRANCH  19  20
ENDBRANCH  18  19
ENDBRANCH  13  18
ENDBRANCH   1   7
BRANCH   2  23
HETATM   23  C5  UNL     1       8.768  61.999  17.506  1.00  0.00     0.118 C 
BRANCH  23  24
HETATM   24  C6  UNL     1       9.674  61.454  16.421  1.00  0.00     0.010 C 
HETATM   25  C7  UNL     1       8.910  61.687  15.103  1.00  0.00     0.022 C 
HETATM   26  C8  UNL     1      10.090  60.049  16.582  1.00  0.00     0.022 C 
BRANCH  24  27
HETATM   27  C9  UNL     1      10.826  62.424  16.320  1.00  0.00     0.059 A 
HETATM   28  N2  UNL     1      11.302  63.280  17.178  1.00  0.00    -0.348 N 
HETATM   29  C10 UNL     1      12.330  64.019  16.874  1.00  0.00     0.107 A 
ATOM     30  H2  UNL     1      10.866  63.373  18.095  1.00  0.00     0.166 HD
HETATM   31  C16 UNL     1      12.872  63.843  15.621  1.00  0.00     0.086 A 
HETATM   32  S1  UNL     1      11.860  62.627  14.972  1.00  0.00    -0.085 SA
BRANCH  29  33
HETATM   33  C11 UNL     1      12.936  65.014  17.804  1.00  0.00     0.269 C 
HETATM   34  O2  UNL     1      12.250  65.645  18.637  1.00  0.00    -0.266 OA
HETATM   35  N3  UNL     1      14.332  65.284  17.778  1.00  0.00    -0.348 N 
ATOM     36  H3  UNL     1      14.920  64.782  17.112  1.00  0.00     0.163 HD
BRANCH  35  37
HETATM   37  C12 UNL     1      14.946  66.249  18.665  1.00  0.00     0.022 C 
HETATM   38  C13 UNL     1      16.426  66.322  18.364  1.00  0.00     0.037 C 
HETATM   39  C14 UNL     1      14.405  67.651  18.403  1.00  0.00     0.037 C 
HETATM   40  C15 UNL     1      14.686  65.947  20.120  1.00  0.00     0.037 C 
ENDBRANCH  35  37
ENDBRANCH  29  33
ENDBRANCH  24  27
ENDBRANCH  23  24
ENDBRANCH   2  23
TORSDOF 12
ENDMDL
MODEL 5
REMARK VINA RESULT: -7.376475995      2.352      3.053
REMARK  12 active torsions:
REMARK  status: ('A' for Active; 'I' for Inactive)
REMARK    1  A    between atoms: C2_2  and  C3_3 
REMARK    2  A    between atoms: C3_3  and  N1_4 
REMARK       I    between atoms: N1_4  and  C4_5 
REMARK    3  A    between atoms: N1_4  and  C17_25 
REMARK    4  A    between atoms: C4_5  and  C5_7 
REMARK    5  A    between atoms: C5_7  and  C6_8 
REMARK    6  A    between atoms: C6_8  and  C9_11 
REMARK    7  A    between atoms: C10_14  and  C11_15 
REMARK       I    between atoms: C11_15  and  N3_17 
REMARK    8  A    between atoms: N3_17  and  C12_19 
REMARK    9  A    between atoms: C19_27  and  C20_28 
REMARK       I    between atoms: N4_33  and  C23_34 
REMARK   10  A    between atoms: C23_34  and  C24_36 
REMARK   11  A    between atoms: C24_36  and  C25_37 
REMARK   12  A    between atoms: C25_37  and  C26_38 
ROOT
HETATM    1  N1  UNL     1       8.059  61.045  19.871  1.00  0.00    -0.307 N 
HETATM    2  C4  UNL     1       9.060  61.487  18.918  1.00  0.00     0.226 C 
HETATM    3  O1  UNL     1      10.281  61.453  19.171  1.00  0.00    -0.273 OA
ENDROOT
BRANCH   1   4
HETATM    4  C3  UNL     1       8.604  60.552  21.090  1.00  0.00     0.133 C 
BRANCH   4   5
HETATM    5  C2  UNL     1       8.795  61.442  22.243  1.00  0.00     0.016 C 
HETATM    6  C1  UNL     1       8.813  62.899  22.133  1.00  0.00     0.006 C 
ENDBRANCH   4   5
ENDBRANCH   1   4
BRANCH   1   7
HETATM    7  C17 UNL     1       6.698  61.123  19.573  1.00  0.00     0.091 C 
HETATM    8  C18 UNL     1       5.690  61.342  20.616  1.00  0.00     0.092 C 
HETATM    9  C19 UNL     1       4.291  61.499  20.047  1.00  0.00     0.095 C 
HETATM   10  C21 UNL     1       3.934  60.385  19.098  1.00  0.00     0.036 C 
HETATM   11  C22 UNL     1       4.961  60.467  17.986  1.00  0.00     0.134 C 
HETATM   12  N4  UNL     1       6.217  60.086  18.658  1.00  0.00    -0.307 N 
HETATM   13  C23 UNL     1       6.736  58.867  18.284  1.00  0.00     0.225 C 
HETATM   14  O5  UNL     1       7.824  58.325  18.610  1.00  0.00    -0.273 OA
BRANCH   9  15
HETATM   15  C20 UNL     1       3.295  61.632  21.136  1.00  0.00     0.177 C 
HETATM   16  O3  UNL     1       2.101  62.002  20.893  1.00  0.00    -0.648 OA
HETATM   17  O4  UNL     1       3.654  61.352  22.436  1.00  0.00    -0.648 OA
ENDBRANCH   9  15
BRANCH  13  18
HETATM   18  C24 UNL     1       5.918  58.015  17.347  1.00  0.00     0.114 C 
BRANCH  18  19
HETATM   19  C25 UNL     1       6.375  58.247  15.904  1.00  0.00     0.122 C 
BRANCH  19  20
HETATM   20  C26 UNL     1       7.072  57.067  15.391  1.00  0.00     0.172 C 
HETATM   21  O6  UNL     1       6.419  56.071  14.994  1.00  0.00    -0.648 OA
HETATM   22  O7  UNL     1       8.449  57.027  15.333  1.00  0.00    -0.648 OA
ENDBRANCH  19  20
ENDBRANCH  18  19
ENDBRANCH  13  18
ENDBRANCH   1   7
BRANCH   2  23
HETATM   23  C5  UNL     1       8.682  62.007  17.587  1.00  0.00     0.118 C 
BRANCH  23  24
HETATM   24  C6  UNL     1       9.527  61.430  16.471  1.00  0.00     0.010 C 
HETATM   25  C7  UNL     1       8.720  61.683  15.183  1.00  0.00     0.022 C 
HETATM   26  C8  UNL     1       9.904  60.012  16.622  1.00  0.00     0.022 C 
BRANCH  24  27
HETATM   27  C9  UNL     1      10.705  62.361  16.320  1.00  0.00     0.059 A 
HETATM   28  N2  UNL     1      11.172  63.286  17.110  1.00  0.00    -0.348 N 
HETATM   29  C10 UNL     1      12.227  63.971  16.775  1.00  0.00     0.107 A 
ATOM     30  H2  UNL     1      10.707  63.474  17.999  1.00  0.00     0.166 HD
HETATM   31  C16 UNL     1      12.807  63.665  15.565  1.00  0.00     0.086 A 
HETATM   32  S1  UNL     1      11.788  62.414  14.997  1.00  0.00    -0.085 SA
BRANCH  29  33
HETATM   33  C11 UNL     1      12.824  65.036  17.629  1.00  0.00     0.269 C 
HETATM   34  O2  UNL     1      12.120  65.883  18.222  1.00  0.00    -0.266 OA
HETATM   35  N3  UNL     1      14.234  65.131  17.802  1.00  0.00    -0.348 N 
ATOM     36  H3  UNL     1      14.835  64.452  17.335  1.00  0.00     0.163 HD
BRANCH  35  37
HETATM   37  C12 UNL     1      14.841  66.159  18.619  1.00  0.00     0.022 C 
HETATM   38  C13 UNL     1      14.618  65.824  20.077  1.00  0.00     0.037 C 
HETATM   39  C14 UNL     1      16.354  66.183  18.431  1.00  0.00     0.037 C 
HETATM   40  C15 UNL     1      14.339  67.542  18.281  1.00  0.00     0.037 C 
ENDBRANCH  35  37
ENDBRANCH  29  33
ENDBRANCH  24  27
ENDBRANCH  23  24
ENDBRANCH   2  23
TORSDOF 12
ENDMDL
