MODEL 1
REMARK VINA RESULT: -9.136736009      0.000      0.000
REMARK  14 active torsions:
REMARK  status: ('A' for Active; 'I' for Inactive)
REMARK    1  A    between atoms: C2_2  and  N1_3 
REMARK    2  A    between atoms: C2_2  and  C27_40 
REMARK    3  A    between atoms: N1_3  and  O1_4 
REMARK    4  A    between atoms: O1_4  and  C3_5 
REMARK    5  A    between atoms: C3_5  and  C4_6 
REMARK    6  A    between atoms: C4_6  and  N2_7 
REMARK       I    between atoms: N2_7  and  C5_9 
REMARK    7  A    between atoms: C5_9  and  C6_11 
REMARK    8  A    between atoms: C8_13  and  N3_14 
REMARK       I    between atoms: N3_14  and  C9_16 
REMARK    9  A    between atoms: C9_16  and  C10_18 
REMARK   10  A    between atoms: C12_20  and  O4_21 
REMARK   11  A    between atoms: O4_21  and  C13_22 
REMARK   12  A    between atoms: C13_22  and  C14_23 
REMARK   13  A    between atoms: C14_23  and  N4_24 
REMARK   14  A    between atoms: C20_30  and  C21_31 
ROOT
HETATM    1  N3  UNL     1      13.780  62.732  16.644  1.00  0.00    -0.308 N 
ATOM      2  H3  UNL     1      14.038  62.261  15.777  1.00  0.00     0.170 HD
HETATM    3  C9  UNL     1      13.080  61.945  17.552  1.00  0.00     0.257 C 
HETATM    4  O3  UNL     1      13.698  61.134  18.346  1.00  0.00    -0.267 OA
ENDROOT
BRANCH   1   5
HETATM    5  C8  UNL     1      14.147  63.940  16.722  1.00  0.00     0.126 A 
HETATM    6  C7  UNL     1      14.104  64.647  17.927  1.00  0.00     0.086 A 
HETATM    7  C6  UNL     1      14.584  65.909  17.678  1.00  0.00     0.119 A 
HETATM    8  N6  UNL     1      14.889  65.911  16.369  1.00  0.00    -0.292 N 
HETATM    9  N5  UNL     1      14.639  64.754  15.785  1.00  0.00    -0.280 N 
ATOM     10  H6  UNL     1      15.272  66.719  15.879  1.00  0.00     0.187 HD
HETATM   11  C26 UNL     1      14.866  64.501  14.348  1.00  0.00     0.179 C 
BRANCH   7  12
HETATM   12  C5  UNL     1      14.718  67.026  18.617  1.00  0.00     0.269 C 
HETATM   13  N2  UNL     1      15.376  66.823  19.837  1.00  0.00    -0.353 N 
ATOM     14  H2  UNL     1      15.747  65.898  20.056  1.00  0.00     0.162 HD
HETATM   15  O2  UNL     1      14.244  68.126  18.315  1.00  0.00    -0.266 OA
BRANCH  13  16
HETATM   16  C4  UNL     1      15.539  67.881  20.778  1.00  0.00     0.153 C 
BRANCH  16  17
HETATM   17  C3  UNL     1      16.968  68.106  21.176  1.00  0.00     0.237 C 
BRANCH  17  18
HETATM   18  O1  UNL     1      17.855  67.603  20.216  1.00  0.00    -0.207 OA
BRANCH  18  19
HETATM   19  N1  UNL     1      18.140  67.732  19.019  1.00  0.00    -0.279 NA
BRANCH  19  20
HETATM   20  C2  UNL     1      18.356  67.880  17.847  1.00  0.00     0.189 C 
HETATM   21  C1  UNL     1      18.594  69.240  17.265  1.00  0.00     0.095 C 
BRANCH  20  22
HETATM   22  C27 UNL     1      18.395  66.768  16.923  1.00  0.00     0.239 C 
HETATM   23  O5  UNL     1      17.872  66.823  15.790  1.00  0.00    -0.642 OA
HETATM   24  O6  UNL     1      19.020  65.560  17.247  1.00  0.00    -0.642 OA
ENDBRANCH  20  22
ENDBRANCH  19  20
ENDBRANCH  18  19
ENDBRANCH  17  18
ENDBRANCH  16  17
ENDBRANCH  13  16
ENDBRANCH   7  12
ENDBRANCH   1   5
BRANCH   3  25
HETATM   25  C10 UNL     1      11.631  61.961  17.694  1.00  0.00     0.035 A 
HETATM   26  C11 UNL     1      10.804  62.050  16.576  1.00  0.00     0.053 A 
HETATM   27  C12 UNL     1       9.433  62.025  16.747  1.00  0.00     0.070 A 
HETATM   28  C19 UNL     1       8.863  61.918  17.993  1.00  0.00     0.044 A 
HETATM   29  C20 UNL     1       9.658  61.830  19.125  1.00  0.00    -0.047 A 
HETATM   30  C25 UNL     1      11.014  61.855  18.933  1.00  0.00     0.025 A 
BRANCH  27  31
HETATM   31  O4  UNL     1       8.632  62.109  15.591  1.00  0.00    -0.349 OA
BRANCH  31  32
HETATM   32  C13 UNL     1       8.689  61.059  14.629  1.00  0.00     0.206 C 
BRANCH  32  33
HETATM   33  C14 UNL     1       7.632  60.050  15.039  1.00  0.00     0.299 C 
BRANCH  33  34
HETATM   34  N4  UNL     1       8.337  58.869  15.533  1.00  0.00     0.090 N 
HETATM   35  C15 UNL     1       7.407  57.807  15.906  1.00  0.00     0.272 C 
HETATM   36  C16 UNL     1       6.785  57.343  14.622  1.00  0.00     0.032 C 
HETATM   37  C17 UNL     1       7.882  57.587  13.615  1.00  0.00     0.032 C 
HETATM   38  C18 UNL     1       9.017  58.217  14.397  1.00  0.00     0.272 C 
ENDBRANCH  33  34
ENDBRANCH  32  33
ENDBRANCH  31  32
ENDBRANCH  27  31
BRANCH  29  39
HETATM   39  C21 UNL     1       9.096  61.696  20.481  1.00  0.00    -0.024 C 
HETATM   40  C22 UNL     1       8.301  60.403  20.572  1.00  0.00     0.019 C 
HETATM   41  C23 UNL     1      10.194  61.733  21.528  1.00  0.00     0.019 C 
HETATM   42  C24 UNL     1       8.170  62.871  20.812  1.00  0.00     0.019 C 
ENDBRANCH  29  39
ENDBRANCH   3  25
TORSDOF 14
ENDMDL
MODEL 2
REMARK VINA RESULT: -9.112239370      1.907      3.087
REMARK  14 active torsions:
REMARK  status: ('A' for Active; 'I' for Inactive)
REMARK    1  A    between atoms: C2_2  and  N1_3 
REMARK    2  A    between atoms: C2_2  and  C27_40 
REMARK    3  A    between atoms: N1_3  and  O1_4 
REMARK    4  A    between atoms: O1_4  and  C3_5 
REMARK    5  A    between atoms: C3_5  and  C4_6 
REMARK    6  A    between atoms: C4_6  and  N2_7 
REMARK       I    between atoms: N2_7  and  C5_9 
REMARK    7  A    between atoms: C5_9  and  C6_11 
REMARK    8  A    between atoms: C8_13  and  N3_14 
REMARK       I    between atoms: N3_14  and  C9_16 
REMARK    9  A    between atoms: C9_16  and  C10_18 
REMARK   10  A    between atoms: C12_20  and  O4_21 
REMARK   11  A    between atoms: O4_21  and  C13_22 
REMARK   12  A    between atoms: C13_22  and  C14_23 
REMARK   13  A    between atoms: C14_23  and  N4_24 
REMARK   14  A    between atoms: C20_30  and  C21_31 
ROOT
HETATM    1  N3  UNL     1      12.586  65.759  18.405  1.00  0.00    -0.308 N 
ATOM      2  H3  UNL     1      12.293  66.381  19.158  1.00  0.00     0.170 HD
HETATM    3  C9  UNL     1      11.548  65.225  17.650  1.00  0.00     0.257 C 
HETATM    4  O3  UNL     1      11.006  65.898  16.689  1.00  0.00    -0.267 OA
ENDROOT
BRANCH   1   5
HETATM    5  C8  UNL     1      13.837  65.597  18.305  1.00  0.00     0.126 A 
HETATM    6  C7  UNL     1      14.703  66.668  18.069  1.00  0.00     0.086 A 
HETATM    7  C6  UNL     1      15.979  66.162  18.037  1.00  0.00     0.119 A 
HETATM    8  N6  UNL     1      15.834  64.843  18.250  1.00  0.00    -0.292 N 
HETATM    9  N5  UNL     1      14.572  64.488  18.412  1.00  0.00    -0.280 N 
ATOM     10  H6  UNL     1      16.613  64.186  18.282  1.00  0.00     0.187 HD
HETATM   11  C26 UNL     1      14.142  63.094  18.640  1.00  0.00     0.179 C 
BRANCH   7  12
HETATM   12  C5  UNL     1      17.231  66.886  17.800  1.00  0.00     0.269 C 
HETATM   13  N2  UNL     1      17.187  68.184  17.277  1.00  0.00    -0.353 N 
ATOM     14  H2  UNL     1      16.283  68.605  17.062  1.00  0.00     0.162 HD
HETATM   15  O2  UNL     1      18.304  66.333  18.066  1.00  0.00    -0.266 OA
BRANCH  13  16
HETATM   16  C4  UNL     1      18.378  68.930  17.040  1.00  0.00     0.153 C 
BRANCH  16  17
HETATM   17  C3  UNL     1      18.483  69.449  15.636  1.00  0.00     0.237 C 
BRANCH  17  18
HETATM   18  O1  UNL     1      18.547  68.404  14.706  1.00  0.00    -0.207 OA
BRANCH  18  19
HETATM   19  N1  UNL     1      17.939  67.377  14.379  1.00  0.00    -0.279 NA
BRANCH  19  20
HETATM   20  C2  UNL     1      17.293  66.409  14.081  1.00  0.00     0.189 C 
HETATM   21  C1  UNL     1      16.261  66.465  12.996  1.00  0.00     0.095 C 
BRANCH  20  22
HETATM   22  C27 UNL     1      17.459  65.136  14.747  1.00  0.00     0.239 C 
HETATM   23  O5  UNL     1      18.583  64.659  15.005  1.00  0.00    -0.642 OA
HETATM   24  O6  UNL     1      16.364  64.360  15.141  1.00  0.00    -0.642 OA
ENDBRANCH  20  22
ENDBRANCH  19  20
ENDBRANCH  18  19
ENDBRANCH  17  18
ENDBRANCH  16  17
ENDBRANCH  13  16
ENDBRANCH   7  12
ENDBRANCH   1   5
BRANCH   3  25
HETATM   25  C10 UNL     1      10.991  63.896  17.860  1.00  0.00     0.035 A 
HETATM   26  C11 UNL     1      10.994  62.949  16.838  1.00  0.00     0.053 A 
HETATM   27  C12 UNL     1      10.490  61.686  17.086  1.00  0.00     0.070 A 
HETATM   28  C19 UNL     1       9.983  61.340  18.315  1.00  0.00     0.044 A 
HETATM   29  C20 UNL     1       9.964  62.260  19.353  1.00  0.00    -0.047 A 
HETATM   30  C25 UNL     1      10.469  63.505  19.086  1.00  0.00     0.025 A 
BRANCH  27  31
HETATM   31  O4  UNL     1      10.518  60.756  16.029  1.00  0.00    -0.349 OA
BRANCH  31  32
HETATM   32  C13 UNL     1       9.679  60.966  14.897  1.00  0.00     0.206 C 
BRANCH  32  33
HETATM   33  C14 UNL     1       8.413  60.170  15.152  1.00  0.00     0.299 C 
BRANCH  33  34
HETATM   34  N4  UNL     1       8.826  58.834  15.576  1.00  0.00     0.090 N 
HETATM   35  C15 UNL     1       7.708  58.078  16.135  1.00  0.00     0.272 C 
HETATM   36  C16 UNL     1       6.780  57.819  14.986  1.00  0.00     0.032 C 
HETATM   37  C17 UNL     1       7.721  57.746  13.809  1.00  0.00     0.032 C 
HETATM   38  C18 UNL     1       9.100  58.021  14.375  1.00  0.00     0.272 C 
ENDBRANCH  33  34
ENDBRANCH  32  33
ENDBRANCH  31  32
ENDBRANCH  27  31
BRANCH  29  39
HETATM   39  C21 UNL     1       9.447  61.933  20.694  1.00  0.00    -0.024 C 
HETATM   40  C22 UNL     1       8.764  63.157  21.283  1.00  0.00     0.019 C 
HETATM   41  C23 UNL     1       8.493  60.755  20.633  1.00  0.00     0.019 C 
HETATM   42  C24 UNL     1      10.579  61.499  21.631  1.00  0.00     0.019 C 
ENDBRANCH  29  39
ENDBRANCH   3  25
TORSDOF 14
ENDMDL
MODEL 3
REMARK VINA RESULT: -8.934901212      1.363      3.706
REMARK  14 active torsions:
REMARK  status: ('A' for Active; 'I' for Inactive)
REMARK    1  A    between atoms: C2_2  and  N1_3 
REMARK    2  A    between atoms: C2_2  and  C27_40 
REMARK    3  A    between atoms: N1_3  and  O1_4 
REMARK    4  A    between atoms: O1_4  and  C3_5 
REMARK    5  A    between atoms: C3_5  and  C4_6 
REMARK    6  A    between atoms: C4_6  and  N2_7 
REMARK       I    between atoms: N2_7  and  C5_9 
REMARK    7  A    between atoms: C5_9  and  C6_11 
REMARK    8  A    between atoms: C8_13  and  N3_14 
REMARK       I    between atoms: N3_14  and  C9_16 
REMARK    9  A    between atoms: C9_16  and  C10_18 
REMARK   10  A    between atoms: C12_20  and  O4_21 
REMARK   11  A    between atoms: O4_21  and  C13_22 
REMARK   12  A    between atoms: C13_22  and  C14_23 
REMARK   13  A    between atoms: C14_23  and  N4_24 
REMARK   14  A    between atoms: C20_30  and  C21_31 
ROOT
HETATM    1  N3  UNL     1      13.881  62.652  16.632  1.00  0.00    -0.308 N 
ATOM      2  H3  UNL     1      14.316  62.162  15.851  1.00  0.00     0.170 HD
HETATM    3  C9  UNL     1      13.104  61.854  17.465  1.00  0.00     0.257 C 
HETATM    4  O3  UNL     1      13.643  61.142  18.399  1.00  0.00    -0.267 OA
ENDROOT
BRANCH   1   5
HETATM    5  C8  UNL     1      14.134  63.890  16.690  1.00  0.00     0.126 A 
HETATM    6  C7  UNL     1      14.175  64.578  17.906  1.00  0.00     0.086 A 
HETATM    7  C6  UNL     1      14.491  65.885  17.626  1.00  0.00     0.119 A 
HETATM    8  N6  UNL     1      14.626  65.929  16.290  1.00  0.00    -0.292 N 
HETATM    9  N5  UNL     1      14.420  64.758  15.717  1.00  0.00    -0.280 N 
ATOM     10  H6  UNL     1      14.863  66.776  15.773  1.00  0.00     0.187 HD
HETATM   11  C26 UNL     1      14.487  64.542  14.257  1.00  0.00     0.179 C 
BRANCH   7  12
HETATM   12  C5  UNL     1      14.632  67.000  18.566  1.00  0.00     0.269 C 
HETATM   13  N2  UNL     1      15.339  66.809  19.760  1.00  0.00    -0.353 N 
ATOM     14  H2  UNL     1      15.739  65.893  19.961  1.00  0.00     0.162 HD
HETATM   15  O2  UNL     1      14.122  68.090  18.286  1.00  0.00    -0.266 OA
BRANCH  13  16
HETATM   16  C4  UNL     1      15.510  67.867  20.700  1.00  0.00     0.153 C 
BRANCH  16  17
HETATM   17  C3  UNL     1      16.912  67.974  21.223  1.00  0.00     0.237 C 
BRANCH  17  18
HETATM   18  O1  UNL     1      17.848  67.532  20.281  1.00  0.00    -0.207 OA
BRANCH  18  19
HETATM   19  N1  UNL     1      18.122  67.649  19.080  1.00  0.00    -0.279 NA
BRANCH  19  20
HETATM   20  C2  UNL     1      18.325  67.779  17.903  1.00  0.00     0.189 C 
HETATM   21  C1  UNL     1      18.652  69.116  17.311  1.00  0.00     0.095 C 
BRANCH  20  22
HETATM   22  C27 UNL     1      18.263  66.666  16.982  1.00  0.00     0.239 C 
HETATM   23  O5  UNL     1      17.529  66.676  15.972  1.00  0.00    -0.642 OA
HETATM   24  O6  UNL     1      19.022  65.507  17.172  1.00  0.00    -0.642 OA
ENDBRANCH  20  22
ENDBRANCH  19  20
ENDBRANCH  18  19
ENDBRANCH  17  18
ENDBRANCH  16  17
ENDBRANCH  13  16
ENDBRANCH   7  12
ENDBRANCH   1   5
BRANCH   3  25
HETATM   25  C10 UNL     1      11.656  61.749  17.369  1.00  0.00     0.035 A 
HETATM   26  C11 UNL     1      10.837  62.195  18.405  1.00  0.00     0.053 A 
HETATM   27  C12 UNL     1       9.464  62.114  18.263  1.00  0.00     0.070 A 
HETATM   28  C19 UNL     1       8.885  61.601  17.128  1.00  0.00     0.044 A 
HETATM   29  C20 UNL     1       9.672  61.148  16.081  1.00  0.00    -0.047 A 
HETATM   30  C25 UNL     1      11.029  61.238  16.241  1.00  0.00     0.025 A 
BRANCH  27  31
HETATM   31  O4  UNL     1       8.672  62.582  19.330  1.00  0.00    -0.349 OA
BRANCH  31  32
HETATM   32  C13 UNL     1       9.163  62.467  20.662  1.00  0.00     0.206 C 
BRANCH  32  33
HETATM   33  C14 UNL     1       8.911  61.032  21.085  1.00  0.00     0.299 C 
BRANCH  33  34
HETATM   34  N4  UNL     1       7.573  60.676  20.618  1.00  0.00     0.090 N 
HETATM   35  C15 UNL     1       7.550  59.347  20.015  1.00  0.00     0.272 C 
HETATM   36  C16 UNL     1       7.804  58.387  21.140  1.00  0.00     0.032 C 
HETATM   37  C17 UNL     1       7.209  59.103  22.328  1.00  0.00     0.032 C 
HETATM   38  C18 UNL     1       6.712  60.432  21.793  1.00  0.00     0.272 C 
ENDBRANCH  33  34
ENDBRANCH  32  33
ENDBRANCH  31  32
ENDBRANCH  27  31
BRANCH  29  39
HETATM   39  C21 UNL     1       9.099  60.605  14.835  1.00  0.00    -0.024 C 
HETATM   40  C22 UNL     1       7.995  61.529  14.345  1.00  0.00     0.019 C 
HETATM   41  C23 UNL     1      10.172  60.433  13.776  1.00  0.00     0.019 C 
HETATM   42  C24 UNL     1       8.513  59.208  15.060  1.00  0.00     0.019 C 
ENDBRANCH  29  39
ENDBRANCH   3  25
TORSDOF 14
ENDMDL
MODEL 4
REMARK VINA RESULT: -8.918119507      1.840      3.088
REMARK  14 active torsions:
REMARK  status: ('A' for Active; 'I' for Inactive)
REMARK    1  A    between atoms: C2_2  and  N1_3 
REMARK    2  A    between atoms: C2_2  and  C27_40 
REMARK    3  A    between atoms: N1_3  and  O1_4 
REMARK    4  A    between atoms: O1_4  and  C3_5 
REMARK    5  A    between atoms: C3_5  and  C4_6 
REMARK    6  A    between atoms: C4_6  and  N2_7 
REMARK       I    between atoms: N2_7  and  C5_9 
REMARK    7  A    between atoms: C5_9  and  C6_11 
REMARK    8  A    between atoms: C8_13  and  N3_14 
REMARK       I    between atoms: N3_14  and  C9_16 
REMARK    9  A    between atoms: C9_16  and  C10_18 
REMARK   10  A    between atoms: C12_20  and  O4_21 
REMARK   11  A    between atoms: O4_21  and  C13_22 
REMARK   12  A    between atoms: C13_22  and  C14_23 
REMARK   13  A    between atoms: C14_23  and  N4_24 
REMARK   14  A    between atoms: C20_30  and  C21_31 
ROOT
HETATM    1  N3  UNL     1      13.054  65.042  17.655  1.00  0.00    -0.308 N 
ATOM      2  H3  UNL     1      13.270  65.514  18.533  1.00  0.00     0.170 HD
HETATM    3  C9  UNL     1      11.697  64.927  17.371  1.00  0.00     0.257 C 
HETATM    4  O3  UNL     1      11.042  65.905  16.839  1.00  0.00    -0.267 OA
ENDROOT
BRANCH   1   5
HETATM    5  C8  UNL     1      14.062  64.653  16.998  1.00  0.00     0.126 A 
HETATM    6  C7  UNL     1      14.767  65.514  16.153  1.00  0.00     0.086 A 
HETATM    7  C6  UNL     1      15.805  64.795  15.611  1.00  0.00     0.119 A 
HETATM    8  N6  UNL     1      15.686  63.565  16.139  1.00  0.00    -0.292 N 
HETATM    9  N5  UNL     1      14.661  63.460  16.964  1.00  0.00    -0.280 N 
ATOM     10  H6  UNL     1      16.320  62.795  15.926  1.00  0.00     0.187 HD
HETATM   11  C26 UNL     1      14.299  62.208  17.658  1.00  0.00     0.179 C 
BRANCH   7  12
HETATM   12  C5  UNL     1      16.814  65.251  14.651  1.00  0.00     0.269 C 
HETATM   13  N2  UNL     1      16.824  66.592  14.249  1.00  0.00    -0.353 N 
ATOM     14  H2  UNL     1      16.124  67.232  14.625  1.00  0.00     0.162 HD
HETATM   15  O2  UNL     1      17.637  64.439  14.213  1.00  0.00    -0.266 OA
BRANCH  13  16
HETATM   16  C4  UNL     1      17.792  67.083  13.324  1.00  0.00     0.153 C 
BRANCH  16  17
HETATM   17  C3  UNL     1      18.166  68.516  13.562  1.00  0.00     0.237 C 
BRANCH  17  18
HETATM   18  O1  UNL     1      18.706  68.702  14.840  1.00  0.00    -0.207 OA
BRANCH  18  19
HETATM   19  N1  UNL     1      18.469  68.436  16.026  1.00  0.00    -0.279 NA
BRANCH  19  20
HETATM   20  C2  UNL     1      18.174  68.181  17.162  1.00  0.00     0.189 C 
HETATM   21  C1  UNL     1      17.793  69.260  18.129  1.00  0.00     0.095 C 
BRANCH  20  22
HETATM   22  C27 UNL     1      18.171  66.828  17.672  1.00  0.00     0.239 C 
HETATM   23  O5  UNL     1      18.917  65.939  17.211  1.00  0.00    -0.642 OA
HETATM   24  O6  UNL     1      17.327  66.434  18.715  1.00  0.00    -0.642 OA
ENDBRANCH  20  22
ENDBRANCH  19  20
ENDBRANCH  18  19
ENDBRANCH  17  18
ENDBRANCH  16  17
ENDBRANCH  13  16
ENDBRANCH   7  12
ENDBRANCH   1   5
BRANCH   3  25
HETATM   25  C10 UNL     1      10.911  63.730  17.635  1.00  0.00     0.035 A 
HETATM   26  C11 UNL     1      10.564  62.861  16.602  1.00  0.00     0.053 A 
HETATM   27  C12 UNL     1       9.848  61.715  16.896  1.00  0.00     0.070 A 
HETATM   28  C19 UNL     1       9.466  61.412  18.181  1.00  0.00     0.044 A 
HETATM   29  C20 UNL     1       9.794  62.258  19.230  1.00  0.00    -0.047 A 
HETATM   30  C25 UNL     1      10.504  63.387  18.917  1.00  0.00     0.025 A 
BRANCH  27  31
HETATM   31  O4  UNL     1       9.524  60.859  15.826  1.00  0.00    -0.349 OA
BRANCH  31  32
HETATM   32  C13 UNL     1       8.446  61.205  14.961  1.00  0.00     0.206 C 
BRANCH  32  33
HETATM   33  C14 UNL     1       7.500  60.019  14.966  1.00  0.00     0.299 C 
BRANCH  33  34
HETATM   34  N4  UNL     1       8.271  58.858  15.402  1.00  0.00     0.090 N 
HETATM   35  C15 UNL     1       7.403  57.781  15.869  1.00  0.00     0.272 C 
HETATM   36  C16 UNL     1       6.674  57.291  14.653  1.00  0.00     0.032 C 
HETATM   37  C17 UNL     1       7.667  57.547  13.546  1.00  0.00     0.032 C 
HETATM   38  C18 UNL     1       8.857  58.207  14.213  1.00  0.00     0.272 C 
ENDBRANCH  33  34
ENDBRANCH  32  33
ENDBRANCH  31  32
ENDBRANCH  27  31
BRANCH  29  39
HETATM   39  C21 UNL     1       9.423  61.970  20.627  1.00  0.00    -0.024 C 
HETATM   40  C22 UNL     1       8.422  60.825  20.656  1.00  0.00     0.019 C 
HETATM   41  C23 UNL     1      10.650  61.639  21.455  1.00  0.00     0.019 C 
HETATM   42  C24 UNL     1       8.792  63.195  21.295  1.00  0.00     0.019 C 
ENDBRANCH  29  39
ENDBRANCH   3  25
TORSDOF 14
ENDMDL
MODEL 5
REMARK VINA RESULT: -8.904056385      2.100      4.630
REMARK  14 active torsions:
REMARK  status: ('A' for Active; 'I' for Inactive)
REMARK    1  A    between atoms: C2_2  and  N1_3 
REMARK    2  A    between atoms: C2_2  and  C27_40 
REMARK    3  A    between atoms: N1_3  and  O1_4 
REMARK    4  A    between atoms: O1_4  and  C3_5 
REMARK    5  A    between atoms: C3_5  and  C4_6 
REMARK    6  A    between atoms: C4_6  and  N2_7 
REMARK       I    between atoms: N2_7  and  C5_9 
REMARK    7  A    between atoms: C5_9  and  C6_11 
REMARK    8  A    between atoms: C8_13  and  N3_14 
REMARK       I    between atoms: N3_14  and  C9_16 
REMARK    9  A    between atoms: C9_16  and  C10_18 
REMARK   10  A    between atoms: C12_20  and  O4_21 
REMARK   11  A    between atoms: O4_21  and  C13_22 
REMARK   12  A    between atoms: C13_22  and  C14_23 
REMARK   13  A    between atoms: C14_23  and  N4_24 
REMARK   14  A    between atoms: C20_30  and  C21_31 
ROOT
HETATM    1  N3  UNL     1      14.942  62.874  15.411  1.00  0.00    -0.308 N 
ATOM      2  H3  UNL     1      15.216  62.106  14.798  1.00  0.00     0.170 HD
HETATM    3  C9  UNL     1      14.208  62.495  16.531  1.00  0.00     0.257 C 
HETATM    4  O3  UNL     1      14.794  62.047  17.592  1.00  0.00    -0.267 OA
ENDROOT
BRANCH   1   5
HETATM    5  C8  UNL     1      15.323  64.019  15.033  1.00  0.00     0.126 A 
HETATM    6  C7  UNL     1      16.374  64.690  15.662  1.00  0.00     0.086 A 
HETATM    7  C6  UNL     1      16.547  65.884  15.005  1.00  0.00     0.119 A 
HETATM    8  N6  UNL     1      15.619  65.882  14.034  1.00  0.00    -0.292 N 
HETATM    9  N5  UNL     1      14.883  64.786  14.033  1.00  0.00    -0.280 N 
ATOM     10  H6  UNL     1      15.495  66.646  13.369  1.00  0.00     0.187 HD
HETATM   11  C26 UNL     1      13.780  64.546  13.081  1.00  0.00     0.179 C 
BRANCH   7  12
HETATM   12  C5  UNL     1      17.514  66.945  15.302  1.00  0.00     0.269 C 
HETATM   13  N2  UNL     1      17.572  67.481  16.594  1.00  0.00    -0.353 N 
ATOM     14  H2  UNL     1      16.936  67.129  17.310  1.00  0.00     0.162 HD
HETATM   15  O2  UNL     1      18.258  67.349  14.401  1.00  0.00    -0.266 OA
BRANCH  13  16
HETATM   16  C4  UNL     1      18.502  68.508  16.932  1.00  0.00     0.153 C 
BRANCH  16  17
HETATM   17  C3  UNL     1      18.698  68.668  18.410  1.00  0.00     0.237 C 
BRANCH  17  18
HETATM   18  O1  UNL     1      18.170  67.583  19.119  1.00  0.00    -0.207 OA
BRANCH  18  19
HETATM   19  N1  UNL     1      17.084  67.126  19.499  1.00  0.00    -0.279 NA
BRANCH  19  20
HETATM   20  C2  UNL     1      16.000  66.737  19.840  1.00  0.00     0.189 C 
HETATM   21  C1  UNL     1      15.496  66.956  21.234  1.00  0.00     0.095 C 
BRANCH  20  22
HETATM   22  C27 UNL     1      15.116  66.029  18.940  1.00  0.00     0.239 C 
HETATM   23  O5  UNL     1      14.781  64.842  19.130  1.00  0.00    -0.642 OA
HETATM   24  O6  UNL     1      14.585  66.637  17.798  1.00  0.00    -0.642 OA
ENDBRANCH  20  22
ENDBRANCH  19  20
ENDBRANCH  18  19
ENDBRANCH  17  18
ENDBRANCH  16  17
ENDBRANCH  13  16
ENDBRANCH   7  12
ENDBRANCH   1   5
BRANCH   3  25
HETATM   25  C10 UNL     1      12.756  62.567  16.613  1.00  0.00     0.035 A 
HETATM   26  C11 UNL     1      12.132  63.528  17.407  1.00  0.00     0.053 A 
HETATM   27  C12 UNL     1      10.751  63.590  17.431  1.00  0.00     0.070 A 
HETATM   28  C19 UNL     1       9.977  62.726  16.695  1.00  0.00     0.044 A 
HETATM   29  C20 UNL     1      10.568  61.758  15.897  1.00  0.00    -0.047 A 
HETATM   30  C25 UNL     1      11.937  61.715  15.886  1.00  0.00     0.025 A 
BRANCH  27  31
HETATM   31  O4  UNL     1      10.160  64.580  18.239  1.00  0.00    -0.349 OA
BRANCH  31  32
HETATM   32  C13 UNL     1      10.417  64.578  19.640  1.00  0.00     0.206 C 
BRANCH  32  33
HETATM   33  C14 UNL     1       9.265  63.827  20.283  1.00  0.00     0.299 C 
BRANCH  33  34
HETATM   34  N4  UNL     1       9.819  62.603  20.856  1.00  0.00     0.090 N 
HETATM   35  C15 UNL     1       9.177  62.267  22.125  1.00  0.00     0.272 C 
HETATM   36  C16 UNL     1       7.766  61.895  21.779  1.00  0.00     0.032 C 
HETATM   37  C17 UNL     1       7.905  61.318  20.391  1.00  0.00     0.032 C 
HETATM   38  C18 UNL     1       9.373  61.456  20.040  1.00  0.00     0.272 C 
ENDBRANCH  33  34
ENDBRANCH  32  33
ENDBRANCH  31  32
ENDBRANCH  27  31
BRANCH  29  39
HETATM   39  C21 UNL     1       9.782  60.820  15.075  1.00  0.00    -0.024 C 
HETATM   40  C22 UNL     1       8.502  61.502  14.616  1.00  0.00     0.019 C 
HETATM   41  C23 UNL     1      10.592  60.330  13.889  1.00  0.00     0.019 C 
HETATM   42  C24 UNL     1       9.414  59.564  15.871  1.00  0.00     0.019 C 
ENDBRANCH  29  39
ENDBRANCH   3  25
TORSDOF 14
ENDMDL
