MODEL 1
REMARK VINA RESULT: -9.011673127      0.000      0.000
REMARK  12 active torsions:
REMARK  status: ('A' for Active; 'I' for Inactive)
REMARK    1  A    between atoms: C2_2  and  N1_3 
REMARK    2  A    between atoms: N1_3  and  C3_4 
REMARK    3  A    between atoms: N1_3  and  C5_6 
REMARK    4  A    between atoms: C6_9  and  N3_10 
REMARK    5  A    between atoms: C10_14  and  C11_15 
REMARK       I    between atoms: C11_15  and  N4_17 
REMARK    6  A    between atoms: N4_17  and  C12_19 
REMARK    7  A    between atoms: C12_19  and  C14_21 
REMARK    8  A    between atoms: C12_19  and  C15_24 
REMARK    9  A    between atoms: C14_21  and  O2_22 
REMARK       I    between atoms: C15_24  and  N5_26 
REMARK   10  A    between atoms: N5_26  and  C16_28 
REMARK   11  A    between atoms: C16_28  and  C17_29 
REMARK   12  A    between atoms: C23_36  and  N7_37 
ROOT
HETATM    1  C17 UNL     1       5.933  58.770  18.851  1.00  0.00     0.154 C 
HETATM    2  C18 UNL     1       6.257  60.059  19.508  1.00  0.00     0.061 C 
HETATM    3  N6  UNL     1       6.517  61.072  20.003  1.00  0.00    -0.197 NA
ENDROOT
BRANCH   1   4
HETATM    4  C16 UNL     1       5.833  59.073  17.382  1.00  0.00     0.045 C 
HETATM    5  C19 UNL     1       5.495  57.890  16.485  1.00  0.00     0.032 C 
HETATM    6  C20 UNL     1       4.581  58.859  15.715  1.00  0.00     0.005 C 
HETATM    7  C21 UNL     1       4.427  59.600  17.028  1.00  0.00     0.032 C 
BRANCH   4   8
HETATM    8  N5  UNL     1       6.835  59.954  16.900  1.00  0.00    -0.349 N 
HETATM    9  C15 UNL     1       8.130  59.547  16.488  1.00  0.00     0.248 C 
HETATM   10  O3  UNL     1       8.438  58.350  16.537  1.00  0.00    -0.271 OA
ATOM     11  H5  UNL     1       6.609  60.947  16.847  1.00  0.00     0.163 HD
BRANCH   9  12
HETATM   12  C12 UNL     1       9.134  60.528  15.994  1.00  0.00     0.131 C 
HETATM   13  C13 UNL     1      10.003  59.739  15.002  1.00  0.00     0.051 C 
BRANCH  12  14
HETATM   14  N4  UNL     1       9.979  60.918  17.100  1.00  0.00    -0.340 N 
HETATM   15  C11 UNL     1      10.976  61.901  16.935  1.00  0.00     0.241 C 
HETATM   16  O1  UNL     1      11.145  62.442  15.829  1.00  0.00    -0.271 OA
ATOM     17  H4  UNL     1       9.853  60.477  18.011  1.00  0.00     0.163 HD
BRANCH  15  18
HETATM   18  C10 UNL     1      11.834  62.301  18.075  1.00  0.00     0.178 C 
HETATM   19  N3  UNL     1      12.065  63.721  18.045  1.00  0.00    -0.354 N 
HETATM   20  C7  UNL     1      10.882  64.365  18.546  1.00  0.00     0.125 C 
HETATM   21  C8  UNL     1      10.278  63.441  19.556  1.00  0.00     0.022 C 
HETATM   22  C9  UNL     1      10.968  62.116  19.322  1.00  0.00     0.037 C 
BRANCH  19  23
HETATM   23  C6  UNL     1      13.248  64.351  17.564  1.00  0.00     0.107 A 
HETATM   24  N2  UNL     1      13.753  64.093  16.360  1.00  0.00    -0.328 N 
HETATM   25  C5  UNL     1      14.879  64.696  15.830  1.00  0.00     0.113 A 
ATOM     26  H2  UNL     1      13.274  63.400  15.786  1.00  0.00     0.169 HD
HETATM   27  C29 UNL     1      15.560  65.632  16.555  1.00  0.00     0.009 A 
HETATM   28  C23 UNL     1      15.052  65.924  17.828  1.00  0.00     0.043 A 
HETATM   29  C30 UNL     1      16.755  66.343  16.094  1.00  0.00     0.054 C 
HETATM   30  C22 UNL     1      13.911  65.289  18.320  1.00  0.00     0.078 A 
BRANCH  25  31
HETATM   31  N1  UNL     1      15.269  64.298  14.532  1.00  0.00    -0.367 N 
BRANCH  31  32
HETATM   32  C2  UNL     1      14.597  65.006  13.421  1.00  0.00     0.120 C 
HETATM   33  C1  UNL     1      14.158  64.110  12.317  1.00  0.00     0.026 C 
ENDBRANCH  31  32
BRANCH  31  34
HETATM   34  C3  UNL     1      16.273  63.366  14.197  1.00  0.00     0.120 C 
HETATM   35  C4  UNL     1      17.634  63.911  13.853  1.00  0.00     0.026 C 
ENDBRANCH  31  34
ENDBRANCH  25  31
BRANCH  28  36
HETATM   36  N7  UNL     1      15.729  66.860  18.644  1.00  0.00    -0.380 N 
HETATM   37  C24 UNL     1      17.098  66.646  19.015  1.00  0.00     0.123 C 
HETATM   38  C25 UNL     1      17.613  67.813  19.841  1.00  0.00     0.020 C 
HETATM   39  C26 UNL     1      16.676  67.959  21.021  1.00  0.00     0.003 C 
HETATM   40  C27 UNL     1      15.266  68.233  20.596  1.00  0.00     0.020 C 
HETATM   41  C28 UNL     1      15.041  68.038  19.110  1.00  0.00     0.123 C 
ENDBRANCH  28  36
ENDBRANCH  19  23
ENDBRANCH  15  18
ENDBRANCH  12  14
BRANCH  12  42
HETATM   42  C14 UNL     1       8.527  61.710  15.341  1.00  0.00     0.204 C 
BRANCH  42  43
HETATM   43  O2  UNL     1       7.397  61.439  14.594  1.00  0.00    -0.398 OA
ATOM     44  H2  UNL     1       7.266  62.016  13.850  1.00  0.00     0.209 HD
ENDBRANCH  42  43
ENDBRANCH  12  42
ENDBRANCH   9  12
ENDBRANCH   4   8
ENDBRANCH   1   4
TORSDOF 12
ENDMDL
MODEL 2
REMARK VINA RESULT: -8.982850415      2.435     10.703
REMARK  12 active torsions:
REMARK  status: ('A' for Active; 'I' for Inactive)
REMARK    1  A    between atoms: C2_2  and  N1_3 
REMARK    2  A    between atoms: N1_3  and  C3_4 
REMARK    3  A    between atoms: N1_3  and  C5_6 
REMARK    4  A    between atoms: C6_9  and  N3_10 
REMARK    5  A    between atoms: C10_14  and  C11_15 
REMARK       I    between atoms: C11_15  and  N4_17 
REMARK    6  A    between atoms: N4_17  and  C12_19 
REMARK    7  A    between atoms: C12_19  and  C14_21 
REMARK    8  A    between atoms: C12_19  and  C15_24 
REMARK    9  A    between atoms: C14_21  and  O2_22 
REMARK       I    between atoms: C15_24  and  N5_26 
REMARK   10  A    between atoms: N5_26  and  C16_28 
REMARK   11  A    between atoms: C16_28  and  C17_29 
REMARK   12  A    between atoms: C23_36  and  N7_37 
ROOT
HETATM    1  C17 UNL     1      16.697  65.191  15.713  1.00  0.00     0.154 C 
HETATM    2  C18 UNL     1      17.503  65.849  14.656  1.00  0.00     0.061 C 
HETATM    3  N6  UNL     1      18.122  66.352  13.817  1.00  0.00    -0.197 NA
ENDROOT
BRANCH   1   4
HETATM    4  C16 UNL     1      15.466  64.671  15.024  1.00  0.00     0.045 C 
HETATM    5  C19 UNL     1      14.929  65.536  13.890  1.00  0.00     0.032 C 
HETATM    6  C20 UNL     1      14.675  64.219  13.136  1.00  0.00     0.005 C 
HETATM    7  C21 UNL     1      15.843  63.659  13.922  1.00  0.00     0.032 C 
BRANCH   4   8
HETATM    8  N5  UNL     1      14.496  64.121  15.900  1.00  0.00    -0.349 N 
HETATM    9  C15 UNL     1      13.882  64.830  16.964  1.00  0.00     0.248 C 
HETATM   10  O3  UNL     1      14.189  66.012  17.168  1.00  0.00    -0.271 OA
ATOM     11  H5  UNL     1      14.222  63.150  15.756  1.00  0.00     0.163 HD
BRANCH   9  12
HETATM   12  C12 UNL     1      12.873  64.188  17.848  1.00  0.00     0.131 C 
HETATM   13  C13 UNL     1      13.617  63.909  19.164  1.00  0.00     0.051 C 
BRANCH  12  14
HETATM   14  N4  UNL     1      12.504  62.913  17.276  1.00  0.00    -0.340 N 
HETATM   15  C11 UNL     1      11.330  62.249  17.686  1.00  0.00     0.241 C 
HETATM   16  O1  UNL     1      10.597  62.753  18.554  1.00  0.00    -0.271 OA
ATOM     17  H4  UNL     1      13.102  62.488  16.567  1.00  0.00     0.163 HD
BRANCH  15  18
HETATM   18  C10 UNL     1      10.955  60.946  17.090  1.00  0.00     0.178 C 
HETATM   19  N3  UNL     1       9.598  60.990  16.618  1.00  0.00    -0.354 N 
HETATM   20  C7  UNL     1       9.593  61.704  15.370  1.00  0.00     0.125 C 
HETATM   21  C8  UNL     1      10.906  61.428  14.707  1.00  0.00     0.022 C 
HETATM   22  C9  UNL     1      11.769  60.838  15.800  1.00  0.00     0.037 C 
BRANCH  19  23
HETATM   23  C6  UNL     1       8.471  60.450  17.301  1.00  0.00     0.107 A 
HETATM   24  N2  UNL     1       8.387  60.428  18.629  1.00  0.00    -0.328 N 
HETATM   25  C5  UNL     1       7.307  59.944  19.345  1.00  0.00     0.113 A 
ATOM     26  H2  UNL     1       9.178  60.796  19.158  1.00  0.00     0.169 HD
HETATM   27  C29 UNL     1       6.221  59.440  18.688  1.00  0.00     0.009 A 
HETATM   28  C23 UNL     1       6.281  59.449  17.288  1.00  0.00     0.043 A 
HETATM   29  C30 UNL     1       5.019  58.913  19.338  1.00  0.00     0.054 C 
HETATM   30  C22 UNL     1       7.394  59.948  16.610  1.00  0.00     0.078 A 
BRANCH  25  31
HETATM   31  N1  UNL     1       7.393  60.004  20.754  1.00  0.00    -0.367 N 
BRANCH  31  32
HETATM   32  C2  UNL     1       6.936  61.270  21.366  1.00  0.00     0.120 C 
HETATM   33  C1  UNL     1       8.037  62.229  21.654  1.00  0.00     0.026 C 
ENDBRANCH  31  32
BRANCH  31  34
HETATM   34  C3  UNL     1       7.789  58.966  21.624  1.00  0.00     0.120 C 
HETATM   35  C4  UNL     1       7.195  58.960  23.007  1.00  0.00     0.026 C 
ENDBRANCH  31  34
ENDBRANCH  25  31
BRANCH  28  36
HETATM   36  N7  UNL     1       5.203  58.911  16.546  1.00  0.00    -0.380 N 
HETATM   37  C24 UNL     1       4.056  59.716  16.241  1.00  0.00     0.123 C 
HETATM   38  C25 UNL     1       3.069  58.935  15.391  1.00  0.00     0.020 C 
HETATM   39  C26 UNL     1       2.742  57.670  16.157  1.00  0.00     0.003 C 
HETATM   40  C27 UNL     1       3.955  56.830  16.411  1.00  0.00     0.020 C 
HETATM   41  C28 UNL     1       5.253  57.543  16.094  1.00  0.00     0.123 C 
ENDBRANCH  28  36
ENDBRANCH  19  23
ENDBRANCH  15  18
ENDBRANCH  12  14
BRANCH  12  42
HETATM   42  C14 UNL     1      11.679  65.033  18.085  1.00  0.00     0.204 C 
BRANCH  42  43
HETATM   43  O2  UNL     1      11.091  65.533  16.941  1.00  0.00    -0.398 OA
ATOM     44  H2  UNL     1      11.012  66.480  16.917  1.00  0.00     0.209 HD
ENDBRANCH  42  43
ENDBRANCH  12  42
ENDBRANCH   9  12
ENDBRANCH   4   8
ENDBRANCH   1   4
TORSDOF 12
ENDMDL
MODEL 3
REMARK VINA RESULT: -8.904146549      2.708     10.748
REMARK  12 active torsions:
REMARK  status: ('A' for Active; 'I' for Inactive)
REMARK    1  A    between atoms: C2_2  and  N1_3 
REMARK    2  A    between atoms: N1_3  and  C3_4 
REMARK    3  A    between atoms: N1_3  and  C5_6 
REMARK    4  A    between atoms: C6_9  and  N3_10 
REMARK    5  A    between atoms: C10_14  and  C11_15 
REMARK       I    between atoms: C11_15  and  N4_17 
REMARK    6  A    between atoms: N4_17  and  C12_19 
REMARK    7  A    between atoms: C12_19  and  C14_21 
REMARK    8  A    between atoms: C12_19  and  C15_24 
REMARK    9  A    between atoms: C14_21  and  O2_22 
REMARK       I    between atoms: C15_24  and  N5_26 
REMARK   10  A    between atoms: N5_26  and  C16_28 
REMARK   11  A    between atoms: C16_28  and  C17_29 
REMARK   12  A    between atoms: C23_36  and  N7_37 
ROOT
HETATM    1  C17 UNL     1      16.791  65.221  15.251  1.00  0.00     0.154 C 
HETATM    2  C18 UNL     1      17.555  66.047  14.284  1.00  0.00     0.061 C 
HETATM    3  N6  UNL     1      18.140  66.683  13.514  1.00  0.00    -0.197 NA
ENDROOT
BRANCH   1   4
HETATM    4  C16 UNL     1      15.490  64.895  14.571  1.00  0.00     0.045 C 
HETATM    5  C19 UNL     1      15.109  65.800  13.406  1.00  0.00     0.032 C 
HETATM    6  C20 UNL     1      14.635  64.521  12.694  1.00  0.00     0.005 C 
HETATM    7  C21 UNL     1      15.691  63.797  13.506  1.00  0.00     0.032 C 
BRANCH   4   8
HETATM    8  N5  UNL     1      14.440  64.548  15.459  1.00  0.00    -0.349 N 
HETATM    9  C15 UNL     1      14.319  63.291  16.106  1.00  0.00     0.248 C 
HETATM   10  O3  UNL     1      15.171  62.417  15.906  1.00  0.00    -0.271 OA
ATOM     11  H5  UNL     1      13.724  65.249  15.645  1.00  0.00     0.163 HD
BRANCH   9  12
HETATM   12  C12 UNL     1      13.188  62.994  17.025  1.00  0.00     0.131 C 
HETATM   13  C13 UNL     1      13.850  62.550  18.339  1.00  0.00     0.051 C 
BRANCH  12  14
HETATM   14  N4  UNL     1      12.454  61.864  16.502  1.00  0.00    -0.340 N 
HETATM   15  C11 UNL     1      11.221  61.479  17.066  1.00  0.00     0.241 C 
HETATM   16  O1  UNL     1      10.750  62.108  18.030  1.00  0.00    -0.271 OA
ATOM     17  H4  UNL     1      12.834  61.337  15.715  1.00  0.00     0.163 HD
BRANCH  15  18
HETATM   18  C10 UNL     1      10.471  60.324  16.521  1.00  0.00     0.178 C 
HETATM   19  N3  UNL     1       9.087  60.672  16.342  1.00  0.00    -0.354 N 
HETATM   20  C7  UNL     1       8.988  61.462  15.145  1.00  0.00     0.125 C 
HETATM   21  C8  UNL     1      10.057  60.980  14.216  1.00  0.00     0.022 C 
HETATM   22  C9  UNL     1      10.975  60.151  15.087  1.00  0.00     0.037 C 
BRANCH  19  23
HETATM   23  C6  UNL     1       8.029  60.319  17.226  1.00  0.00     0.107 A 
HETATM   24  N2  UNL     1       8.117  60.484  18.544  1.00  0.00    -0.328 N 
HETATM   25  C5  UNL     1       7.113  60.187  19.447  1.00  0.00     0.113 A 
ATOM     26  H2  UNL     1       8.991  60.858  18.915  1.00  0.00     0.169 HD
HETATM   27  C29 UNL     1       5.922  59.684  19.006  1.00  0.00     0.009 A 
HETATM   28  C23 UNL     1       5.800  59.497  17.622  1.00  0.00     0.043 A 
HETATM   29  C30 UNL     1       4.786  59.344  19.865  1.00  0.00     0.054 C 
HETATM   30  C22 UNL     1       6.843  59.813  16.750  1.00  0.00     0.078 A 
BRANCH  25  31
HETATM   31  N1  UNL     1       7.384  60.431  20.812  1.00  0.00    -0.367 N 
BRANCH  31  32
HETATM   32  C2  UNL     1       7.944  59.287  21.563  1.00  0.00     0.120 C 
HETATM   33  C1  UNL     1       7.197  58.965  22.810  1.00  0.00     0.026 C 
ENDBRANCH  31  32
BRANCH  31  34
HETATM   34  C3  UNL     1       7.251  61.657  21.497  1.00  0.00     0.120 C 
HETATM   35  C4  UNL     1       8.509  62.442  21.758  1.00  0.00     0.026 C 
ENDBRANCH  31  34
ENDBRANCH  25  31
BRANCH  28  36
HETATM   36  N7  UNL     1       4.605  58.948  17.101  1.00  0.00    -0.380 N 
HETATM   37  C24 UNL     1       4.544  57.566  16.724  1.00  0.00     0.123 C 
HETATM   38  C25 UNL     1       3.145  57.206  16.252  1.00  0.00     0.020 C 
HETATM   39  C26 UNL     1       2.806  58.161  15.128  1.00  0.00     0.003 C 
HETATM   40  C27 UNL     1       2.829  59.592  15.571  1.00  0.00     0.020 C 
HETATM   41  C28 UNL     1       3.439  59.781  16.945  1.00  0.00     0.123 C 
ENDBRANCH  28  36
ENDBRANCH  19  23
ENDBRANCH  15  18
ENDBRANCH  12  14
BRANCH  12  42
HETATM   42  C14 UNL     1      12.294  64.154  17.249  1.00  0.00     0.204 C 
BRANCH  42  43
HETATM   43  O2  UNL     1      11.615  64.584  16.126  1.00  0.00    -0.398 OA
ATOM     44  H2  UNL     1      11.798  65.481  15.871  1.00  0.00     0.209 HD
ENDBRANCH  42  43
ENDBRANCH  12  42
ENDBRANCH   9  12
ENDBRANCH   4   8
ENDBRANCH   1   4
TORSDOF 12
ENDMDL
MODEL 4
REMARK VINA RESULT: -8.833916817      0.666      1.828
REMARK  12 active torsions:
REMARK  status: ('A' for Active; 'I' for Inactive)
REMARK    1  A    between atoms: C2_2  and  N1_3 
REMARK    2  A    between atoms: N1_3  and  C3_4 
REMARK    3  A    between atoms: N1_3  and  C5_6 
REMARK    4  A    between atoms: C6_9  and  N3_10 
REMARK    5  A    between atoms: C10_14  and  C11_15 
REMARK       I    between atoms: C11_15  and  N4_17 
REMARK    6  A    between atoms: N4_17  and  C12_19 
REMARK    7  A    between atoms: C12_19  and  C14_21 
REMARK    8  A    between atoms: C12_19  and  C15_24 
REMARK    9  A    between atoms: C14_21  and  O2_22 
REMARK       I    between atoms: C15_24  and  N5_26 
REMARK   10  A    between atoms: N5_26  and  C16_28 
REMARK   11  A    between atoms: C16_28  and  C17_29 
REMARK   12  A    between atoms: C23_36  and  N7_37 
ROOT
HETATM    1  C17 UNL     1       5.423  58.474  17.241  1.00  0.00     0.154 C 
HETATM    2  C18 UNL     1       4.499  59.333  16.462  1.00  0.00     0.061 C 
HETATM    3  N6  UNL     1       3.778  60.017  15.869  1.00  0.00    -0.197 NA
ENDROOT
BRANCH   1   4
HETATM    4  C16 UNL     1       6.111  59.391  18.214  1.00  0.00     0.045 C 
HETATM    5  C19 UNL     1       5.206  60.073  19.231  1.00  0.00     0.032 C 
HETATM    6  C20 UNL     1       6.320  59.804  20.258  1.00  0.00     0.005 C 
HETATM    7  C21 UNL     1       6.671  58.596  19.412  1.00  0.00     0.032 C 
BRANCH   4   8
HETATM    8  N5  UNL     1       7.119  60.203  17.634  1.00  0.00    -0.349 N 
HETATM    9  C15 UNL     1       8.177  59.714  16.826  1.00  0.00     0.248 C 
HETATM   10  O3  UNL     1       8.253  58.502  16.587  1.00  0.00    -0.271 OA
ATOM     11  H5  UNL     1       7.082  61.206  17.812  1.00  0.00     0.163 HD
BRANCH   9  12
HETATM   12  C12 UNL     1       9.204  60.625  16.252  1.00  0.00     0.131 C 
HETATM   13  C13 UNL     1      10.041  59.739  15.315  1.00  0.00     0.051 C 
BRANCH  12  14
HETATM   14  N4  UNL     1      10.070  61.073  17.318  1.00  0.00    -0.340 N 
HETATM   15  C11 UNL     1      11.182  61.896  17.048  1.00  0.00     0.241 C 
HETATM   16  O1  UNL     1      11.435  62.243  15.882  1.00  0.00    -0.271 OA
ATOM     17  H4  UNL     1       9.875  60.789  18.278  1.00  0.00     0.163 HD
BRANCH  15  18
HETATM   18  C10 UNL     1      12.062  62.358  18.147  1.00  0.00     0.178 C 
HETATM   19  N3  UNL     1      12.244  63.782  18.071  1.00  0.00    -0.354 N 
HETATM   20  C7  UNL     1      11.056  64.401  18.592  1.00  0.00     0.125 C 
HETATM   21  C8  UNL     1      10.516  63.487  19.647  1.00  0.00     0.022 C 
HETATM   22  C9  UNL     1      11.243  62.179  19.427  1.00  0.00     0.037 C 
BRANCH  19  23
HETATM   23  C6  UNL     1      13.388  64.438  17.534  1.00  0.00     0.107 A 
HETATM   24  N2  UNL     1      13.834  64.197  16.303  1.00  0.00    -0.328 N 
HETATM   25  C5  UNL     1      14.920  64.824  15.720  1.00  0.00     0.113 A 
ATOM     26  H2  UNL     1      13.338  63.499  15.749  1.00  0.00     0.169 HD
HETATM   27  C29 UNL     1      15.621  65.768  16.416  1.00  0.00     0.009 A 
HETATM   28  C23 UNL     1      15.175  66.042  17.716  1.00  0.00     0.043 A 
HETATM   29  C30 UNL     1      16.777  66.504  15.899  1.00  0.00     0.054 C 
HETATM   30  C22 UNL     1      14.072  65.382  18.261  1.00  0.00     0.078 A 
BRANCH  25  31
HETATM   31  N1  UNL     1      15.248  64.442  14.400  1.00  0.00    -0.367 N 
BRANCH  31  32
HETATM   32  C2  UNL     1      16.184  63.304  14.281  1.00  0.00     0.120 C 
HETATM   33  C1  UNL     1      17.599  63.711  14.063  1.00  0.00     0.026 C 
ENDBRANCH  31  32
BRANCH  31  34
HETATM   34  C3  UNL     1      14.720  64.978  13.206  1.00  0.00     0.120 C 
HETATM   35  C4  UNL     1      14.539  64.035  12.047  1.00  0.00     0.026 C 
ENDBRANCH  31  34
ENDBRANCH  25  31
BRANCH  28  36
HETATM   36  N7  UNL     1      15.876  66.985  18.503  1.00  0.00    -0.380 N 
HETATM   37  C24 UNL     1      17.258  66.777  18.827  1.00  0.00     0.123 C 
HETATM   38  C25 UNL     1      17.798  67.951  19.627  1.00  0.00     0.020 C 
HETATM   39  C26 UNL     1      16.902  68.099  20.839  1.00  0.00     0.003 C 
HETATM   40  C27 UNL     1      15.477  68.366  20.462  1.00  0.00     0.020 C 
HETATM   41  C28 UNL     1      15.200  68.162  18.987  1.00  0.00     0.123 C 
ENDBRANCH  28  36
ENDBRANCH  19  23
ENDBRANCH  15  18
ENDBRANCH  12  14
BRANCH  12  42
HETATM   42  C14 UNL     1       8.624  61.772  15.515  1.00  0.00     0.204 C 
BRANCH  42  43
HETATM   43  O2  UNL     1       7.481  61.478  14.798  1.00  0.00    -0.398 OA
ATOM     44  H2  UNL     1       7.593  61.481  13.855  1.00  0.00     0.209 HD
ENDBRANCH  42  43
ENDBRANCH  12  42
ENDBRANCH   9  12
ENDBRANCH   4   8
ENDBRANCH   1   4
TORSDOF 12
ENDMDL
MODEL 5
REMARK VINA RESULT: -8.808956710      2.356     10.083
REMARK  12 active torsions:
REMARK  status: ('A' for Active; 'I' for Inactive)
REMARK    1  A    between atoms: C2_2  and  N1_3 
REMARK    2  A    between atoms: N1_3  and  C3_4 
REMARK    3  A    between atoms: N1_3  and  C5_6 
REMARK    4  A    between atoms: C6_9  and  N3_10 
REMARK    5  A    between atoms: C10_14  and  C11_15 
REMARK       I    between atoms: C11_15  and  N4_17 
REMARK    6  A    between atoms: N4_17  and  C12_19 
REMARK    7  A    between atoms: C12_19  and  C14_21 
REMARK    8  A    between atoms: C12_19  and  C15_24 
REMARK    9  A    between atoms: C14_21  and  O2_22 
REMARK       I    between atoms: C15_24  and  N5_26 
REMARK   10  A    between atoms: N5_26  and  C16_28 
REMARK   11  A    between atoms: C16_28  and  C17_29 
REMARK   12  A    between atoms: C23_36  and  N7_37 
ROOT
HETATM    1  C17 UNL     1      14.419  64.963  16.037  1.00  0.00     0.154 C 
HETATM    2  C18 UNL     1      15.089  63.695  15.660  1.00  0.00     0.061 C 
HETATM    3  N6  UNL     1      15.616  62.702  15.384  1.00  0.00    -0.197 NA
ENDROOT
BRANCH   1   4
HETATM    4  C16 UNL     1      14.080  64.828  17.495  1.00  0.00     0.045 C 
HETATM    5  C19 UNL     1      15.100  65.406  18.467  1.00  0.00     0.032 C 
HETATM    6  C20 UNL     1      13.895  65.919  19.275  1.00  0.00     0.005 C 
HETATM    7  C21 UNL     1      13.160  65.979  17.951  1.00  0.00     0.032 C 
BRANCH   4   8
HETATM    8  N5  UNL     1      13.525  63.571  17.850  1.00  0.00    -0.349 N 
HETATM    9  C15 UNL     1      12.319  63.048  17.318  1.00  0.00     0.248 C 
HETATM   10  O3  UNL     1      11.683  63.705  16.485  1.00  0.00    -0.271 OA
ATOM     11  H5  UNL     1      14.028  63.006  18.533  1.00  0.00     0.163 HD
BRANCH   9  12
HETATM   12  C12 UNL     1      11.794  61.721  17.738  1.00  0.00     0.131 C 
HETATM   13  C13 UNL     1      11.704  60.901  16.441  1.00  0.00     0.051 C 
BRANCH  12  14
HETATM   14  N4  UNL     1      10.449  61.894  18.238  1.00  0.00    -0.340 N 
HETATM   15  C11 UNL     1      10.203  62.652  19.402  1.00  0.00     0.241 C 
HETATM   16  O1  UNL     1      11.147  63.177  20.018  1.00  0.00    -0.271 OA
ATOM     17  H4  UNL     1       9.668  61.463  17.744  1.00  0.00     0.163 HD
BRANCH  15  18
HETATM   18  C10 UNL     1       8.822  62.832  19.905  1.00  0.00     0.178 C 
HETATM   19  N3  UNL     1       8.198  61.552  20.107  1.00  0.00    -0.354 N 
HETATM   20  C7  UNL     1       8.709  61.007  21.336  1.00  0.00     0.125 C 
HETATM   21  C8  UNL     1       8.999  62.165  22.238  1.00  0.00     0.022 C 
HETATM   22  C9  UNL     1       8.974  63.373  21.327  1.00  0.00     0.037 C 
BRANCH  19  23
HETATM   23  C6  UNL     1       7.272  60.938  19.217  1.00  0.00     0.107 A 
HETATM   24  N2  UNL     1       5.962  60.923  19.450  1.00  0.00    -0.328 N 
HETATM   25  C5  UNL     1       5.016  60.368  18.608  1.00  0.00     0.113 A 
ATOM     26  H2  UNL     1       5.631  61.353  20.314  1.00  0.00     0.169 HD
HETATM   27  C29 UNL     1       5.401  59.779  17.438  1.00  0.00     0.009 A 
HETATM   28  C23 UNL     1       6.776  59.779  17.165  1.00  0.00     0.043 A 
HETATM   29  C30 UNL     1       4.491  59.172  16.464  1.00  0.00     0.054 C 
HETATM   30  C22 UNL     1       7.694  60.352  18.047  1.00  0.00     0.078 A 
BRANCH  25  31
HETATM   31  N1  UNL     1       3.666  60.448  19.019  1.00  0.00    -0.367 N 
BRANCH  31  32
HETATM   32  C2  UNL     1       3.239  59.428  20.000  1.00  0.00     0.120 C 
HETATM   33  C1  UNL     1       1.826  59.577  20.444  1.00  0.00     0.026 C 
ENDBRANCH  31  32
BRANCH  31  34
HETATM   34  C3  UNL     1       2.725  61.433  18.652  1.00  0.00     0.120 C 
HETATM   35  C4  UNL     1       3.049  62.861  19.004  1.00  0.00     0.026 C 
ENDBRANCH  31  34
ENDBRANCH  25  31
BRANCH  28  36
HETATM   36  N7  UNL     1       7.247  59.156  15.985  1.00  0.00    -0.380 N 
HETATM   37  C24 UNL     1       7.456  57.737  15.946  1.00  0.00     0.123 C 
HETATM   38  C25 UNL     1       7.905  57.305  14.560  1.00  0.00     0.020 C 
HETATM   39  C26 UNL     1       9.141  58.115  14.231  1.00  0.00     0.003 C 
HETATM   40  C27 UNL     1       8.872  59.588  14.230  1.00  0.00     0.020 C 
HETATM   41  C28 UNL     1       7.521  59.948  14.813  1.00  0.00     0.123 C 
ENDBRANCH  28  36
ENDBRANCH  19  23
ENDBRANCH  15  18
ENDBRANCH  12  14
BRANCH  12  42
HETATM   42  C14 UNL     1      12.652  61.039  18.734  1.00  0.00     0.204 C 
BRANCH  42  43
HETATM   43  O2  UNL     1      14.003  61.070  18.449  1.00  0.00    -0.398 OA
ATOM     44  H2  UNL     1      14.569  61.099  19.212  1.00  0.00     0.209 HD
ENDBRANCH  42  43
ENDBRANCH  12  42
ENDBRANCH   9  12
ENDBRANCH   4   8
ENDBRANCH   1   4
TORSDOF 12
ENDMDL
