MODEL 1
REMARK VINA RESULT: -9.495120349      0.000      0.000
REMARK  13 active torsions:
REMARK  status: ('A' for Active; 'I' for Inactive)
REMARK    1  A    between atoms: C2_2  and  N1_3 
REMARK    2  A    between atoms: N2_6  and  C5_7 
REMARK    3  A    between atoms: C5_7  and  C6_8 
REMARK    4  A    between atoms: C6_8  and  C7_9 
REMARK    5  A    between atoms: C7_9  and  N3_10 
REMARK    6  A    between atoms: N3_10  and  C8_11 
REMARK    7  A    between atoms: N3_10  and  C22_28 
REMARK    8  A    between atoms: C8_11  and  C9_12 
REMARK    9  A    between atoms: C9_12  and  C10_13 
REMARK   10  A    between atoms: C10_13  and  C11_14 
REMARK   11  A    between atoms: C22_28  and  O2_29 
REMARK   12  A    between atoms: C22_28  and  C23_31 
REMARK   13  A    between atoms: C24_35  and  C25_36 
ROOT
HETATM    1  N3  UNL     1      12.879  62.123  17.459  1.00  0.00    -0.361 N 
ENDROOT
BRANCH   1   2
HETATM    2  C7  UNL     1      12.068  61.468  18.549  1.00  0.00     0.127 C 
BRANCH   2   3
HETATM    3  C6  UNL     1      11.474  62.548  19.412  1.00  0.00     0.050 C 
BRANCH   3   4
HETATM    4  C5  UNL     1      10.751  61.899  20.568  1.00  0.00     0.274 C 
BRANCH   4   5
HETATM    5  N2  UNL     1       9.361  62.215  20.595  1.00  0.00     0.091 N 
HETATM    6  C4  UNL     1       8.554  61.415  21.469  1.00  0.00     0.302 C 
HETATM    7  C3  UNL     1       8.121  60.124  20.857  1.00  0.00     0.302 C 
HETATM    8  N1  UNL     1       7.244  60.455  19.738  1.00  0.00     0.091 N 
HETATM    9  C28 UNL     1       8.098  61.128  18.771  1.00  0.00     0.302 C 
HETATM   10  C27 UNL     1       8.721  62.367  19.329  1.00  0.00     0.302 C 
BRANCH   8  11
HETATM   11  C2  UNL     1       6.755  59.241  19.157  1.00  0.00     0.268 C 
HETATM   12  C1  UNL     1       7.853  58.344  18.655  1.00  0.00     0.037 C 
ENDBRANCH   8  11
ENDBRANCH   4   5
ENDBRANCH   3   4
ENDBRANCH   2   3
ENDBRANCH   1   2
BRANCH   1  13
HETATM   13  C8  UNL     1      12.394  62.000  16.131  1.00  0.00     0.125 C 
BRANCH  13  14
HETATM   14  C9  UNL     1      10.930  62.354  15.943  1.00  0.00     0.021 C 
BRANCH  14  15
HETATM   15  C10 UNL     1      10.232  61.595  14.872  1.00  0.00     0.016 C 
BRANCH  15  16
HETATM   16  C11 UNL     1       9.556  60.332  15.275  1.00  0.00     0.082 C 
HETATM   17  C12 UNL     1       8.052  60.575  15.066  1.00  0.00     0.055 C 
HETATM   18  C13 UNL     1       7.270  59.346  15.173  1.00  0.00    -0.030 A 
HETATM   19  C14 UNL     1       5.929  59.485  15.507  1.00  0.00     0.016 A 
HETATM   20  C20 UNL     1       7.741  58.067  14.976  1.00  0.00     0.041 A 
HETATM   21  C15 UNL     1       5.120  58.376  15.631  1.00  0.00    -0.055 A 
HETATM   22  C16 UNL     1       3.692  58.580  15.989  1.00  0.00     0.049 C 
HETATM   23  C17 UNL     1       5.602  57.092  15.430  1.00  0.00    -0.054 A 
HETATM   24  C18 UNL     1       4.689  55.927  15.575  1.00  0.00     0.049 C 
HETATM   25  C19 UNL     1       6.929  56.954  15.100  1.00  0.00     0.037 A 
HETATM   26  N4  UNL     1       9.129  57.932  14.628  1.00  0.00    -0.326 N 
HETATM   27  C21 UNL     1       9.934  59.131  14.508  1.00  0.00     0.226 C 
ATOM     28  H4  UNL     1       9.538  57.012  14.470  1.00  0.00     0.169 HD
HETATM   29  O1  UNL     1      10.912  59.078  13.753  1.00  0.00    -0.273 OA
ENDBRANCH  15  16
ENDBRANCH  14  15
ENDBRANCH  13  14
ENDBRANCH   1  13
BRANCH   1  30
HETATM   30  C22 UNL     1      14.076  62.715  17.827  1.00  0.00     0.159 C 
BRANCH  30  31
HETATM   31  O2  UNL     1      14.852  61.972  18.559  1.00  0.00    -0.345 OA
ATOM     32  H2  UNL     1      15.394  62.447  19.179  1.00  0.00     0.219 HD
ENDBRANCH  30  31
BRANCH  30  33
HETATM   33  C23 UNL     1      14.571  64.060  17.507  1.00  0.00     0.099 A 
HETATM   34  S1  UNL     1      15.129  64.765  16.065  1.00  0.00    -0.008 SA
HETATM   35  N5  UNL     1      15.387  66.319  16.590  1.00  0.00    -0.320 N 
HETATM   36  C24 UNL     1      15.046  66.305  17.881  1.00  0.00     0.130 A 
ATOM     37  H5  UNL     1      15.730  67.110  16.045  1.00  0.00     0.174 HD
HETATM   38  C26 UNL     1      14.613  65.128  18.389  1.00  0.00     0.101 A 
HETATM   39  N7  UNL     1      14.221  64.980  19.782  1.00  0.00    -0.098 NA
BRANCH  36  40
HETATM   40  C25 UNL     1      15.157  67.560  18.664  1.00  0.00     0.283 C 
HETATM   41  N6  UNL     1      16.259  67.752  19.504  1.00  0.00    -0.056 NA
HETATM   42  O3  UNL     1      14.276  68.416  18.561  1.00  0.00    -0.269 OA
ENDBRANCH  36  40
ENDBRANCH  30  33
ENDBRANCH   1  30
TORSDOF 13
ENDMDL
MODEL 2
REMARK VINA RESULT: -9.439670111      1.630      1.960
REMARK  13 active torsions:
REMARK  status: ('A' for Active; 'I' for Inactive)
REMARK    1  A    between atoms: C2_2  and  N1_3 
REMARK    2  A    between atoms: N2_6  and  C5_7 
REMARK    3  A    between atoms: C5_7  and  C6_8 
REMARK    4  A    between atoms: C6_8  and  C7_9 
REMARK    5  A    between atoms: C7_9  and  N3_10 
REMARK    6  A    between atoms: N3_10  and  C8_11 
REMARK    7  A    between atoms: N3_10  and  C22_28 
REMARK    8  A    between atoms: C8_11  and  C9_12 
REMARK    9  A    between atoms: C9_12  and  C10_13 
REMARK   10  A    between atoms: C10_13  and  C11_14 
REMARK   11  A    between atoms: C22_28  and  O2_29 
REMARK   12  A    between atoms: C22_28  and  C23_31 
REMARK   13  A    between atoms: C24_35  and  C25_36 
ROOT
HETATM    1  N3  UNL     1      12.324  62.327  17.913  1.00  0.00    -0.361 N 
ENDROOT
BRANCH   1   2
HETATM    2  C7  UNL     1      11.832  61.640  19.163  1.00  0.00     0.127 C 
BRANCH   2   3
HETATM    3  C6  UNL     1      10.968  62.606  19.926  1.00  0.00     0.050 C 
BRANCH   3   4
HETATM    4  C5  UNL     1      10.271  61.857  21.037  1.00  0.00     0.274 C 
BRANCH   4   5
HETATM    5  N2  UNL     1       8.856  62.027  21.012  1.00  0.00     0.091 N 
HETATM    6  C4  UNL     1       8.100  61.104  21.806  1.00  0.00     0.302 C 
HETATM    7  C3  UNL     1       7.830  59.810  21.113  1.00  0.00     0.302 C 
HETATM    8  N1  UNL     1       6.973  60.110  19.971  1.00  0.00     0.091 N 
HETATM    9  C28 UNL     1       7.792  60.916  19.079  1.00  0.00     0.302 C 
HETATM   10  C27 UNL     1       8.258  62.181  19.726  1.00  0.00     0.302 C 
BRANCH   8  11
HETATM   11  C2  UNL     1       6.638  58.885  19.308  1.00  0.00     0.268 C 
HETATM   12  C1  UNL     1       7.802  58.272  18.580  1.00  0.00     0.037 C 
ENDBRANCH   8  11
ENDBRANCH   4   5
ENDBRANCH   3   4
ENDBRANCH   2   3
ENDBRANCH   1   2
BRANCH   1  13
HETATM   13  C8  UNL     1      11.373  62.557  16.886  1.00  0.00     0.125 C 
BRANCH  13  14
HETATM   14  C9  UNL     1      11.704  61.920  15.548  1.00  0.00     0.021 C 
BRANCH  14  15
HETATM   15  C10 UNL     1      10.525  61.529  14.729  1.00  0.00     0.016 C 
BRANCH  15  16
HETATM   16  C11 UNL     1       9.784  60.312  15.156  1.00  0.00     0.082 C 
HETATM   17  C12 UNL     1       8.292  60.654  15.003  1.00  0.00     0.055 C 
HETATM   18  C13 UNL     1       7.436  59.478  15.139  1.00  0.00    -0.030 A 
HETATM   19  C14 UNL     1       6.120  59.704  15.522  1.00  0.00     0.016 A 
HETATM   20  C20 UNL     1       7.815  58.172  14.923  1.00  0.00     0.041 A 
HETATM   21  C15 UNL     1       5.246  58.649  15.675  1.00  0.00    -0.055 A 
HETATM   22  C16 UNL     1       3.849  58.944  16.086  1.00  0.00     0.049 C 
HETATM   23  C17 UNL     1       5.634  57.337  15.456  1.00  0.00    -0.054 A 
HETATM   24  C18 UNL     1       4.654  56.233  15.634  1.00  0.00     0.049 C 
HETATM   25  C19 UNL     1       6.937  57.114  15.077  1.00  0.00     0.037 A 
HETATM   26  N4  UNL     1       9.177  57.948  14.524  1.00  0.00    -0.326 N 
HETATM   27  C21 UNL     1      10.054  59.092  14.375  1.00  0.00     0.226 C 
ATOM     28  H4  UNL     1       9.519  57.003  14.350  1.00  0.00     0.169 HD
HETATM   29  O1  UNL     1      10.998  58.977  13.584  1.00  0.00    -0.273 OA
ENDBRANCH  15  16
ENDBRANCH  14  15
ENDBRANCH  13  14
ENDBRANCH   1  13
BRANCH   1  30
HETATM   30  C22 UNL     1      13.680  62.599  17.831  1.00  0.00     0.159 C 
BRANCH  30  31
HETATM   31  O2  UNL     1      14.453  61.701  18.368  1.00  0.00    -0.345 OA
ATOM     32  H2  UNL     1      15.352  61.712  18.062  1.00  0.00     0.219 HD
ENDBRANCH  30  31
BRANCH  30  33
HETATM   33  C23 UNL     1      14.348  63.760  17.227  1.00  0.00     0.099 A 
HETATM   34  S1  UNL     1      14.365  65.411  17.628  1.00  0.00    -0.008 SA
HETATM   35  N5  UNL     1      15.437  65.969  16.489  1.00  0.00    -0.320 N 
HETATM   36  C24 UNL     1      15.789  64.885  15.791  1.00  0.00     0.130 A 
ATOM     37  H5  UNL     1      15.756  66.927  16.353  1.00  0.00     0.174 HD
HETATM   38  C26 UNL     1      15.230  63.709  16.159  1.00  0.00     0.101 A 
HETATM   39  N7  UNL     1      15.523  62.461  15.473  1.00  0.00    -0.098 NA
BRANCH  36  40
HETATM   40  C25 UNL     1      16.757  65.035  14.677  1.00  0.00     0.283 C 
HETATM   41  N6  UNL     1      18.128  65.025  14.951  1.00  0.00    -0.056 NA
HETATM   42  O3  UNL     1      16.336  65.166  13.526  1.00  0.00    -0.269 OA
ENDBRANCH  36  40
ENDBRANCH  30  33
ENDBRANCH   1  30
TORSDOF 13
ENDMDL
MODEL 3
REMARK VINA RESULT: -9.378956324      1.930      2.564
REMARK  13 active torsions:
REMARK  status: ('A' for Active; 'I' for Inactive)
REMARK    1  A    between atoms: C2_2  and  N1_3 
REMARK    2  A    between atoms: N2_6  and  C5_7 
REMARK    3  A    between atoms: C5_7  and  C6_8 
REMARK    4  A    between atoms: C6_8  and  C7_9 
REMARK    5  A    between atoms: C7_9  and  N3_10 
REMARK    6  A    between atoms: N3_10  and  C8_11 
REMARK    7  A    between atoms: N3_10  and  C22_28 
REMARK    8  A    between atoms: C8_11  and  C9_12 
REMARK    9  A    between atoms: C9_12  and  C10_13 
REMARK   10  A    between atoms: C10_13  and  C11_14 
REMARK   11  A    between atoms: C22_28  and  O2_29 
REMARK   12  A    between atoms: C22_28  and  C23_31 
REMARK   13  A    between atoms: C24_35  and  C25_36 
ROOT
HETATM    1  N3  UNL     1      12.354  64.501  18.008  1.00  0.00    -0.361 N 
ENDROOT
BRANCH   1   2
HETATM    2  C7  UNL     1      11.335  64.839  19.067  1.00  0.00     0.127 C 
BRANCH   2   3
HETATM    3  C6  UNL     1      10.154  63.923  18.898  1.00  0.00     0.050 C 
BRANCH   3   4
HETATM    4  C5  UNL     1       9.969  63.131  20.170  1.00  0.00     0.274 C 
BRANCH   4   5
HETATM    5  N2  UNL     1       8.612  63.096  20.604  1.00  0.00     0.091 N 
HETATM    6  C4  UNL     1       8.399  62.685  21.961  1.00  0.00     0.302 C 
HETATM    7  C3  UNL     1       8.359  61.202  22.130  1.00  0.00     0.302 C 
HETATM    8  N1  UNL     1       7.187  60.722  21.406  1.00  0.00     0.091 N 
HETATM    9  C28 UNL     1       7.468  60.990  20.004  1.00  0.00     0.302 C 
HETATM   10  C27 UNL     1       7.684  62.445  19.737  1.00  0.00     0.302 C 
BRANCH   8  11
HETATM   11  C2  UNL     1       7.074  59.307  21.591  1.00  0.00     0.268 C 
HETATM   12  C1  UNL     1       7.491  58.519  20.380  1.00  0.00     0.037 C 
ENDBRANCH   8  11
ENDBRANCH   4   5
ENDBRANCH   3   4
ENDBRANCH   2   3
ENDBRANCH   1   2
BRANCH   1  13
HETATM   13  C8  UNL     1      11.878  64.346  16.680  1.00  0.00     0.125 C 
BRANCH  13  14
HETATM   14  C9  UNL     1      12.825  63.628  15.736  1.00  0.00     0.021 C 
BRANCH  14  15
HETATM   15  C10 UNL     1      12.695  62.147  15.720  1.00  0.00     0.016 C 
BRANCH  15  16
HETATM   16  C11 UNL     1      11.360  61.586  16.062  1.00  0.00     0.082 C 
HETATM   17  C12 UNL     1      11.072  60.511  15.001  1.00  0.00     0.055 C 
HETATM   18  C13 UNL     1       9.914  59.688  15.342  1.00  0.00    -0.030 A 
HETATM   19  C14 UNL     1       9.262  59.059  14.289  1.00  0.00     0.016 A 
HETATM   20  C20 UNL     1       9.412  59.484  16.608  1.00  0.00     0.041 A 
HETATM   21  C15 UNL     1       8.159  58.266  14.524  1.00  0.00    -0.055 A 
HETATM   22  C16 UNL     1       7.498  57.615  13.363  1.00  0.00     0.049 C 
HETATM   23  C17 UNL     1       7.659  58.065  15.801  1.00  0.00    -0.054 A 
HETATM   24  C18 UNL     1       6.467  57.200  16.003  1.00  0.00     0.049 C 
HETATM   25  C19 UNL     1       8.305  58.688  16.843  1.00  0.00     0.037 A 
HETATM   26  N4  UNL     1      10.094  60.136  17.691  1.00  0.00    -0.326 N 
HETATM   27  C21 UNL     1      11.251  60.956  17.390  1.00  0.00     0.226 C 
ATOM     28  H4  UNL     1       9.771  60.025  18.651  1.00  0.00     0.169 HD
HETATM   29  O1  UNL     1      12.098  61.083  18.282  1.00  0.00    -0.273 OA
ENDBRANCH  15  16
ENDBRANCH  14  15
ENDBRANCH  13  14
ENDBRANCH   1  13
BRANCH   1  30
HETATM   30  C22 UNL     1      13.656  64.281  18.427  1.00  0.00     0.159 C 
BRANCH  30  31
HETATM   31  O2  UNL     1      13.844  63.167  19.071  1.00  0.00    -0.345 OA
ATOM     32  H2  UNL     1      13.100  62.870  19.582  1.00  0.00     0.219 HD
ENDBRANCH  30  31
BRANCH  30  33
HETATM   33  C23 UNL     1      14.835  65.138  18.245  1.00  0.00     0.099 A 
HETATM   34  S1  UNL     1      15.819  65.468  16.900  1.00  0.00    -0.008 SA
HETATM   35  N5  UNL     1      16.837  66.599  17.562  1.00  0.00    -0.320 N 
HETATM   36  C24 UNL     1      16.427  66.730  18.827  1.00  0.00     0.130 A 
ATOM     37  H5  UNL     1      17.607  67.087  17.104  1.00  0.00     0.174 HD
HETATM   38  C26 UNL     1      15.374  65.972  19.212  1.00  0.00     0.101 A 
HETATM   39  N7  UNL     1      14.839  66.016  20.564  1.00  0.00    -0.098 NA
BRANCH  36  40
HETATM   40  C25 UNL     1      17.135  67.685  19.714  1.00  0.00     0.283 C 
HETATM   41  N6  UNL     1      17.084  69.054  19.433  1.00  0.00    -0.056 NA
HETATM   42  O3  UNL     1      17.758  67.255  20.687  1.00  0.00    -0.269 OA
ENDBRANCH  36  40
ENDBRANCH  30  33
ENDBRANCH   1  30
TORSDOF 13
ENDMDL
MODEL 4
REMARK VINA RESULT: -9.262459459      1.196      1.608
REMARK  13 active torsions:
REMARK  status: ('A' for Active; 'I' for Inactive)
REMARK    1  A    between atoms: C2_2  and  N1_3 
REMARK    2  A    between atoms: N2_6  and  C5_7 
REMARK    3  A    between atoms: C5_7  and  C6_8 
REMARK    4  A    between atoms: C6_8  and  C7_9 
REMARK    5  A    between atoms: C7_9  and  N3_10 
REMARK    6  A    between atoms: N3_10  and  C8_11 
REMARK    7  A    between atoms: N3_10  and  C22_28 
REMARK    8  A    between atoms: C8_11  and  C9_12 
REMARK    9  A    between atoms: C9_12  and  C10_13 
REMARK   10  A    between atoms: C10_13  and  C11_14 
REMARK   11  A    between atoms: C22_28  and  O2_29 
REMARK   12  A    between atoms: C22_28  and  C23_31 
REMARK   13  A    between atoms: C24_35  and  C25_36 
ROOT
HETATM    1  N3  UNL     1      12.623  63.628  17.156  1.00  0.00    -0.361 N 
ENDROOT
BRANCH   1   2
HETATM    2  C7  UNL     1      11.510  64.594  17.475  1.00  0.00     0.127 C 
BRANCH   2   3
HETATM    3  C6  UNL     1      11.259  64.556  18.957  1.00  0.00     0.050 C 
BRANCH   3   4
HETATM    4  C5  UNL     1      10.019  63.736  19.218  1.00  0.00     0.274 C 
BRANCH   4   5
HETATM    5  N2  UNL     1      10.311  62.366  19.485  1.00  0.00     0.091 N 
HETATM    6  C4  UNL     1       9.462  61.408  18.841  1.00  0.00     0.302 C 
HETATM    7  C3  UNL     1       8.191  61.151  19.582  1.00  0.00     0.302 C 
HETATM    8  N1  UNL     1       8.556  60.532  20.852  1.00  0.00     0.091 N 
HETATM    9  C28 UNL     1       9.283  61.560  21.582  1.00  0.00     0.302 C 
HETATM   10  C27 UNL     1      10.507  62.015  20.854  1.00  0.00     0.302 C 
BRANCH   8  11
HETATM   11  C2  UNL     1       7.361  60.212  21.573  1.00  0.00     0.268 C 
HETATM   12  C1  UNL     1       6.281  61.246  21.412  1.00  0.00     0.037 C 
ENDBRANCH   8  11
ENDBRANCH   4   5
ENDBRANCH   3   4
ENDBRANCH   2   3
ENDBRANCH   1   2
BRANCH   1  13
HETATM   13  C8  UNL     1      12.342  62.607  16.212  1.00  0.00     0.125 C 
BRANCH  13  14
HETATM   14  C9  UNL     1      10.888  62.506  15.785  1.00  0.00     0.021 C 
BRANCH  14  15
HETATM   15  C10 UNL     1      10.609  61.486  14.740  1.00  0.00     0.016 C 
BRANCH  15  16
HETATM   16  C11 UNL     1       9.850  60.280  15.163  1.00  0.00     0.082 C 
HETATM   17  C12 UNL     1       8.364  60.636  14.990  1.00  0.00     0.055 C 
HETATM   18  C13 UNL     1       7.493  59.470  15.121  1.00  0.00    -0.030 A 
HETATM   19  C14 UNL     1       6.175  59.712  15.487  1.00  0.00     0.016 A 
HETATM   20  C20 UNL     1       7.861  58.158  14.917  1.00  0.00     0.041 A 
HETATM   21  C15 UNL     1       5.288  58.667  15.634  1.00  0.00    -0.055 A 
HETATM   22  C16 UNL     1       3.889  58.980  16.026  1.00  0.00     0.049 C 
HETATM   23  C17 UNL     1       5.666  57.350  15.427  1.00  0.00    -0.054 A 
HETATM   24  C18 UNL     1       4.671  56.258  15.598  1.00  0.00     0.049 C 
HETATM   25  C19 UNL     1       6.970  57.111  15.065  1.00  0.00     0.037 A 
HETATM   26  N4  UNL     1       9.226  57.918  14.536  1.00  0.00    -0.326 N 
HETATM   27  C21 UNL     1      10.117  59.052  14.392  1.00  0.00     0.226 C 
ATOM     28  H4  UNL     1       9.560  56.969  14.372  1.00  0.00     0.169 HD
HETATM   29  O1  UNL     1      11.069  58.923  13.614  1.00  0.00    -0.273 OA
ENDBRANCH  15  16
ENDBRANCH  14  15
ENDBRANCH  13  14
ENDBRANCH   1  13
BRANCH   1  30
HETATM   30  C22 UNL     1      13.801  63.758  17.874  1.00  0.00     0.159 C 
BRANCH  30  31
HETATM   31  O2  UNL     1      14.042  62.793  18.711  1.00  0.00    -0.345 OA
ATOM     32  H2  UNL     1      14.736  62.969  19.336  1.00  0.00     0.219 HD
ENDBRANCH  30  31
BRANCH  30  33
HETATM   33  C23 UNL     1      14.796  64.837  17.816  1.00  0.00     0.099 A 
HETATM   34  S1  UNL     1      15.722  65.478  16.544  1.00  0.00    -0.008 SA
HETATM   35  N5  UNL     1      16.491  66.712  17.346  1.00  0.00    -0.320 N 
HETATM   36  C24 UNL     1      16.039  66.639  18.601  1.00  0.00     0.130 A 
ATOM     37  H5  UNL     1      17.160  67.380  16.964  1.00  0.00     0.174 HD
HETATM   38  C26 UNL     1      15.146  65.660  18.876  1.00  0.00     0.101 A 
HETATM   39  N7  UNL     1      14.587  65.469  20.204  1.00  0.00    -0.098 NA
BRANCH  36  40
HETATM   40  C25 UNL     1      16.534  67.619  19.598  1.00  0.00     0.283 C 
HETATM   41  N6  UNL     1      17.679  67.324  20.344  1.00  0.00    -0.056 NA
HETATM   42  O3  UNL     1      15.926  68.681  19.753  1.00  0.00    -0.269 OA
ENDBRANCH  36  40
ENDBRANCH  30  33
ENDBRANCH   1  30
TORSDOF 13
ENDMDL
MODEL 5
REMARK VINA RESULT: -9.210401236      1.830      2.403
REMARK  13 active torsions:
REMARK  status: ('A' for Active; 'I' for Inactive)
REMARK    1  A    between atoms: C2_2  and  N1_3 
REMARK    2  A    between atoms: N2_6  and  C5_7 
REMARK    3  A    between atoms: C5_7  and  C6_8 
REMARK    4  A    between atoms: C6_8  and  C7_9 
REMARK    5  A    between atoms: C7_9  and  N3_10 
REMARK    6  A    between atoms: N3_10  and  C8_11 
REMARK    7  A    between atoms: N3_10  and  C22_28 
REMARK    8  A    between atoms: C8_11  and  C9_12 
REMARK    9  A    between atoms: C9_12  and  C10_13 
REMARK   10  A    between atoms: C10_13  and  C11_14 
REMARK   11  A    between atoms: C22_28  and  O2_29 
REMARK   12  A    between atoms: C22_28  and  C23_31 
REMARK   13  A    between atoms: C24_35  and  C25_36 
ROOT
HETATM    1  N3  UNL     1      11.285  63.542  17.907  1.00  0.00    -0.361 N 
ENDROOT
BRANCH   1   2
HETATM    2  C7  UNL     1      11.227  63.672  19.408  1.00  0.00     0.127 C 
BRANCH   2   3
HETATM    3  C6  UNL     1       9.811  63.996  19.802  1.00  0.00     0.050 C 
BRANCH   3   4
HETATM    4  C5  UNL     1       9.369  63.021  20.867  1.00  0.00     0.274 C 
BRANCH   4   5
HETATM    5  N2  UNL     1       8.007  62.627  20.721  1.00  0.00     0.091 N 
HETATM    6  C4  UNL     1       7.503  61.734  21.722  1.00  0.00     0.302 C 
HETATM    7  C3  UNL     1       7.816  60.300  21.447  1.00  0.00     0.302 C 
HETATM    8  N1  UNL     1       7.104  59.935  20.227  1.00  0.00     0.091 N 
HETATM    9  C28 UNL     1       7.722  60.723  19.173  1.00  0.00     0.302 C 
HETATM   10  C27 UNL     1       7.608  62.193  19.421  1.00  0.00     0.302 C 
BRANCH   8  11
HETATM   11  C2  UNL     1       7.327  58.546  19.958  1.00  0.00     0.268 C 
HETATM   12  C1  UNL     1       7.934  58.299  18.604  1.00  0.00     0.037 C 
ENDBRANCH   8  11
ENDBRANCH   4   5
ENDBRANCH   3   4
ENDBRANCH   2   3
ENDBRANCH   1   2
BRANCH   1  13
HETATM   13  C8  UNL     1      10.771  62.347  17.341  1.00  0.00     0.125 C 
BRANCH  13  14
HETATM   14  C9  UNL     1      11.321  61.994  15.971  1.00  0.00     0.021 C 
BRANCH  14  15
HETATM   15  C10 UNL     1      10.310  61.513  14.992  1.00  0.00     0.016 C 
BRANCH  15  16
HETATM   16  C11 UNL     1       9.606  60.245  15.322  1.00  0.00     0.082 C 
HETATM   17  C12 UNL     1       8.106  60.543  15.159  1.00  0.00     0.055 C 
HETATM   18  C13 UNL     1       7.291  59.331  15.198  1.00  0.00    -0.030 A 
HETATM   19  C14 UNL     1       5.961  59.484  15.567  1.00  0.00     0.016 A 
HETATM   20  C20 UNL     1       7.722  58.056  14.905  1.00  0.00     0.041 A 
HETATM   21  C15 UNL     1       5.123  58.391  15.631  1.00  0.00    -0.055 A 
HETATM   22  C16 UNL     1       3.708  58.609  16.030  1.00  0.00     0.049 C 
HETATM   23  C17 UNL     1       5.564  57.111  15.335  1.00  0.00    -0.054 A 
HETATM   24  C18 UNL     1       4.621  55.964  15.418  1.00  0.00     0.049 C 
HETATM   25  C19 UNL     1       6.881  56.960  14.970  1.00  0.00     0.037 A 
HETATM   26  N4  UNL     1       9.099  57.907  14.522  1.00  0.00    -0.326 N 
HETATM   27  C21 UNL     1       9.936  59.089  14.467  1.00  0.00     0.226 C 
ATOM     28  H4  UNL     1       9.479  56.989  14.294  1.00  0.00     0.169 HD
HETATM   29  O1  UNL     1      10.899  59.061  13.692  1.00  0.00    -0.273 OA
ENDBRANCH  15  16
ENDBRANCH  14  15
ENDBRANCH  13  14
ENDBRANCH   1  13
BRANCH   1  30
HETATM   30  C22 UNL     1      11.916  64.558  17.207  1.00  0.00     0.159 C 
BRANCH  30  31
HETATM   31  O2  UNL     1      11.116  65.418  16.649  1.00  0.00    -0.345 OA
ATOM     32  H2  UNL     1      10.504  65.839  17.242  1.00  0.00     0.219 HD
ENDBRANCH  30  31
BRANCH  30  33
HETATM   33  C23 UNL     1      13.355  64.780  17.011  1.00  0.00     0.099 A 
HETATM   34  S1  UNL     1      14.627  65.091  18.094  1.00  0.00    -0.008 SA
HETATM   35  N5  UNL     1      15.905  65.110  17.034  1.00  0.00    -0.320 N 
HETATM   36  C24 UNL     1      15.359  64.877  15.837  1.00  0.00     0.130 A 
ATOM     37  H5  UNL     1      16.889  65.264  17.251  1.00  0.00     0.174 HD
HETATM   38  C26 UNL     1      14.018  64.700  15.797  1.00  0.00     0.101 A 
HETATM   39  N7  UNL     1      13.304  64.450  14.555  1.00  0.00    -0.098 NA
BRANCH  36  40
HETATM   40  C25 UNL     1      16.243  64.824  14.647  1.00  0.00     0.283 C 
HETATM   41  N6  UNL     1      16.464  65.987  13.902  1.00  0.00    -0.056 NA
HETATM   42  O3  UNL     1      16.770  63.755  14.334  1.00  0.00    -0.269 OA
ENDBRANCH  36  40
ENDBRANCH  30  33
ENDBRANCH   1  30
TORSDOF 13
ENDMDL
