MODEL 1
REMARK VINA RESULT: -8.597482743      0.000      0.000
REMARK  3 active torsions:
REMARK  status: ('A' for Active; 'I' for Inactive)
REMARK    1  A    between atoms: N1_1  and  C1_4 
REMARK    2  A    between atoms: C2_7  and  N3_8 
REMARK    3  A    between atoms: N3_8  and  N4_10 
ROOT
HETATM    1  C1  UNL     1      32.045  21.403  32.932  1.00  0.00     0.693 C 
HETATM    2  N2  UNL     1      32.882  20.909  33.847  1.00  0.00    -0.021 N 
ATOM      3  H2  UNL     1      32.525  20.894  34.802  1.00  0.00     0.203 HD
HETATM    4  C2  UNL     1      34.129  20.428  33.688  1.00  0.00     0.712 C 
HETATM    5  N5  UNL     1      34.840  20.349  32.549  1.00  0.00    -0.170 N 
ATOM      6  H5  UNL     1      35.823  20.108  32.670  1.00  0.00     0.186 HD
HETATM    7  C3  UNL     1      34.455  20.539  31.281  1.00  0.00     0.184 C 
HETATM    8  N6  UNL     1      35.368  20.348  30.403  1.00  0.00    -0.381 N 
ATOM      9  H61 UNL     1      35.074  20.492  29.437  1.00  0.00     0.157 HD
ATOM     10  H62 UNL     1      36.297  20.071  30.720  1.00  0.00     0.157 HD
HETATM   11  C4  UNL     1      33.203  20.912  30.853  1.00  0.00     0.303 C 
HETATM   12  O1  UNL     1      33.077  20.906  29.604  1.00  0.00    -0.263 OA
HETATM   13  N7  UNL     1      32.115  21.275  31.593  1.00  0.00    -0.153 N 
ATOM     14  H7  UNL     1      31.259  21.471  31.074  1.00  0.00     0.187 HD
ENDROOT
BRANCH   4  15
HETATM   15  N3  UNL     1      34.753  19.979  34.737  1.00  0.00    -0.138 N 
ATOM     16  H3  UNL     1      34.463  19.088  35.139  1.00  0.00     0.205 HD
BRANCH  15  17
HETATM   17  N4  UNL     1      35.800  20.672  35.331  1.00  0.00    -0.331 N 
ATOM     18  H42 UNL     1      35.936  21.648  35.066  1.00  0.00     0.177 HD
ATOM     19  H41 UNL     1      36.424  20.239  36.013  1.00  0.00     0.177 HD
ENDBRANCH  15  17
ENDBRANCH   4  15
BRANCH   1  20
HETATM   20  N1  UNL     1      31.025  22.095  33.312  1.00  0.00    -0.234 N 
ATOM     21  H12 UNL     1      31.291  22.951  33.798  1.00  0.00     0.174 HD
ATOM     22  H11 UNL     1      30.085  21.756  33.109  1.00  0.00     0.174 HD
ENDBRANCH   1  20
TORSDOF 3
ENDMDL
MODEL 2
REMARK VINA RESULT: -7.946664599      1.055      2.947
REMARK  3 active torsions:
REMARK  status: ('A' for Active; 'I' for Inactive)
REMARK    1  A    between atoms: N1_1  and  C1_4 
REMARK    2  A    between atoms: C2_7  and  N3_8 
REMARK    3  A    between atoms: N3_8  and  N4_10 
ROOT
HETATM    1  C1  UNL     1      34.655  20.853  31.427  1.00  0.00     0.693 C 
HETATM    2  N2  UNL     1      34.946  20.454  32.667  1.00  0.00    -0.021 N 
ATOM      3  H2  UNL     1      35.876  20.055  32.791  1.00  0.00     0.203 HD
HETATM    4  C2  UNL     1      34.186  20.502  33.777  1.00  0.00     0.712 C 
HETATM    5  N5  UNL     1      32.926  20.959  33.890  1.00  0.00    -0.170 N 
ATOM      6  H5  UNL     1      32.472  20.756  34.780  1.00  0.00     0.186 HD
HETATM    7  C3  UNL     1      32.176  21.638  33.013  1.00  0.00     0.184 C 
HETATM    8  N6  UNL     1      31.014  21.971  33.438  1.00  0.00    -0.381 N 
ATOM      9  H61 UNL     1      30.443  22.489  32.770  1.00  0.00     0.157 HD
ATOM     10  H62 UNL     1      30.748  21.704  34.386  1.00  0.00     0.157 HD
HETATM   11  C4  UNL     1      32.535  21.998  31.736  1.00  0.00     0.303 C 
HETATM   12  O1  UNL     1      31.691  22.732  31.166  1.00  0.00    -0.263 OA
HETATM   13  N7  UNL     1      33.657  21.667  31.033  1.00  0.00    -0.153 N 
ATOM     14  H7  UNL     1      33.750  22.083  30.107  1.00  0.00     0.187 HD
ENDROOT
BRANCH   4  15
HETATM   15  N3  UNL     1      34.696  20.064  34.890  1.00  0.00    -0.138 N 
ATOM     16  H3  UNL     1      34.199  19.339  35.408  1.00  0.00     0.205 HD
BRANCH  15  17
HETATM   17  N4  UNL     1      35.893  20.550  35.400  1.00  0.00    -0.331 N 
ATOM     18  H42 UNL     1      36.028  20.518  36.410  1.00  0.00     0.177 HD
ATOM     19  H41 UNL     1      36.627  20.929  34.800  1.00  0.00     0.177 HD
ENDBRANCH  15  17
ENDBRANCH   4  15
BRANCH   1  20
HETATM   20  N1  UNL     1      35.381  20.446  30.442  1.00  0.00    -0.234 N 
ATOM     21  H12 UNL     1      35.024  19.590  30.019  1.00  0.00     0.174 HD
ATOM     22  H11 UNL     1      36.209  20.980  30.175  1.00  0.00     0.174 HD
ENDBRANCH   1  20
TORSDOF 3
ENDMDL
MODEL 3
REMARK VINA RESULT: -7.713623501      1.898      3.351
REMARK  3 active torsions:
REMARK  status: ('A' for Active; 'I' for Inactive)
REMARK    1  A    between atoms: N1_1  and  C1_4 
REMARK    2  A    between atoms: C2_7  and  N3_8 
REMARK    3  A    between atoms: N3_8  and  N4_10 
ROOT
HETATM    1  C1  UNL     1      34.139  22.421  30.312  1.00  0.00     0.693 C 
HETATM    2  N2  UNL     1      34.717  21.573  31.166  1.00  0.00    -0.021 N 
ATOM      3  H2  UNL     1      35.660  21.276  30.917  1.00  0.00     0.203 HD
HETATM    4  C2  UNL     1      34.232  21.055  32.311  1.00  0.00     0.712 C 
HETATM    5  N5  UNL     1      33.021  21.265  32.858  1.00  0.00    -0.170 N 
ATOM      6  H5  UNL     1      32.789  20.651  33.639  1.00  0.00     0.186 HD
HETATM    7  C3  UNL     1      32.075  22.155  32.535  1.00  0.00     0.184 C 
HETATM    8  N6  UNL     1      31.034  22.133  33.282  1.00  0.00    -0.381 N 
ATOM      9  H61 UNL     1      30.313  22.811  33.036  1.00  0.00     0.157 HD
ATOM     10  H62 UNL     1      30.999  21.461  34.048  1.00  0.00     0.157 HD
HETATM   11  C4  UNL     1      32.121  23.061  31.503  1.00  0.00     0.303 C 
HETATM   12  O1  UNL     1      31.152  23.859  31.491  1.00  0.00    -0.263 OA
HETATM   13  N7  UNL     1      33.059  23.197  30.520  1.00  0.00    -0.153 N 
ATOM     14  H7  UNL     1      32.927  23.973  29.872  1.00  0.00     0.187 HD
ENDROOT
BRANCH   4  15
HETATM   15  N3  UNL     1      34.994  20.253  32.994  1.00  0.00    -0.138 N 
ATOM     16  H3  UNL     1      35.846  19.896  32.562  1.00  0.00     0.205 HD
BRANCH  15  17
HETATM   17  N4  UNL     1      34.689  19.866  34.292  1.00  0.00    -0.331 N 
ATOM     18  H42 UNL     1      34.247  20.553  34.903  1.00  0.00     0.177 HD
ATOM     19  H41 UNL     1      34.890  18.929  34.643  1.00  0.00     0.177 HD
ENDBRANCH  15  17
ENDBRANCH   4  15
BRANCH   1  20
HETATM   20  N1  UNL     1      34.629  22.559  29.127  1.00  0.00    -0.234 N 
ATOM     21  H12 UNL     1      35.636  22.716  29.135  1.00  0.00     0.174 HD
ATOM     22  H11 UNL     1      34.009  22.504  28.318  1.00  0.00     0.174 HD
ENDBRANCH   1  20
TORSDOF 3
ENDMDL
MODEL 4
REMARK VINA RESULT: -7.699057722      1.857      2.385
REMARK  3 active torsions:
REMARK  status: ('A' for Active; 'I' for Inactive)
REMARK    1  A    between atoms: N1_1  and  C1_4 
REMARK    2  A    between atoms: C2_7  and  N3_8 
REMARK    3  A    between atoms: N3_8  and  N4_10 
ROOT
HETATM    1  C1  UNL     1      34.262  22.713  32.451  1.00  0.00     0.693 C 
HETATM    2  N2  UNL     1      34.661  21.873  33.409  1.00  0.00    -0.021 N 
ATOM      3  H2  UNL     1      35.430  22.207  33.990  1.00  0.00     0.203 HD
HETATM    4  C2  UNL     1      34.194  20.648  33.716  1.00  0.00     0.712 C 
HETATM    5  N5  UNL     1      33.207  19.969  33.105  1.00  0.00    -0.170 N 
ATOM      6  H5  UNL     1      33.118  18.993  33.385  1.00  0.00     0.186 HD
HETATM    7  C3  UNL     1      32.325  20.378  32.185  1.00  0.00     0.184 C 
HETATM    8  N6  UNL     1      31.470  19.493  31.824  1.00  0.00    -0.381 N 
ATOM      9  H61 UNL     1      30.798  19.805  31.123  1.00  0.00     0.157 HD
ATOM     10  H62 UNL     1      31.519  18.568  32.250  1.00  0.00     0.157 HD
HETATM   11  C4  UNL     1      32.259  21.625  31.611  1.00  0.00     0.303 C 
HETATM   12  O1  UNL     1      31.263  21.781  30.863  1.00  0.00    -0.263 OA
HETATM   13  N7  UNL     1      33.113  22.681  31.750  1.00  0.00    -0.153 N 
ATOM     14  H7  UNL     1      32.852  23.541  31.268  1.00  0.00     0.187 HD
ENDROOT
BRANCH   4  15
HETATM   15  N3  UNL     1      34.737  20.017  34.715  1.00  0.00    -0.138 N 
ATOM     16  H3  UNL     1      34.375  19.099  34.972  1.00  0.00     0.205 HD
BRANCH  15  17
HETATM   17  N4  UNL     1      35.792  20.550  35.445  1.00  0.00    -0.331 N 
ATOM     18  H42 UNL     1      36.080  21.506  35.236  1.00  0.00     0.177 HD
ATOM     19  H41 UNL     1      36.276  20.020  36.170  1.00  0.00     0.177 HD
ENDBRANCH  15  17
ENDBRANCH   4  15
BRANCH   1  20
HETATM   20  N1  UNL     1      35.023  23.697  32.112  1.00  0.00    -0.234 N 
ATOM     21  H12 UNL     1      35.099  23.804  31.101  1.00  0.00     0.174 HD
ATOM     22  H11 UNL     1      35.466  24.262  32.837  1.00  0.00     0.174 HD
ENDBRANCH   1  20
TORSDOF 3
ENDMDL
MODEL 5
REMARK VINA RESULT: -7.419026931      2.352      3.748
REMARK  3 active torsions:
REMARK  status: ('A' for Active; 'I' for Inactive)
REMARK    1  A    between atoms: N1_1  and  C1_4 
REMARK    2  A    between atoms: C2_7  and  N3_8 
REMARK    3  A    between atoms: N3_8  and  N4_10 
ROOT
HETATM    1  C1  UNL     1      34.890  21.124  34.671  1.00  0.00     0.693 C 
HETATM    2  N2  UNL     1      33.819  20.467  34.221  1.00  0.00    -0.021 N 
ATOM      3  H2  UNL     1      33.520  19.675  34.792  1.00  0.00     0.203 HD
HETATM    4  C2  UNL     1      33.076  20.699  33.122  1.00  0.00     0.712 C 
HETATM    5  N5  UNL     1      33.258  21.657  32.196  1.00  0.00    -0.170 N 
ATOM      6  H5  UNL     1      32.687  21.560  31.357  1.00  0.00     0.186 HD
HETATM    7  C3  UNL     1      34.074  22.719  32.207  1.00  0.00     0.184 C 
HETATM    8  N6  UNL     1      33.986  23.480  31.180  1.00  0.00    -0.381 N 
ATOM      9  H61 UNL     1      34.607  24.289  31.189  1.00  0.00     0.157 HD
ATOM     10  H62 UNL     1      33.320  23.233  30.448  1.00  0.00     0.157 HD
HETATM   11  C4  UNL     1      34.971  23.052  33.194  1.00  0.00     0.303 C 
HETATM   12  O1  UNL     1      35.530  24.161  33.011  1.00  0.00    -0.263 OA
HETATM   13  N7  UNL     1      35.319  22.349  34.312  1.00  0.00    -0.153 N 
ATOM     14  H7  UNL     1      35.977  22.802  34.945  1.00  0.00     0.187 HD
ENDROOT
BRANCH   4  15
HETATM   15  N3  UNL     1      32.056  19.925  32.895  1.00  0.00    -0.138 N 
ATOM     16  H3  UNL     1      31.600  19.468  33.684  1.00  0.00     0.205 HD
BRANCH  15  17
HETATM   17  N4  UNL     1      31.566  19.700  31.615  1.00  0.00    -0.331 N 
ATOM     18  H42 UNL     1      32.230  19.717  30.841  1.00  0.00     0.177 HD
ATOM     19  H41 UNL     1      30.578  19.521  31.434  1.00  0.00     0.177 HD
ENDBRANCH  15  17
ENDBRANCH   4  15
BRANCH   1  20
HETATM   20  N1  UNL     1      35.646  20.574  35.559  1.00  0.00    -0.234 N 
ATOM     21  H12 UNL     1      36.106  21.257  36.160  1.00  0.00     0.174 HD
ATOM     22  H11 UNL     1      35.722  19.557  35.593  1.00  0.00     0.174 HD
ENDBRANCH   1  20
TORSDOF 3
ENDMDL
