MODEL 1
REMARK VINA RESULT: -5.852443846      0.000      0.000
REMARK  5 active torsions:
REMARK  status: ('A' for Active; 'I' for Inactive)
REMARK    1  A    between atoms: N1_1  and  C1_5 
REMARK    2  A    between atoms: C1_5  and  N2_6 
REMARK    3  A    between atoms: C1_5  and  C2_10 
REMARK    4  A    between atoms: C2_10  and  S1_11 
REMARK    5  A    between atoms: S1_11  and  C3_12 
ROOT
HETATM    1  C1  UNL     1     -40.889  -0.545   6.013  1.00  0.00     0.387 C 
ENDROOT
BRANCH   1   2
HETATM    2  N1  UNL     1     -41.665  -1.551   6.727  1.00  0.00    -0.050 N 
ATOM      3  H13 UNL     1     -41.691  -2.434   6.216  1.00  0.00     0.276 HD
ATOM      4  H12 UNL     1     -41.182  -1.869   7.567  1.00  0.00     0.276 HD
ATOM      5  H11 UNL     1     -42.604  -1.216   6.942  1.00  0.00     0.276 HD
ENDBRANCH   1   2
BRANCH   1   6
HETATM    6  N2  UNL     1     -39.913  -1.157   5.124  1.00  0.00    -0.050 N 
ATOM      7  H23 UNL     1     -39.434  -1.936   5.574  1.00  0.00     0.276 HD
ATOM      8  H22 UNL     1     -40.368  -1.667   4.366  1.00  0.00     0.276 HD
ATOM      9  H21 UNL     1     -39.251  -0.469   4.765  1.00  0.00     0.276 HD
ENDBRANCH   1   6
BRANCH   1  10
HETATM   10  C2  UNL     1     -41.861   0.227   5.112  1.00  0.00     0.144 C 
BRANCH  10  11
HETATM   11  S1  UNL     1     -42.685   1.462   6.151  1.00  0.00    -0.088 SA
BRANCH  11  12
HETATM   12  C3  UNL     1     -42.735   3.056   5.397  1.00  0.00     0.170 A 
HETATM   13  N3  UNL     1     -41.936   4.093   5.745  1.00  0.00    -0.265 N 
HETATM   14  N4  UNL     1     -42.219   5.145   4.997  1.00  0.00    -0.007 NA
ATOM     15  H3  UNL     1     -41.223   4.066   6.474  1.00  0.00     0.186 HD
HETATM   16  N5  UNL     1     -43.193   4.814   4.162  1.00  0.00    -0.007 NA
HETATM   17  N6  UNL     1     -43.507   3.543   4.406  1.00  0.00    -0.265 N 
ATOM     18  H6  UNL     1     -44.227   3.014   3.914  1.00  0.00     0.186 HD
ENDBRANCH  11  12
ENDBRANCH  10  11
ENDBRANCH   1  10
TORSDOF 5
ENDMDL
MODEL 2
REMARK VINA RESULT: -5.813720000      0.063      1.126
REMARK  5 active torsions:
REMARK  status: ('A' for Active; 'I' for Inactive)
REMARK    1  A    between atoms: N1_1  and  C1_5 
REMARK    2  A    between atoms: C1_5  and  N2_6 
REMARK    3  A    between atoms: C1_5  and  C2_10 
REMARK    4  A    between atoms: C2_10  and  S1_11 
REMARK    5  A    between atoms: S1_11  and  C3_12 
ROOT
HETATM    1  C1  UNL     1     -40.904  -0.546   6.019  1.00  0.00     0.387 C 
ENDROOT
BRANCH   1   2
HETATM    2  N1  UNL     1     -41.747  -1.527   6.690  1.00  0.00    -0.050 N 
ATOM      3  H13 UNL     1     -42.737  -1.325   6.551  1.00  0.00     0.276 HD
ATOM      4  H12 UNL     1     -41.703  -2.435   6.228  1.00  0.00     0.276 HD
ATOM      5  H11 UNL     1     -41.517  -1.602   7.681  1.00  0.00     0.276 HD
ENDBRANCH   1   2
BRANCH   1   6
HETATM    6  N2  UNL     1     -39.897  -1.188   5.188  1.00  0.00    -0.050 N 
ATOM      7  H23 UNL     1     -40.255  -1.385   4.254  1.00  0.00     0.276 HD
ATOM      8  H22 UNL     1     -39.151  -0.539   4.937  1.00  0.00     0.276 HD
ATOM      9  H21 UNL     1     -39.527  -2.029   5.631  1.00  0.00     0.276 HD
ENDBRANCH   1   6
BRANCH   1  10
HETATM   10  C2  UNL     1     -41.801   0.250   5.063  1.00  0.00     0.144 C 
BRANCH  10  11
HETATM   11  S1  UNL     1     -42.746   1.424   6.069  1.00  0.00    -0.088 SA
BRANCH  11  12
HETATM   12  C3  UNL     1     -42.694   3.065   5.424  1.00  0.00     0.170 A 
HETATM   13  N3  UNL     1     -43.496   3.524   4.434  1.00  0.00    -0.265 N 
HETATM   14  N4  UNL     1     -43.210   4.789   4.180  1.00  0.00    -0.007 NA
ATOM     15  H3  UNL     1     -44.212   2.977   3.958  1.00  0.00     0.186 HD
HETATM   16  N5  UNL     1     -42.231   5.167   4.987  1.00  0.00    -0.007 NA
HETATM   17  N6  UNL     1     -41.916   4.117   5.745  1.00  0.00    -0.265 N 
ATOM     18  H6  UNL     1     -41.193   4.111   6.464  1.00  0.00     0.186 HD
ENDBRANCH  11  12
ENDBRANCH  10  11
ENDBRANCH   1  10
TORSDOF 5
ENDMDL
MODEL 3
REMARK VINA RESULT: -5.713195679      0.462      1.169
REMARK  5 active torsions:
REMARK  status: ('A' for Active; 'I' for Inactive)
REMARK    1  A    between atoms: N1_1  and  C1_5 
REMARK    2  A    between atoms: C1_5  and  N2_6 
REMARK    3  A    between atoms: C1_5  and  C2_10 
REMARK    4  A    between atoms: C2_10  and  S1_11 
REMARK    5  A    between atoms: S1_11  and  C3_12 
ROOT
HETATM    1  C1  UNL     1     -41.310  -0.762   5.504  1.00  0.00     0.387 C 
ENDROOT
BRANCH   1   2
HETATM    2  N1  UNL     1     -40.052  -1.170   4.894  1.00  0.00    -0.050 N 
ATOM      3  H13 UNL     1     -39.883  -2.168   5.018  1.00  0.00     0.276 HD
ATOM      4  H12 UNL     1     -40.105  -1.144   3.876  1.00  0.00     0.276 HD
ATOM      5  H11 UNL     1     -39.270  -0.613   5.240  1.00  0.00     0.276 HD
ENDBRANCH   1   2
BRANCH   1   6
HETATM    6  N2  UNL     1     -41.618  -1.565   6.678  1.00  0.00    -0.050 N 
ATOM      7  H23 UNL     1     -41.820  -2.532   6.427  1.00  0.00     0.276 HD
ATOM      8  H22 UNL     1     -40.788  -1.721   7.252  1.00  0.00     0.276 HD
ATOM      9  H21 UNL     1     -42.376  -1.154   7.224  1.00  0.00     0.276 HD
ENDBRANCH   1   6
BRANCH   1  10
HETATM   10  C2  UNL     1     -41.129   0.676   6.007  1.00  0.00     0.144 C 
BRANCH  10  11
HETATM   11  S1  UNL     1     -42.773   1.435   6.057  1.00  0.00    -0.088 SA
BRANCH  11  12
HETATM   12  C3  UNL     1     -42.794   3.053   5.353  1.00  0.00     0.170 A 
HETATM   13  N3  UNL     1     -41.950   4.052   5.705  1.00  0.00    -0.265 N 
HETATM   14  N4  UNL     1     -42.221   5.135   4.998  1.00  0.00    -0.007 NA
ATOM     15  H3  UNL     1     -41.215   3.979   6.408  1.00  0.00     0.186 HD
HETATM   16  N5  UNL     1     -43.233   4.862   4.187  1.00  0.00    -0.007 NA
HETATM   17  N6  UNL     1     -43.581   3.595   4.404  1.00  0.00    -0.265 N 
ATOM     18  H6  UNL     1     -44.335   3.105   3.920  1.00  0.00     0.186 HD
ENDBRANCH  11  12
ENDBRANCH  10  11
ENDBRANCH   1  10
TORSDOF 5
ENDMDL
MODEL 4
REMARK VINA RESULT: -5.652650720      0.483      1.623
REMARK  5 active torsions:
REMARK  status: ('A' for Active; 'I' for Inactive)
REMARK    1  A    between atoms: N1_1  and  C1_5 
REMARK    2  A    between atoms: C1_5  and  N2_6 
REMARK    3  A    between atoms: C1_5  and  C2_10 
REMARK    4  A    between atoms: C2_10  and  S1_11 
REMARK    5  A    between atoms: S1_11  and  C3_12 
ROOT
HETATM    1  C1  UNL     1     -41.316  -0.748   5.485  1.00  0.00     0.387 C 
ENDROOT
BRANCH   1   2
HETATM    2  N1  UNL     1     -40.057  -1.154   4.873  1.00  0.00    -0.050 N 
ATOM      3  H13 UNL     1     -39.448  -0.353   4.705  1.00  0.00     0.276 HD
ATOM      4  H12 UNL     1     -39.469  -1.664   5.532  1.00  0.00     0.276 HD
ATOM      5  H11 UNL     1     -40.213  -1.691   4.020  1.00  0.00     0.276 HD
ENDBRANCH   1   2
BRANCH   1   6
HETATM    6  N2  UNL     1     -41.609  -1.535   6.673  1.00  0.00    -0.050 N 
ATOM      7  H23 UNL     1     -41.825  -2.503   6.436  1.00  0.00     0.276 HD
ATOM      8  H22 UNL     1     -40.771  -1.692   7.234  1.00  0.00     0.276 HD
ATOM      9  H21 UNL     1     -42.354  -1.111   7.227  1.00  0.00     0.276 HD
ENDBRANCH   1   6
BRANCH   1  10
HETATM   10  C2  UNL     1     -41.145   0.700   5.964  1.00  0.00     0.144 C 
BRANCH  10  11
HETATM   11  S1  UNL     1     -42.796   1.442   6.021  1.00  0.00    -0.088 SA
BRANCH  11  12
HETATM   12  C3  UNL     1     -42.819   3.092   5.396  1.00  0.00     0.170 A 
HETATM   13  N3  UNL     1     -43.750   3.573   4.539  1.00  0.00    -0.265 N 
HETATM   14  N4  UNL     1     -43.489   4.839   4.262  1.00  0.00    -0.007 NA
ATOM     15  H3  UNL     1     -44.533   3.039   4.163  1.00  0.00     0.186 HD
HETATM   16  N5  UNL     1     -42.400   5.196   4.925  1.00  0.00    -0.007 NA
HETATM   17  N6  UNL     1     -41.992   4.132   5.616  1.00  0.00    -0.265 N 
ATOM     18  H6  UNL     1     -41.172   4.109   6.223  1.00  0.00     0.186 HD
ENDBRANCH  11  12
ENDBRANCH  10  11
ENDBRANCH   1  10
TORSDOF 5
ENDMDL
MODEL 5
REMARK VINA RESULT: -5.618845524      1.203      5.310
REMARK  5 active torsions:
REMARK  status: ('A' for Active; 'I' for Inactive)
REMARK    1  A    between atoms: N1_1  and  C1_5 
REMARK    2  A    between atoms: C1_5  and  N2_6 
REMARK    3  A    between atoms: C1_5  and  C2_10 
REMARK    4  A    between atoms: C2_10  and  S1_11 
REMARK    5  A    between atoms: S1_11  and  C3_12 
ROOT
HETATM    1  C1  UNL     1     -41.812   3.190   6.066  1.00  0.00     0.387 C 
ENDROOT
BRANCH   1   2
HETATM    2  N1  UNL     1     -40.356   3.126   6.050  1.00  0.00    -0.050 N 
ATOM      3  H13 UNL     1     -39.974   3.095   6.996  1.00  0.00     0.276 HD
ATOM      4  H12 UNL     1     -40.026   2.220   5.717  1.00  0.00     0.276 HD
ATOM      5  H11 UNL     1     -39.954   3.891   5.510  1.00  0.00     0.276 HD
ENDBRANCH   1   2
BRANCH   1   6
HETATM    6  N2  UNL     1     -42.295   4.456   5.535  1.00  0.00    -0.050 N 
ATOM      7  H23 UNL     1     -41.966   5.244   6.091  1.00  0.00     0.276 HD
ATOM      8  H22 UNL     1     -41.842   4.686   4.650  1.00  0.00     0.276 HD
ATOM      9  H21 UNL     1     -43.311   4.460   5.446  1.00  0.00     0.276 HD
ENDBRANCH   1   6
BRANCH   1  10
HETATM   10  C2  UNL     1     -42.328   2.104   5.113  1.00  0.00     0.144 C 
BRANCH  10  11
HETATM   11  S1  UNL     1     -42.490   0.580   6.079  1.00  0.00    -0.088 SA
BRANCH  11  12
HETATM   12  C3  UNL     1     -41.510  -0.738   5.435  1.00  0.00     0.170 A 
HETATM   13  N3  UNL     1     -41.577  -2.021   5.862  1.00  0.00    -0.265 N 
HETATM   14  N4  UNL     1     -40.718  -2.763   5.184  1.00  0.00    -0.007 NA
ATOM     15  H3  UNL     1     -42.197  -2.364   6.595  1.00  0.00     0.186 HD
HETATM   16  N5  UNL     1     -40.087  -1.984   4.318  1.00  0.00    -0.007 NA
HETATM   17  N6  UNL     1     -40.569  -0.751   4.471  1.00  0.00    -0.265 N 
ATOM     18  H6  UNL     1     -40.270   0.064   3.935  1.00  0.00     0.186 HD
ENDBRANCH  11  12
ENDBRANCH  10  11
ENDBRANCH   1  10
TORSDOF 5
ENDMDL
