MODEL 1
REMARK VINA RESULT: -6.308453471      0.000      0.000
REMARK  5 active torsions:
REMARK  status: ('A' for Active; 'I' for Inactive)
REMARK    1  A    between atoms: O1_2  and  N1_3 
REMARK    2  A    between atoms: N1_3  and  C2_5 
REMARK    3  A    between atoms: N2_6  and  O2_8 
REMARK    4  A    between atoms: O2_8  and  C3_9 
REMARK    5  A    between atoms: C4_14  and  N5_15 
ROOT
HETATM    1  C3  UNL     1     -42.149   0.686   5.425  1.00  0.00     0.276 A 
HETATM    2  N3  UNL     1     -43.033   0.035   6.199  1.00  0.00    -0.249 N 
ATOM      3  H3  UNL     1     -44.019   0.279   6.288  1.00  0.00     0.191 HD
HETATM    4  N4  UNL     1     -42.450  -0.959   6.824  1.00  0.00    -0.129 N 
ATOM      5  H4  UNL     1     -42.897  -1.609   7.471  1.00  0.00     0.205 HD
HETATM    6  C4  UNL     1     -41.167  -0.966   6.460  1.00  0.00     0.693 A 
HETATM    7  N6  UNL     1     -40.982   0.044   5.601  1.00  0.00    -0.151 N 
ATOM      8  H6  UNL     1     -40.099   0.286   5.153  1.00  0.00     0.188 HD
ENDROOT
BRANCH   1   9
HETATM    9  O2  UNL     1     -42.352   1.786   4.604  1.00  0.00    -0.198 OA
BRANCH   9  10
HETATM   10  N2  UNL     1     -42.246   3.035   5.151  1.00  0.00    -0.251 N 
HETATM   11  C2  UNL     1     -42.951   3.986   4.655  1.00  0.00     0.228 C 
ATOM     12  H2  UNL     1     -41.620   3.208   5.937  1.00  0.00     0.195 HD
BRANCH  11  13
HETATM   13  N1  UNL     1     -42.809   5.269   5.254  1.00  0.00    -0.261 N 
ATOM     14  H1  UNL     1     -41.909   5.487   5.680  1.00  0.00     0.195 HD
BRANCH  13  15
HETATM   15  O1  UNL     1     -43.751   6.207   5.305  1.00  0.00    -0.284 OA
HETATM   16  C1  UNL     1     -44.833   5.820   4.553  1.00  0.00     0.237 C 
ENDBRANCH  13  15
ENDBRANCH  11  13
ENDBRANCH   9  10
ENDBRANCH   1   9
BRANCH   6  17
HETATM   17  N5  UNL     1     -40.220  -1.777   6.835  1.00  0.00    -0.233 N 
ATOM     18  H52 UNL     1     -39.509  -2.146   6.204  1.00  0.00     0.174 HD
ATOM     19  H51 UNL     1     -40.040  -2.159   7.763  1.00  0.00     0.174 HD
ENDBRANCH   6  17
TORSDOF 5
ENDMDL
MODEL 2
REMARK VINA RESULT: -6.298476594      3.009      5.770
REMARK  5 active torsions:
REMARK  status: ('A' for Active; 'I' for Inactive)
REMARK    1  A    between atoms: O1_2  and  N1_3 
REMARK    2  A    between atoms: N1_3  and  C2_5 
REMARK    3  A    between atoms: N2_6  and  O2_8 
REMARK    4  A    between atoms: O2_8  and  C3_9 
REMARK    5  A    between atoms: C4_14  and  N5_15 
ROOT
HETATM    1  C3  UNL     1     -41.354   0.639   6.036  1.00  0.00     0.276 A 
HETATM    2  N3  UNL     1     -42.664   0.690   6.330  1.00  0.00    -0.249 N 
ATOM      3  H3  UNL     1     -43.241  -0.120   6.555  1.00  0.00     0.191 HD
HETATM    4  N4  UNL     1     -43.096   1.927   6.286  1.00  0.00    -0.129 N 
ATOM      5  H4  UNL     1     -44.049   2.238   6.468  1.00  0.00     0.205 HD
HETATM    6  C4  UNL     1     -42.061   2.703   5.959  1.00  0.00     0.693 A 
HETATM    7  N6  UNL     1     -40.992   1.912   5.806  1.00  0.00    -0.151 N 
ATOM      8  H6  UNL     1     -40.054   2.225   5.556  1.00  0.00     0.188 HD
ENDROOT
BRANCH   1   9
HETATM    9  O2  UNL     1     -40.516  -0.465   5.973  1.00  0.00    -0.198 OA
BRANCH   9  10
HETATM   10  N2  UNL     1     -39.985  -0.812   4.761  1.00  0.00    -0.251 N 
HETATM   11  C2  UNL     1     -40.760  -0.856   3.739  1.00  0.00     0.228 C 
ATOM     12  H2  UNL     1     -38.993  -1.031   4.672  1.00  0.00     0.195 HD
BRANCH  11  13
HETATM   13  N1  UNL     1     -40.164  -1.222   2.500  1.00  0.00    -0.261 N 
ATOM     14  H1  UNL     1     -39.893  -0.466   1.871  1.00  0.00     0.195 HD
BRANCH  13  15
HETATM   15  O1  UNL     1     -39.932  -2.466   2.091  1.00  0.00    -0.284 OA
HETATM   16  C1  UNL     1     -38.682  -2.543   1.526  1.00  0.00     0.237 C 
ENDBRANCH  13  15
ENDBRANCH  11  13
ENDBRANCH   9  10
ENDBRANCH   1   9
BRANCH   6  17
HETATM   17  N5  UNL     1     -42.031   3.994   5.803  1.00  0.00    -0.233 N 
ATOM     18  H52 UNL     1     -42.533   4.648   6.404  1.00  0.00     0.174 HD
ATOM     19  H51 UNL     1     -41.534   4.539   5.099  1.00  0.00     0.174 HD
ENDBRANCH   6  17
TORSDOF 5
ENDMDL
MODEL 3
REMARK VINA RESULT: -6.275766718      0.758      1.288
REMARK  5 active torsions:
REMARK  status: ('A' for Active; 'I' for Inactive)
REMARK    1  A    between atoms: O1_2  and  N1_3 
REMARK    2  A    between atoms: N1_3  and  C2_5 
REMARK    3  A    between atoms: N2_6  and  O2_8 
REMARK    4  A    between atoms: O2_8  and  C3_9 
REMARK    5  A    between atoms: C4_14  and  N5_15 
ROOT
HETATM    1  C3  UNL     1     -42.125   1.097   5.222  1.00  0.00     0.276 A 
HETATM    2  N3  UNL     1     -40.795   0.910   5.237  1.00  0.00    -0.249 N 
ATOM      3  H3  UNL     1     -40.115   1.536   4.805  1.00  0.00     0.191 HD
HETATM    4  N4  UNL     1     -40.494  -0.189   5.884  1.00  0.00    -0.129 N 
ATOM      5  H4  UNL     1     -39.557  -0.559   6.040  1.00  0.00     0.205 HD
HETATM    6  C4  UNL     1     -41.637  -0.736   6.302  1.00  0.00     0.693 A 
HETATM    7  N6  UNL     1     -42.638   0.055   5.896  1.00  0.00    -0.151 N 
ATOM      8  H6  UNL     1     -43.630  -0.109   6.070  1.00  0.00     0.188 HD
ENDROOT
BRANCH   1   9
HETATM    9  O2  UNL     1     -42.855   2.129   4.649  1.00  0.00    -0.198 OA
BRANCH   9  10
HETATM   10  N2  UNL     1     -42.545   3.416   4.991  1.00  0.00    -0.251 N 
HETATM   11  C2  UNL     1     -43.395   4.343   4.736  1.00  0.00     0.228 C 
ATOM     12  H2  UNL     1     -41.656   3.634   5.441  1.00  0.00     0.195 HD
BRANCH  11  13
HETATM   13  N1  UNL     1     -43.031   5.667   5.109  1.00  0.00    -0.261 N 
ATOM     14  H1  UNL     1     -42.040   5.907   5.066  1.00  0.00     0.195 HD
BRANCH  13  15
HETATM   15  O1  UNL     1     -43.871   6.617   5.509  1.00  0.00    -0.284 OA
HETATM   16  C1  UNL     1     -45.062   6.497   4.836  1.00  0.00     0.237 C 
ENDBRANCH  13  15
ENDBRANCH  11  13
ENDBRANCH   9  10
ENDBRANCH   1   9
BRANCH   6  17
HETATM   17  N5  UNL     1     -41.813  -1.831   6.983  1.00  0.00    -0.233 N 
ATOM     18  H52 UNL     1     -42.689  -2.353   6.999  1.00  0.00     0.174 HD
ATOM     19  H51 UNL     1     -41.148  -2.322   7.580  1.00  0.00     0.174 HD
ENDBRANCH   6  17
TORSDOF 5
ENDMDL
MODEL 4
REMARK VINA RESULT: -6.214327893      1.250      1.373
REMARK  5 active torsions:
REMARK  status: ('A' for Active; 'I' for Inactive)
REMARK    1  A    between atoms: O1_2  and  N1_3 
REMARK    2  A    between atoms: N1_3  and  C2_5 
REMARK    3  A    between atoms: N2_6  and  O2_8 
REMARK    4  A    between atoms: O2_8  and  C3_9 
REMARK    5  A    between atoms: C4_14  and  N5_15 
ROOT
HETATM    1  C3  UNL     1     -42.169   0.586   6.086  1.00  0.00     0.276 A 
HETATM    2  N3  UNL     1     -42.553  -0.687   6.273  1.00  0.00    -0.249 N 
ATOM      3  H3  UNL     1     -43.307  -0.983   6.892  1.00  0.00     0.191 HD
HETATM    4  N4  UNL     1     -41.821  -1.497   5.547  1.00  0.00    -0.129 N 
ATOM      5  H4  UNL     1     -41.907  -2.512   5.505  1.00  0.00     0.205 HD
HETATM    6  C4  UNL     1     -40.943  -0.751   4.873  1.00  0.00     0.693 A 
HETATM    7  N6  UNL     1     -41.158   0.527   5.204  1.00  0.00    -0.151 N 
ATOM      8  H6  UNL     1     -40.638   1.328   4.845  1.00  0.00     0.188 HD
ENDROOT
BRANCH   1   9
HETATM    9  O2  UNL     1     -42.678   1.744   6.658  1.00  0.00    -0.198 OA
BRANCH   9  10
HETATM   10  N2  UNL     1     -43.018   2.783   5.836  1.00  0.00    -0.251 N 
HETATM   11  C2  UNL     1     -42.287   3.838   5.843  1.00  0.00     0.228 C 
ATOM     12  H2  UNL     1     -43.835   2.720   5.230  1.00  0.00     0.195 HD
BRANCH  11  13
HETATM   13  N1  UNL     1     -42.677   4.893   4.973  1.00  0.00    -0.261 N 
ATOM     14  H1  UNL     1     -42.246   4.920   4.049  1.00  0.00     0.195 HD
BRANCH  13  15
HETATM   15  O1  UNL     1     -43.557   5.848   5.261  1.00  0.00    -0.284 OA
HETATM   16  C1  UNL     1     -44.685   5.687   4.494  1.00  0.00     0.237 C 
ENDBRANCH  13  15
ENDBRANCH  11  13
ENDBRANCH   9  10
ENDBRANCH   1   9
BRANCH   6  17
HETATM   17  N5  UNL     1     -40.026  -1.136   4.034  1.00  0.00    -0.233 N 
ATOM     18  H52 UNL     1     -39.965  -2.080   3.655  1.00  0.00     0.174 HD
ATOM     19  H51 UNL     1     -39.258  -0.593   3.638  1.00  0.00     0.174 HD
ENDBRANCH   6  17
TORSDOF 5
ENDMDL
MODEL 5
REMARK VINA RESULT: -6.177063100      3.626      6.328
REMARK  5 active torsions:
REMARK  status: ('A' for Active; 'I' for Inactive)
REMARK    1  A    between atoms: O1_2  and  N1_3 
REMARK    2  A    between atoms: N1_3  and  C2_5 
REMARK    3  A    between atoms: N2_6  and  O2_8 
REMARK    4  A    between atoms: O2_8  and  C3_9 
REMARK    5  A    between atoms: C4_14  and  N5_15 
ROOT
HETATM    1  C3  UNL     1     -41.142  -0.595   5.685  1.00  0.00     0.276 A 
HETATM    2  N3  UNL     1     -42.171  -1.215   6.286  1.00  0.00    -0.249 N 
ATOM      3  H3  UNL     1     -42.214  -2.215   6.480  1.00  0.00     0.191 HD
HETATM    4  N4  UNL     1     -43.112  -0.354   6.587  1.00  0.00    -0.129 N 
ATOM      5  H4  UNL     1     -43.997  -0.565   7.048  1.00  0.00     0.205 HD
HETATM    6  C4  UNL     1     -42.702   0.849   6.181  1.00  0.00     0.693 A 
HETATM    7  N6  UNL     1     -41.492   0.700   5.628  1.00  0.00    -0.151 N 
ATOM      8  H6  UNL     1     -40.928   1.450   5.228  1.00  0.00     0.188 HD
ENDROOT
BRANCH   1   9
HETATM    9  O2  UNL     1     -39.955  -1.135   5.210  1.00  0.00    -0.198 OA
BRANCH   9  10
HETATM   10  N2  UNL     1     -39.743  -1.157   3.859  1.00  0.00    -0.251 N 
HETATM   11  C2  UNL     1     -39.473  -2.279   3.296  1.00  0.00     0.228 C 
ATOM     12  H2  UNL     1     -39.799  -0.299   3.310  1.00  0.00     0.195 HD
BRANCH  11  13
HETATM   13  N1  UNL     1     -39.260  -2.255   1.890  1.00  0.00    -0.261 N 
ATOM     14  H1  UNL     1     -40.086  -2.266   1.293  1.00  0.00     0.195 HD
BRANCH  13  15
HETATM   15  O1  UNL     1     -38.074  -2.220   1.288  1.00  0.00    -0.284 OA
HETATM   16  C1  UNL     1     -37.664  -3.497   0.995  1.00  0.00     0.237 C 
ENDBRANCH  13  15
ENDBRANCH  11  13
ENDBRANCH   9  10
ENDBRANCH   1   9
BRANCH   6  17
HETATM   17  N5  UNL     1     -43.316   1.993   6.278  1.00  0.00    -0.233 N 
ATOM     18  H52 UNL     1     -44.094   2.165   6.913  1.00  0.00     0.174 HD
ATOM     19  H51 UNL     1     -43.136   2.856   5.766  1.00  0.00     0.174 HD
ENDBRANCH   6  17
TORSDOF 5
ENDMDL
