MODEL 1
REMARK VINA RESULT: -6.423577092      0.000      0.000
REMARK  5 active torsions:
REMARK  status: ('A' for Active; 'I' for Inactive)
REMARK    1  A    between atoms: O1_2  and  C2_3 
REMARK    2  A    between atoms: C3_6  and  N2_7 
REMARK    3  A    between atoms: N2_7  and  N3_9 
REMARK    4  A    between atoms: N3_9  and  O2_11 
REMARK    5  A    between atoms: O2_11  and  N4_12 
ROOT
HETATM    1  C2  UNL     1     -42.939   1.343   6.061  1.00  0.00     0.253 A 
HETATM    2  N1  UNL     1     -41.637   1.262   5.744  1.00  0.00    -0.151 N 
ATOM      3  H1  UNL     1     -41.056   2.052   5.463  1.00  0.00     0.188 HD
HETATM    4  C3  UNL     1     -41.208  -0.005   5.849  1.00  0.00     0.716 A 
HETATM    5  N6  UNL     1     -42.274  -0.711   6.239  1.00  0.00    -0.127 N 
ATOM      6  H6  UNL     1     -42.278  -1.716   6.411  1.00  0.00     0.205 HD
HETATM    7  N7  UNL     1     -43.330   0.085   6.371  1.00  0.00    -0.250 N 
ATOM      8  H7  UNL     1     -44.267  -0.201   6.656  1.00  0.00     0.191 HD
ENDROOT
BRANCH   4   9
HETATM    9  N2  UNL     1     -40.029  -0.467   5.629  1.00  0.00    -0.109 N 
ATOM     10  H2  UNL     1     -39.275  -0.157   6.243  1.00  0.00     0.207 HD
BRANCH   9  11
HETATM   11  N3  UNL     1     -39.714  -1.355   4.618  1.00  0.00    -0.166 N 
ATOM     12  H3  UNL     1     -38.891  -1.952   4.696  1.00  0.00     0.219 HD
BRANCH  11  13
HETATM   13  O2  UNL     1     -40.514  -1.426   3.516  1.00  0.00    -0.126 OA
BRANCH  13  14
HETATM   14  N4  UNL     1     -40.012  -1.358   2.225  1.00  0.00    -0.187 N 
HETATM   15  N5  UNL     1     -39.145  -2.217   1.828  1.00  0.00    -0.324 N 
ATOM     16  H52 UNL     1     -38.836  -2.943   2.473  1.00  0.00     0.178 HD
ATOM     17  H51 UNL     1     -38.775  -2.167   0.878  1.00  0.00     0.178 HD
ATOM     18  H4  UNL     1     -40.332  -0.626   1.592  1.00  0.00     0.217 HD
ENDBRANCH  13  14
ENDBRANCH  11  13
ENDBRANCH   9  11
ENDBRANCH   4   9
BRANCH   1  19
HETATM   19  O1  UNL     1     -43.707   2.497   6.060  1.00  0.00    -0.326 OA
HETATM   20  C1  UNL     1     -43.589   3.376   4.961  1.00  0.00     0.213 C 
ENDBRANCH   1  19
TORSDOF 5
ENDMDL
MODEL 2
REMARK VINA RESULT: -6.384695145      1.200      1.485
REMARK  5 active torsions:
REMARK  status: ('A' for Active; 'I' for Inactive)
REMARK    1  A    between atoms: O1_2  and  C2_3 
REMARK    2  A    between atoms: C3_6  and  N2_7 
REMARK    3  A    between atoms: N2_7  and  N3_9 
REMARK    4  A    between atoms: N3_9  and  O2_11 
REMARK    5  A    between atoms: O2_11  and  N4_12 
ROOT
HETATM    1  C2  UNL     1     -42.297   0.834   6.062  1.00  0.00     0.253 A 
HETATM    2  N1  UNL     1     -41.292   0.715   5.181  1.00  0.00    -0.151 N 
ATOM      3  H1  UNL     1     -40.770   1.496   4.783  1.00  0.00     0.188 HD
HETATM    4  C3  UNL     1     -41.070  -0.578   4.896  1.00  0.00     0.716 A 
HETATM    5  N6  UNL     1     -41.962  -1.260   5.621  1.00  0.00    -0.127 N 
ATOM      6  H6  UNL     1     -42.053  -2.276   5.629  1.00  0.00     0.205 HD
HETATM    7  N7  UNL     1     -42.713  -0.425   6.332  1.00  0.00    -0.250 N 
ATOM      8  H7  UNL     1     -43.468  -0.687   6.966  1.00  0.00     0.191 HD
ENDROOT
BRANCH   4   9
HETATM    9  N2  UNL     1     -40.194  -1.079   4.101  1.00  0.00    -0.109 N 
ATOM     10  H2  UNL     1     -39.341  -1.459   4.512  1.00  0.00     0.207 HD
BRANCH   9  11
HETATM   11  N3  UNL     1     -40.329  -1.137   2.726  1.00  0.00    -0.166 N 
ATOM     12  H3  UNL     1     -40.814  -0.393   2.225  1.00  0.00     0.219 HD
BRANCH  11  13
HETATM   13  O2  UNL     1     -39.808  -2.198   2.046  1.00  0.00    -0.126 OA
BRANCH  13  14
HETATM   14  N4  UNL     1     -38.654  -2.100   1.284  1.00  0.00    -0.187 N 
HETATM   15  N5  UNL     1     -38.161  -3.146   0.728  1.00  0.00    -0.324 N 
ATOM     16  H52 UNL     1     -38.631  -4.042   0.856  1.00  0.00     0.178 HD
ATOM     17  H51 UNL     1     -37.312  -3.073   0.167  1.00  0.00     0.178 HD
ATOM     18  H4  UNL     1     -38.197  -1.196   1.165  1.00  0.00     0.217 HD
ENDBRANCH  13  14
ENDBRANCH  11  13
ENDBRANCH   9  11
ENDBRANCH   4   9
BRANCH   1  19
HETATM   19  O1  UNL     1     -42.793   2.023   6.576  1.00  0.00    -0.326 OA
HETATM   20  C1  UNL     1     -42.006   3.187   6.439  1.00  0.00     0.213 C 
ENDBRANCH   1  19
TORSDOF 5
ENDMDL
MODEL 3
REMARK VINA RESULT: -6.383305413      2.526      5.217
REMARK  5 active torsions:
REMARK  status: ('A' for Active; 'I' for Inactive)
REMARK    1  A    between atoms: O1_2  and  C2_3 
REMARK    2  A    between atoms: C3_6  and  N2_7 
REMARK    3  A    between atoms: N2_7  and  N3_9 
REMARK    4  A    between atoms: N3_9  and  O2_11 
REMARK    5  A    between atoms: O2_11  and  N4_12 
ROOT
HETATM    1  C2  UNL     1     -41.066  -0.428   5.547  1.00  0.00     0.253 A 
HETATM    2  N1  UNL     1     -41.114   0.912   5.620  1.00  0.00    -0.151 N 
ATOM      3  H1  UNL     1     -40.353   1.537   5.356  1.00  0.00     0.188 HD
HETATM    4  C3  UNL     1     -42.307   1.312   6.088  1.00  0.00     0.716 A 
HETATM    5  N6  UNL     1     -42.998   0.189   6.305  1.00  0.00    -0.127 N 
ATOM      6  H6  UNL     1     -43.953   0.152   6.665  1.00  0.00     0.205 HD
HETATM    7  N7  UNL     1     -42.267  -0.872   5.986  1.00  0.00    -0.250 N 
ATOM      8  H7  UNL     1     -42.557  -1.848   6.058  1.00  0.00     0.191 HD
ENDROOT
BRANCH   4   9
HETATM    9  N2  UNL     1     -42.719   2.512   6.292  1.00  0.00    -0.109 N 
ATOM     10  H2  UNL     1     -43.724   2.659   6.391  1.00  0.00     0.207 HD
BRANCH   9  11
HETATM   11  N3  UNL     1     -41.894   3.616   6.387  1.00  0.00    -0.166 N 
ATOM     12  H3  UNL     1     -41.363   3.789   7.241  1.00  0.00     0.219 HD
BRANCH  11  13
HETATM   13  O2  UNL     1     -41.795   4.472   5.330  1.00  0.00    -0.126 OA
BRANCH  13  14
HETATM   14  N4  UNL     1     -42.899   5.092   4.767  1.00  0.00    -0.187 N 
HETATM   15  N5  UNL     1     -43.389   6.146   5.311  1.00  0.00    -0.324 N 
ATOM     16  H52 UNL     1     -42.954   6.515   6.156  1.00  0.00     0.178 HD
ATOM     17  H51 UNL     1     -44.202   6.602   4.897  1.00  0.00     0.178 HD
ATOM     18  H4  UNL     1     -43.322   4.710   3.922  1.00  0.00     0.217 HD
ENDBRANCH  13  14
ENDBRANCH  11  13
ENDBRANCH   9  11
ENDBRANCH   4   9
BRANCH   1  19
HETATM   19  O1  UNL     1     -39.987  -1.181   5.109  1.00  0.00    -0.326 OA
HETATM   20  C1  UNL     1     -39.954  -1.570   3.752  1.00  0.00     0.213 C 
ENDBRANCH   1  19
TORSDOF 5
ENDMDL
MODEL 4
REMARK VINA RESULT: -6.382684646      1.303      1.424
REMARK  5 active torsions:
REMARK  status: ('A' for Active; 'I' for Inactive)
REMARK    1  A    between atoms: O1_2  and  C2_3 
REMARK    2  A    between atoms: C3_6  and  N2_7 
REMARK    3  A    between atoms: N2_7  and  N3_9 
REMARK    4  A    between atoms: N3_9  and  O2_11 
REMARK    5  A    between atoms: O2_11  and  N4_12 
ROOT
HETATM    1  C2  UNL     1     -41.826   2.847   5.674  1.00  0.00     0.253 A 
HETATM    2  N1  UNL     1     -40.741   2.056   5.693  1.00  0.00    -0.151 N 
ATOM      3  H1  UNL     1     -39.782   2.380   5.565  1.00  0.00     0.188 HD
HETATM    4  C3  UNL     1     -41.096   0.780   5.905  1.00  0.00     0.716 A 
HETATM    5  N6  UNL     1     -42.428   0.795   6.017  1.00  0.00    -0.127 N 
ATOM      6  H6  UNL     1     -43.008  -0.027   6.185  1.00  0.00     0.205 HD
HETATM    7  N7  UNL     1     -42.887   2.034   5.880  1.00  0.00    -0.250 N 
ATOM      8  H7  UNL     1     -43.866   2.320   5.921  1.00  0.00     0.191 HD
ENDROOT
BRANCH   4   9
HETATM    9  N2  UNL     1     -40.337  -0.254   5.988  1.00  0.00    -0.109 N 
ATOM     10  H2  UNL     1     -39.960  -0.495   6.905  1.00  0.00     0.207 HD
BRANCH   9  11
HETATM   11  N3  UNL     1     -39.997  -1.061   4.919  1.00  0.00    -0.166 N 
ATOM     12  H3  UNL     1     -39.096  -1.539   4.901  1.00  0.00     0.219 HD
BRANCH  11  13
HETATM   13  O2  UNL     1     -40.876  -1.213   3.887  1.00  0.00    -0.126 OA
BRANCH  13  14
HETATM   14  N4  UNL     1     -40.606  -0.761   2.605  1.00  0.00    -0.187 N 
HETATM   15  N5  UNL     1     -39.715  -1.347   1.892  1.00  0.00    -0.324 N 
ATOM     16  H52 UNL     1     -39.214  -2.145   2.284  1.00  0.00     0.178 HD
ATOM     17  H51 UNL     1     -39.516  -1.014   0.949  1.00  0.00     0.178 HD
ATOM     18  H4  UNL     1     -41.117   0.037   2.228  1.00  0.00     0.217 HD
ENDBRANCH  13  14
ENDBRANCH  11  13
ENDBRANCH   9  11
ENDBRANCH   4   9
BRANCH   1  19
HETATM   19  O1  UNL     1     -41.829   4.220   5.478  1.00  0.00    -0.326 OA
HETATM   20  C1  UNL     1     -42.963   4.804   4.871  1.00  0.00     0.213 C 
ENDBRANCH   1  19
TORSDOF 5
ENDMDL
MODEL 5
REMARK VINA RESULT: -6.350475643      1.672      2.546
REMARK  5 active torsions:
REMARK  status: ('A' for Active; 'I' for Inactive)
REMARK    1  A    between atoms: O1_2  and  C2_3 
REMARK    2  A    between atoms: C3_6  and  N2_7 
REMARK    3  A    between atoms: N2_7  and  N3_9 
REMARK    4  A    between atoms: N3_9  and  O2_11 
REMARK    5  A    between atoms: O2_11  and  N4_12 
ROOT
HETATM    1  C2  UNL     1     -41.163   0.547   5.549  1.00  0.00     0.253 A 
HETATM    2  N1  UNL     1     -41.441   0.316   4.256  1.00  0.00    -0.151 N 
ATOM      3  H1  UNL     1     -42.135   0.826   3.709  1.00  0.00     0.188 HD
HETATM    4  C3  UNL     1     -40.676  -0.681   3.784  1.00  0.00     0.716 A 
HETATM    5  N6  UNL     1     -39.917  -1.065   4.815  1.00  0.00    -0.127 N 
ATOM      6  H6  UNL     1     -39.221  -1.810   4.781  1.00  0.00     0.205 HD
HETATM    7  N7  UNL     1     -40.196  -0.336   5.889  1.00  0.00    -0.250 N 
ATOM      8  H7  UNL     1     -39.760  -0.426   6.807  1.00  0.00     0.191 HD
ENDROOT
BRANCH   4   9
HETATM    9  N2  UNL     1     -40.659  -1.179   2.599  1.00  0.00    -0.109 N 
ATOM     10  H2  UNL     1     -41.526  -1.577   2.238  1.00  0.00     0.207 HD
BRANCH   9  11
HETATM   11  N3  UNL     1     -39.546  -1.210   1.781  1.00  0.00    -0.166 N 
ATOM     12  H3  UNL     1     -39.371  -0.452   1.121  1.00  0.00     0.219 HD
BRANCH  11  13
HETATM   13  O2  UNL     1     -38.682  -2.262   1.864  1.00  0.00    -0.126 OA
BRANCH  13  14
HETATM   14  N4  UNL     1     -38.417  -3.095   0.788  1.00  0.00    -0.187 N 
HETATM   15  N5  UNL     1     -37.420  -3.902   0.831  1.00  0.00    -0.324 N 
ATOM     16  H52 UNL     1     -36.833  -3.918   1.665  1.00  0.00     0.178 HD
ATOM     17  H51 UNL     1     -37.225  -4.514   0.039  1.00  0.00     0.178 HD
ATOM     18  H4  UNL     1     -39.015  -3.066  -0.038  1.00  0.00     0.217 HD
ENDBRANCH  13  14
ENDBRANCH  11  13
ENDBRANCH   9  11
ENDBRANCH   4   9
BRANCH   1  19
HETATM   19  O1  UNL     1     -41.764   1.505   6.352  1.00  0.00    -0.326 OA
HETATM   20  C1  UNL     1     -43.058   1.949   6.005  1.00  0.00     0.213 C 
ENDBRANCH   1  19
TORSDOF 5
ENDMDL
