MODEL 1
REMARK VINA RESULT: -7.392315284      0.000      0.000
REMARK  12 active torsions:
REMARK  status: ('A' for Active; 'I' for Inactive)
REMARK    1  A    between atoms: C2_2  and  N1_3 
REMARK    2  A    between atoms: C2_2  and  C3_7 
REMARK    3  A    between atoms: C3_7  and  O1_8 
REMARK    4  A    between atoms: C3_7  and  N2_10 
REMARK    5  A    between atoms: N2_10  and  C4_12 
REMARK    6  A    between atoms: C4_12  and  O2_13 
REMARK    7  A    between atoms: C4_12  and  C5_15 
REMARK    8  A    between atoms: C5_15  and  N3_16 
REMARK    9  A    between atoms: C5_15  and  C6_20 
REMARK   10  A    between atoms: C6_20  and  C7_21 
REMARK   11  A    between atoms: C9_25  and  N5_26 
REMARK   12  A    between atoms: N9_38  and  N10_39 
ROOT
HETATM    1  C7  UNL     1      10.189   1.628  -1.595  1.00  0.00     0.110 A 
HETATM    2  N4  UNL     1      10.851   0.929  -0.660  1.00  0.00    -0.338 N 
ATOM      3  H4  UNL     1      11.663   0.336  -0.829  1.00  0.00     0.167 HD
HETATM    4  C8  UNL     1      10.277   1.135   0.522  1.00  0.00     0.125 A 
HETATM    5  C9  UNL     1      10.585   0.647   1.764  1.00  0.00     0.145 A 
HETATM    6  N6  UNL     1       9.819   1.034   2.783  1.00  0.00    -0.175 N 
ATOM      7  H6  UNL     1      10.028   0.686   3.719  1.00  0.00     0.186 HD
HETATM    8  C10 UNL     1       8.757   1.889   2.610  1.00  0.00     0.681 A 
HETATM    9  N7  UNL     1       8.074   2.210   3.634  1.00  0.00    -0.234 N 
ATOM     10  H71 UNL     1       7.287   2.845   3.505  1.00  0.00     0.174 HD
ATOM     11  H72 UNL     1       8.316   1.838   4.553  1.00  0.00     0.174 HD
HETATM   12  N8  UNL     1       8.441   2.377   1.404  1.00  0.00    -0.168 N 
HETATM   13  C11 UNL     1       7.356   3.277   1.113  1.00  0.00     0.177 C 
HETATM   14  C12 UNL     1       9.214   1.992   0.349  1.00  0.00     0.178 A 
HETATM   15  N9  UNL     1       9.171   2.286  -0.953  1.00  0.00    -0.210 N 
ENDROOT
BRANCH   1  16
HETATM   16  C6  UNL     1      10.486   1.690  -3.038  1.00  0.00     0.116 C 
BRANCH  16  17
HETATM   17  C5  UNL     1      11.481   2.698  -3.469  1.00  0.00     0.238 C 
BRANCH  17  18
HETATM   18  C4  UNL     1      10.935   3.791  -4.343  1.00  0.00     0.246 C 
BRANCH  18  19
HETATM   19  N2  UNL     1      11.576   5.042  -4.229  1.00  0.00    -0.368 N 
ATOM     20  H2  UNL     1      12.549   5.123  -4.523  1.00  0.00     0.158 HD
BRANCH  19  21
HETATM   21  C3  UNL     1      10.931   6.163  -3.731  1.00  0.00     0.245 C 
BRANCH  21  22
HETATM   22  C2  UNL     1      11.587   7.497  -3.961  1.00  0.00     0.227 C 
HETATM   23  C1  UNL     1      13.026   7.410  -3.434  1.00  0.00     0.044 C 
BRANCH  22  24
HETATM   24  N1  UNL     1      11.686   7.678  -5.409  1.00  0.00    -0.071 N 
ATOM     25  H13 UNL     1      12.498   8.225  -5.694  1.00  0.00     0.274 HD
ATOM     26  H12 UNL     1      11.928   6.822  -5.908  1.00  0.00     0.274 HD
ATOM     27  H11 UNL     1      10.800   8.084  -5.712  1.00  0.00     0.274 HD
ENDBRANCH  22  24
ENDBRANCH  21  22
BRANCH  21  28
HETATM   28  O1  UNL     1      10.863   6.021  -2.320  1.00  0.00    -0.375 OA
ATOM     29  H1  UNL     1      10.153   6.591  -2.048  1.00  0.00     0.212 HD
ENDBRANCH  21  28
ENDBRANCH  19  21
ENDBRANCH  18  19
BRANCH  18  30
HETATM   30  O2  UNL     1       9.522   3.886  -4.193  1.00  0.00    -0.375 OA
ATOM     31  H2  UNL     1       9.101   3.036  -4.163  1.00  0.00     0.212 HD
ENDBRANCH  18  30
ENDBRANCH  17  18
BRANCH  17  32
HETATM   32  N3  UNL     1      12.213   3.199  -2.321  1.00  0.00    -0.070 N 
ATOM     33  H33 UNL     1      13.172   3.435  -2.576  1.00  0.00     0.274 HD
ATOM     34  H32 UNL     1      11.879   4.125  -2.052  1.00  0.00     0.274 HD
ATOM     35  H31 UNL     1      12.196   2.561  -1.525  1.00  0.00     0.274 HD
ENDBRANCH  17  32
ENDBRANCH  16  17
ENDBRANCH   1  16
BRANCH  15  36
HETATM   36  N10 UNL     1       8.274   3.106  -1.595  1.00  0.00    -0.239 N 
HETATM   37  N11 UNL     1       8.471   4.359  -1.644  1.00  0.00    -0.330 N 
ATOM     38 2H11 UNL     1       9.304   4.744  -1.200  1.00  0.00     0.178 HD
ATOM     39 1H11 UNL     1       7.806   4.969  -2.121  1.00  0.00     0.178 HD
ATOM     40  H10 UNL     1       7.445   2.705  -2.034  1.00  0.00     0.208 HD
ENDBRANCH  15  36
BRANCH   5  41
HETATM   41  N5  UNL     1      11.593  -0.170   1.948  1.00  0.00    -0.383 N 
ATOM     42  H52 UNL     1      12.552   0.177   1.985  1.00  0.00     0.157 HD
ATOM     43  H51 UNL     1      11.452  -1.174   2.059  1.00  0.00     0.157 HD
ENDBRANCH   5  41
TORSDOF 12
ENDMDL
MODEL 2
REMARK VINA RESULT: -7.323165494      1.957      3.777
REMARK  12 active torsions:
REMARK  status: ('A' for Active; 'I' for Inactive)
REMARK    1  A    between atoms: C2_2  and  N1_3 
REMARK    2  A    between atoms: C2_2  and  C3_7 
REMARK    3  A    between atoms: C3_7  and  O1_8 
REMARK    4  A    between atoms: C3_7  and  N2_10 
REMARK    5  A    between atoms: N2_10  and  C4_12 
REMARK    6  A    between atoms: C4_12  and  O2_13 
REMARK    7  A    between atoms: C4_12  and  C5_15 
REMARK    8  A    between atoms: C5_15  and  N3_16 
REMARK    9  A    between atoms: C5_15  and  C6_20 
REMARK   10  A    between atoms: C6_20  and  C7_21 
REMARK   11  A    between atoms: C9_25  and  N5_26 
REMARK   12  A    between atoms: N9_38  and  N10_39 
ROOT
HETATM    1  C7  UNL     1      10.008   4.057  -3.228  1.00  0.00     0.110 A 
HETATM    2  N4  UNL     1       8.934   4.358  -2.482  1.00  0.00    -0.338 N 
ATOM      3  H4  UNL     1       8.293   5.134  -2.652  1.00  0.00     0.167 HD
HETATM    4  C8  UNL     1       8.839   3.483  -1.485  1.00  0.00     0.125 A 
HETATM    5  C9  UNL     1       7.924   3.376  -0.472  1.00  0.00     0.145 A 
HETATM    6  N6  UNL     1       8.085   2.379   0.398  1.00  0.00    -0.175 N 
ATOM      7  H6  UNL     1       7.416   2.276   1.162  1.00  0.00     0.186 HD
HETATM    8  C10 UNL     1       9.125   1.486   0.295  1.00  0.00     0.681 A 
HETATM    9  N7  UNL     1       9.209   0.563   1.167  1.00  0.00    -0.234 N 
ATOM     10  H71 UNL     1       9.980  -0.099   1.090  1.00  0.00     0.174 HD
ATOM     11  H72 UNL     1       8.520   0.496   1.916  1.00  0.00     0.174 HD
HETATM   12  N8  UNL     1      10.029   1.575  -0.688  1.00  0.00    -0.168 N 
HETATM   13  C11 UNL     1      11.150   0.695  -0.889  1.00  0.00     0.177 C 
HETATM   14  C12 UNL     1       9.880   2.589  -1.588  1.00  0.00     0.178 A 
HETATM   15  N9  UNL     1      10.589   2.951  -2.660  1.00  0.00    -0.210 N 
ENDROOT
BRANCH   1  16
HETATM   16  C6  UNL     1      10.485   4.765  -4.430  1.00  0.00     0.116 C 
BRANCH  16  17
HETATM   17  C5  UNL     1      10.916   6.169  -4.246  1.00  0.00     0.238 C 
BRANCH  17  18
HETATM   18  C4  UNL     1      11.937   6.380  -3.165  1.00  0.00     0.246 C 
BRANCH  18  19
HETATM   19  N2  UNL     1      13.044   5.509  -3.192  1.00  0.00    -0.368 N 
ATOM     20  H2  UNL     1      12.900   4.524  -2.968  1.00  0.00     0.158 HD
BRANCH  19  21
HETATM   21  C3  UNL     1      14.322   5.942  -3.511  1.00  0.00     0.245 C 
BRANCH  21  22
HETATM   22  C2  UNL     1      14.777   7.249  -2.923  1.00  0.00     0.227 C 
HETATM   23  C1  UNL     1      15.882   6.945  -1.902  1.00  0.00     0.044 C 
BRANCH  22  24
HETATM   24  N1  UNL     1      15.406   8.006  -4.005  1.00  0.00    -0.071 N 
ATOM     25  H13 UNL     1      16.227   8.532  -3.705  1.00  0.00     0.274 HD
ATOM     26  H12 UNL     1      15.877   7.415  -4.690  1.00  0.00     0.274 HD
ATOM     27  H11 UNL     1      14.676   8.592  -4.410  1.00  0.00     0.274 HD
ENDBRANCH  22  24
ENDBRANCH  21  22
BRANCH  21  28
HETATM   28  O1  UNL     1      14.365   6.133  -4.918  1.00  0.00    -0.375 OA
ATOM     29  H1  UNL     1      13.796   6.875  -5.085  1.00  0.00     0.212 HD
ENDBRANCH  21  28
ENDBRANCH  19  21
ENDBRANCH  18  19
BRANCH  18  30
HETATM   30  O2  UNL     1      11.306   6.422  -1.889  1.00  0.00    -0.375 OA
ATOM     31  H2  UNL     1      10.569   7.021  -1.867  1.00  0.00     0.212 HD
ENDBRANCH  18  30
ENDBRANCH  17  18
BRANCH  17  32
HETATM   32  N3  UNL     1      11.308   6.742  -5.520  1.00  0.00    -0.070 N 
ATOM     33  H33 UNL     1      12.322   6.838  -5.578  1.00  0.00     0.274 HD
ATOM     34  H32 UNL     1      11.159   6.077  -6.279  1.00  0.00     0.274 HD
ATOM     35  H31 UNL     1      10.848   7.630  -5.719  1.00  0.00     0.274 HD
ENDBRANCH  17  32
ENDBRANCH  16  17
ENDBRANCH   1  16
BRANCH  15  36
HETATM   36  N10 UNL     1      11.722   2.352  -3.154  1.00  0.00    -0.239 N 
HETATM   37  N11 UNL     1      11.647   1.540  -4.128  1.00  0.00    -0.330 N 
ATOM     38 2H11 UNL     1      10.733   1.342  -4.533  1.00  0.00     0.178 HD
ATOM     39 1H11 UNL     1      12.488   1.094  -4.495  1.00  0.00     0.178 HD
ATOM     40  H10 UNL     1      12.629   2.560  -2.736  1.00  0.00     0.208 HD
ENDBRANCH  15  36
BRANCH   5  41
HETATM   41  N5  UNL     1       6.927   4.218  -0.358  1.00  0.00    -0.383 N 
ATOM     42  H52 UNL     1       6.880   5.059  -0.933  1.00  0.00     0.157 HD
ATOM     43  H51 UNL     1       6.169   4.060   0.306  1.00  0.00     0.157 HD
ENDBRANCH   5  41
TORSDOF 12
ENDMDL
MODEL 3
REMARK VINA RESULT: -6.978273958      1.989      3.332
REMARK  12 active torsions:
REMARK  status: ('A' for Active; 'I' for Inactive)
REMARK    1  A    between atoms: C2_2  and  N1_3 
REMARK    2  A    between atoms: C2_2  and  C3_7 
REMARK    3  A    between atoms: C3_7  and  O1_8 
REMARK    4  A    between atoms: C3_7  and  N2_10 
REMARK    5  A    between atoms: N2_10  and  C4_12 
REMARK    6  A    between atoms: C4_12  and  O2_13 
REMARK    7  A    between atoms: C4_12  and  C5_15 
REMARK    8  A    between atoms: C5_15  and  N3_16 
REMARK    9  A    between atoms: C5_15  and  C6_20 
REMARK   10  A    between atoms: C6_20  and  C7_21 
REMARK   11  A    between atoms: C9_25  and  N5_26 
REMARK   12  A    between atoms: N9_38  and  N10_39 
ROOT
HETATM    1  C7  UNL     1       9.883   3.084  -2.693  1.00  0.00     0.110 A 
HETATM    2  N4  UNL     1       8.756   3.561  -2.143  1.00  0.00    -0.338 N 
ATOM      3  H4  UNL     1       8.106   4.207  -2.591  1.00  0.00     0.167 HD
HETATM    4  C8  UNL     1       8.624   3.056  -0.919  1.00  0.00     0.125 A 
HETATM    5  C9  UNL     1       7.650   3.243   0.026  1.00  0.00     0.145 A 
HETATM    6  N6  UNL     1       7.784   2.594   1.182  1.00  0.00    -0.175 N 
ATOM      7  H6  UNL     1       7.072   2.715   1.902  1.00  0.00     0.186 HD
HETATM    8  C10 UNL     1       8.854   1.768   1.431  1.00  0.00     0.681 A 
HETATM    9  N7  UNL     1       8.909   1.186   2.560  1.00  0.00    -0.234 N 
ATOM     10  H71 UNL     1       9.702   0.572   2.745  1.00  0.00     0.174 HD
ATOM     11  H72 UNL     1       8.176   1.334   3.255  1.00  0.00     0.174 HD
HETATM   12  N8  UNL     1       9.815   1.573   0.520  1.00  0.00    -0.168 N 
HETATM   13  C11 UNL     1      10.971   0.730   0.677  1.00  0.00     0.177 C 
HETATM   14  C12 UNL     1       9.694   2.228  -0.670  1.00  0.00     0.178 A 
HETATM   15  N9  UNL     1      10.459   2.254  -1.765  1.00  0.00    -0.210 N 
ENDROOT
BRANCH   1  16
HETATM   16  C6  UNL     1      10.415   3.381  -4.036  1.00  0.00     0.116 C 
BRANCH  16  17
HETATM   17  C5  UNL     1      11.121   4.672  -4.199  1.00  0.00     0.238 C 
BRANCH  17  18
HETATM   18  C4  UNL     1      12.205   4.931  -3.192  1.00  0.00     0.246 C 
BRANCH  18  19
HETATM   19  N2  UNL     1      12.806   6.205  -3.255  1.00  0.00    -0.368 N 
ATOM     20  H2  UNL     1      12.219   7.031  -3.141  1.00  0.00     0.158 HD
BRANCH  19  21
HETATM   21  C3  UNL     1      14.165   6.375  -3.465  1.00  0.00     0.245 C 
BRANCH  21  22
HETATM   22  C2  UNL     1      14.731   7.752  -3.252  1.00  0.00     0.227 C 
HETATM   23  C1  UNL     1      16.045   7.605  -2.472  1.00  0.00     0.044 C 
BRANCH  22  24
HETATM   24  N1  UNL     1      15.088   8.273  -4.572  1.00  0.00    -0.071 N 
ATOM     25  H13 UNL     1      15.470   9.218  -4.544  1.00  0.00     0.274 HD
ATOM     26  H12 UNL     1      15.905   7.818  -4.979  1.00  0.00     0.274 HD
ATOM     27  H11 UNL     1      14.251   8.193  -5.151  1.00  0.00     0.274 HD
ENDBRANCH  22  24
ENDBRANCH  21  22
BRANCH  21  28
HETATM   28  O1  UNL     1      14.423   6.074  -4.829  1.00  0.00    -0.375 OA
ATOM     29  H1  UNL     1      13.570   6.053  -5.244  1.00  0.00     0.212 HD
ENDBRANCH  21  28
ENDBRANCH  19  21
ENDBRANCH  18  19
BRANCH  18  30
HETATM   30  O2  UNL     1      13.161   3.876  -3.210  1.00  0.00    -0.375 OA
ATOM     31  H2  UNL     1      13.128   3.369  -4.013  1.00  0.00     0.212 HD
ENDBRANCH  18  30
ENDBRANCH  17  18
BRANCH  17  32
HETATM   32  N3  UNL     1      11.569   4.827  -5.571  1.00  0.00    -0.070 N 
ATOM     33  H33 UNL     1      12.262   4.118  -5.808  1.00  0.00     0.274 HD
ATOM     34  H32 UNL     1      10.831   4.567  -6.225  1.00  0.00     0.274 HD
ATOM     35  H31 UNL     1      11.922   5.762  -5.773  1.00  0.00     0.274 HD
ENDBRANCH  17  32
ENDBRANCH  16  17
ENDBRANCH   1  16
BRANCH  15  36
HETATM   36  N10 UNL     1      11.637   1.580  -1.977  1.00  0.00    -0.239 N 
HETATM   37  N11 UNL     1      11.655   0.521  -2.677  1.00  0.00    -0.330 N 
ATOM     38 2H11 UNL     1      10.781   0.182  -3.078  1.00  0.00     0.178 HD
ATOM     39 1H11 UNL     1      12.529   0.020  -2.835  1.00  0.00     0.178 HD
ATOM     40  H10 UNL     1      12.503   1.933  -1.568  1.00  0.00     0.208 HD
ENDBRANCH  15  36
BRANCH   5  41
HETATM   41  N5  UNL     1       6.625   4.028  -0.195  1.00  0.00    -0.383 N 
ATOM     42  H52 UNL     1       6.275   4.184  -1.140  1.00  0.00     0.157 HD
ATOM     43  H51 UNL     1       6.145   4.505   0.569  1.00  0.00     0.157 HD
ENDBRANCH   5  41
TORSDOF 12
ENDMDL
MODEL 4
REMARK VINA RESULT: -6.977030108      1.002      2.580
REMARK  12 active torsions:
REMARK  status: ('A' for Active; 'I' for Inactive)
REMARK    1  A    between atoms: C2_2  and  N1_3 
REMARK    2  A    between atoms: C2_2  and  C3_7 
REMARK    3  A    between atoms: C3_7  and  O1_8 
REMARK    4  A    between atoms: C3_7  and  N2_10 
REMARK    5  A    between atoms: N2_10  and  C4_12 
REMARK    6  A    between atoms: C4_12  and  O2_13 
REMARK    7  A    between atoms: C4_12  and  C5_15 
REMARK    8  A    between atoms: C5_15  and  N3_16 
REMARK    9  A    between atoms: C5_15  and  C6_20 
REMARK   10  A    between atoms: C6_20  and  C7_21 
REMARK   11  A    between atoms: C9_25  and  N5_26 
REMARK   12  A    between atoms: N9_38  and  N10_39 
ROOT
HETATM    1  C7  UNL     1       9.909   1.895  -1.977  1.00  0.00     0.110 A 
HETATM    2  N4  UNL     1       8.867   2.701  -1.723  1.00  0.00    -0.338 N 
ATOM      3  H4  UNL     1       8.381   3.276  -2.411  1.00  0.00     0.167 HD
HETATM    4  C8  UNL     1       8.570   2.629  -0.428  1.00  0.00     0.125 A 
HETATM    5  C9  UNL     1       7.599   3.260   0.304  1.00  0.00     0.145 A 
HETATM    6  N6  UNL     1       7.539   2.988   1.607  1.00  0.00    -0.175 N 
ATOM      7  H6  UNL     1       6.825   3.443   2.175  1.00  0.00     0.186 HD
HETATM    8  C10 UNL     1       8.412   2.112   2.207  1.00  0.00     0.681 A 
HETATM    9  N7  UNL     1       8.290   1.907   3.457  1.00  0.00    -0.234 N 
ATOM     10  H71 UNL     1       8.937   1.257   3.901  1.00  0.00     0.174 HD
ATOM     11  H72 UNL     1       7.561   2.384   3.989  1.00  0.00     0.174 HD
HETATM   12  N8  UNL     1       9.367   1.487   1.508  1.00  0.00    -0.168 N 
HETATM   13  C11 UNL     1      10.327   0.552   2.035  1.00  0.00     0.177 C 
HETATM   14  C12 UNL     1       9.444   1.752   0.173  1.00  0.00     0.178 A 
HETATM   15  N9  UNL     1      10.260   1.309  -0.787  1.00  0.00    -0.210 N 
ENDROOT
BRANCH   1  16
HETATM   16  C6  UNL     1      10.564   1.669  -3.279  1.00  0.00     0.116 C 
BRANCH  16  17
HETATM   17  C5  UNL     1      11.427   2.761  -3.787  1.00  0.00     0.238 C 
BRANCH  17  18
HETATM   18  C4  UNL     1      10.737   3.743  -4.689  1.00  0.00     0.246 C 
BRANCH  18  19
HETATM   19  N2  UNL     1      11.494   4.877  -5.049  1.00  0.00    -0.368 N 
ATOM     20  H2  UNL     1      12.290   4.757  -5.676  1.00  0.00     0.158 HD
BRANCH  19  21
HETATM   21  C3  UNL     1      11.196   6.147  -4.582  1.00  0.00     0.245 C 
BRANCH  21  22
HETATM   22  C2  UNL     1      12.232   7.219  -4.782  1.00  0.00     0.227 C 
HETATM   23  C1  UNL     1      13.549   6.533  -5.168  1.00  0.00     0.044 C 
BRANCH  22  24
HETATM   24  N1  UNL     1      11.814   8.001  -5.946  1.00  0.00    -0.071 N 
ATOM     25  H13 UNL     1      12.367   8.847  -6.084  1.00  0.00     0.274 HD
ATOM     26  H12 UNL     1      12.041   7.555  -6.835  1.00  0.00     0.274 HD
ATOM     27  H11 UNL     1      10.817   8.185  -5.829  1.00  0.00     0.274 HD
ENDBRANCH  22  24
ENDBRANCH  21  22
BRANCH  21  28
HETATM   28  O1  UNL     1      11.026   6.053  -3.175  1.00  0.00    -0.375 OA
ATOM     29  H1  UNL     1      11.212   5.146  -2.964  1.00  0.00     0.212 HD
ENDBRANCH  21  28
ENDBRANCH  19  21
ENDBRANCH  18  19
BRANCH  18  30
HETATM   30  O2  UNL     1       9.459   4.085  -4.165  1.00  0.00    -0.375 OA
ATOM     31  H2  UNL     1       8.895   3.328  -4.057  1.00  0.00     0.212 HD
ENDBRANCH  18  30
ENDBRANCH  17  18
BRANCH  17  32
HETATM   32  N3  UNL     1      12.130   3.394  -2.686  1.00  0.00    -0.070 N 
ATOM     33  H33 UNL     1      11.743   4.316  -2.491  1.00  0.00     0.274 HD
ATOM     34  H32 UNL     1      11.914   2.931  -1.803  1.00  0.00     0.274 HD
ATOM     35  H31 UNL     1      13.138   3.446  -2.832  1.00  0.00     0.274 HD
ENDBRANCH  17  32
ENDBRANCH  16  17
ENDBRANCH   1  16
BRANCH  15  36
HETATM   36  N10 UNL     1      11.295   0.415  -0.658  1.00  0.00    -0.239 N 
HETATM   37  N11 UNL     1      12.487   0.828  -0.517  1.00  0.00    -0.330 N 
ATOM     38 2H11 UNL     1      12.660   1.833  -0.503  1.00  0.00     0.178 HD
ATOM     39 1H11 UNL     1      13.256   0.165  -0.421  1.00  0.00     0.178 HD
ATOM     40  H10 UNL     1      11.104  -0.587  -0.675  1.00  0.00     0.208 HD
ENDBRANCH  15  36
BRANCH   5  41
HETATM   41  N5  UNL     1       6.760   4.098  -0.251  1.00  0.00    -0.383 N 
ATOM     42  H52 UNL     1       7.030   4.654  -1.063  1.00  0.00     0.157 HD
ATOM     43  H51 UNL     1       5.813   4.221   0.109  1.00  0.00     0.157 HD
ENDBRANCH   5  41
TORSDOF 12
ENDMDL
MODEL 5
REMARK VINA RESULT: -6.976802124      2.672      6.855
REMARK  12 active torsions:
REMARK  status: ('A' for Active; 'I' for Inactive)
REMARK    1  A    between atoms: C2_2  and  N1_3 
REMARK    2  A    between atoms: C2_2  and  C3_7 
REMARK    3  A    between atoms: C3_7  and  O1_8 
REMARK    4  A    between atoms: C3_7  and  N2_10 
REMARK    5  A    between atoms: N2_10  and  C4_12 
REMARK    6  A    between atoms: C4_12  and  O2_13 
REMARK    7  A    between atoms: C4_12  and  C5_15 
REMARK    8  A    between atoms: C5_15  and  N3_16 
REMARK    9  A    between atoms: C5_15  and  C6_20 
REMARK   10  A    between atoms: C6_20  and  C7_21 
REMARK   11  A    between atoms: C9_25  and  N5_26 
REMARK   12  A    between atoms: N9_38  and  N10_39 
ROOT
HETATM    1  C7  UNL     1       9.030   1.627  -0.698  1.00  0.00     0.110 A 
HETATM    2  N4  UNL     1       9.899   0.822  -1.327  1.00  0.00    -0.338 N 
ATOM      3  H4  UNL     1      10.143  -0.126  -1.041  1.00  0.00     0.167 HD
HETATM    4  C8  UNL     1      10.391   1.460  -2.386  1.00  0.00     0.125 A 
HETATM    5  C9  UNL     1      11.301   1.059  -3.329  1.00  0.00     0.145 A 
HETATM    6  N6  UNL     1      11.607   1.927  -4.293  1.00  0.00    -0.175 N 
ATOM      7  H6  UNL     1      12.282   1.654  -5.008  1.00  0.00     0.186 HD
HETATM    8  C10 UNL     1      11.042   3.178  -4.351  1.00  0.00     0.681 A 
HETATM    9  N7  UNL     1      11.389   3.948  -5.302  1.00  0.00    -0.234 N 
ATOM     10  H71 UNL     1      10.969   4.876  -5.345  1.00  0.00     0.174 HD
ATOM     11  H72 UNL     1      12.068   3.637  -5.997  1.00  0.00     0.174 HD
HETATM   12  N8  UNL     1      10.151   3.587  -3.439  1.00  0.00    -0.168 N 
HETATM   13  C11 UNL     1       9.499   4.870  -3.407  1.00  0.00     0.177 C 
HETATM   14  C12 UNL     1       9.824   2.712  -2.445  1.00  0.00     0.178 A 
HETATM   15  N9  UNL     1       8.992   2.803  -1.404  1.00  0.00    -0.210 N 
ENDROOT
BRANCH   1  16
HETATM   16  C6  UNL     1       8.254   1.324   0.520  1.00  0.00     0.116 C 
BRANCH  16  17
HETATM   17  C5  UNL     1       9.006   1.293   1.795  1.00  0.00     0.238 C 
BRANCH  17  18
HETATM   18  C4  UNL     1      10.451   1.688   1.686  1.00  0.00     0.246 C 
BRANCH  18  19
HETATM   19  N2  UNL     1      11.379   0.627   1.730  1.00  0.00    -0.368 N 
ATOM     20  H2  UNL     1      12.178   0.648   1.097  1.00  0.00     0.158 HD
BRANCH  19  21
HETATM   21  C3  UNL     1      11.243  -0.442   2.601  1.00  0.00     0.245 C 
BRANCH  21  22
HETATM   22  C2  UNL     1      12.015  -0.385   3.891  1.00  0.00     0.227 C 
HETATM   23  C1  UNL     1      11.102   0.234   4.958  1.00  0.00     0.044 C 
BRANCH  22  24
HETATM   24  N1  UNL     1      12.257  -1.768   4.302  1.00  0.00    -0.071 N 
ATOM     25  H13 UNL     1      11.436  -2.366   4.212  1.00  0.00     0.274 HD
ATOM     26  H12 UNL     1      12.859  -2.281   3.658  1.00  0.00     0.274 HD
ATOM     27  H11 UNL     1      12.625  -1.727   5.253  1.00  0.00     0.274 HD
ENDBRANCH  22  24
ENDBRANCH  21  22
BRANCH  21  28
HETATM   28  O1  UNL     1      11.724  -1.598   1.931  1.00  0.00    -0.375 OA
ATOM     29  H1  UNL     1      11.013  -1.869   1.364  1.00  0.00     0.212 HD
ENDBRANCH  21  28
ENDBRANCH  19  21
ENDBRANCH  18  19
BRANCH  18  30
HETATM   30  O2  UNL     1      10.755   2.718   2.620  1.00  0.00    -0.375 OA
ATOM     31  H2  UNL     1      10.241   2.651   3.416  1.00  0.00     0.212 HD
ENDBRANCH  18  30
ENDBRANCH  17  18
BRANCH  17  32
HETATM   32  N3  UNL     1       8.288   2.034   2.816  1.00  0.00    -0.070 N 
ATOM     33  H33 UNL     1       7.286   1.861   2.751  1.00  0.00     0.274 HD
ATOM     34  H32 UNL     1       8.467   1.643   3.741  1.00  0.00     0.274 HD
ATOM     35  H31 UNL     1       8.487   3.034   2.799  1.00  0.00     0.274 HD
ENDBRANCH  17  32
ENDBRANCH  16  17
ENDBRANCH   1  16
BRANCH  15  36
HETATM   36  N10 UNL     1       8.207   3.874  -1.053  1.00  0.00    -0.239 N 
HETATM   37  N11 UNL     1       7.102   3.692  -0.454  1.00  0.00    -0.330 N 
ATOM     38 2H11 UNL     1       6.811   2.739  -0.240  1.00  0.00     0.178 HD
ATOM     39 1H11 UNL     1       6.518   4.487  -0.194  1.00  0.00     0.178 HD
ATOM     40  H10 UNL     1       8.513   4.821  -1.276  1.00  0.00     0.208 HD
ENDBRANCH  15  36
BRANCH   5  41
HETATM   41  N5  UNL     1      11.850  -0.129  -3.289  1.00  0.00    -0.383 N 
ATOM     42  H52 UNL     1      12.848  -0.242  -3.114  1.00  0.00     0.157 HD
ATOM     43  H51 UNL     1      11.299  -0.976  -3.430  1.00  0.00     0.157 HD
ENDBRANCH   5  41
TORSDOF 12
ENDMDL
