MODEL 1
REMARK VINA RESULT: -8.183248027      0.000      0.000
REMARK  12 active torsions:
REMARK  status: ('A' for Active; 'I' for Inactive)
REMARK    1  A    between atoms: N1_1  and  N2_4 
REMARK    2  A    between atoms: N2_4  and  C1_6 
REMARK    3  A    between atoms: N3_7  and  N4_8 
REMARK    4  A    between atoms: C3_13  and  C4_14 
REMARK    5  A    between atoms: N7_17  and  C5_18 
REMARK    6  A    between atoms: C5_18  and  O2_19 
REMARK    7  A    between atoms: C5_18  and  C6_21 
REMARK    8  A    between atoms: C6_21  and  N8_22 
REMARK    9  A    between atoms: C6_21  and  C7_26 
REMARK   10  A    between atoms: C7_26  and  C8_27 
REMARK   11  A    between atoms: C8_27  and  N9_28 
REMARK   12  A    between atoms: N9_28  and  C9_30 
ROOT
HETATM    1  C5  UNL     1       9.157   2.225  -1.999  1.00  0.00     0.171 C 
ENDROOT
BRANCH   1   2
HETATM    2  N7  UNL     1       9.283   1.995  -0.581  1.00  0.00    -0.117 N 
HETATM    3  C1  UNL     1       8.340   2.337   0.327  1.00  0.00     0.727 A 
HETATM    4  N3  UNL     1       8.794   1.965   1.531  1.00  0.00    -0.074 N 
HETATM    5  C2  UNL     1       9.995   1.403   1.390  1.00  0.00     0.188 A 
HETATM    6  N5  UNL     1      10.797   0.882   2.455  1.00  0.00    -0.077 NA
HETATM    7  C3  UNL     1      10.339   1.410   0.022  1.00  0.00     0.167 A 
BRANCH   3   8
HETATM    8  N2  UNL     1       7.186   2.936   0.118  1.00  0.00    -0.136 N 
ATOM      9  H2  UNL     1       6.336   2.382   0.017  1.00  0.00     0.205 HD
BRANCH   8  10
HETATM   10  N1  UNL     1       7.125   4.329   0.036  1.00  0.00    -0.331 N 
ATOM     11  H12 UNL     1       7.398   4.784  -0.835  1.00  0.00     0.177 HD
ATOM     12  H11 UNL     1       6.811   4.876   0.837  1.00  0.00     0.177 HD
ENDBRANCH   8  10
ENDBRANCH   3   8
BRANCH   4  13
HETATM   13  N4  UNL     1       8.082   2.157   2.734  1.00  0.00    -0.323 N 
ATOM     14  H42 UNL     1       7.084   2.009   2.887  1.00  0.00     0.178 HD
ATOM     15  H41 UNL     1       8.510   2.475   3.603  1.00  0.00     0.178 HD
ENDBRANCH   4  13
BRANCH   7  16
HETATM   16  C4  UNL     1      11.593   0.886  -0.475  1.00  0.00     0.286 C 
HETATM   17  N6  UNL     1      11.824   0.220  -1.683  1.00  0.00    -0.056 NA
HETATM   18  O1  UNL     1      12.643   1.034   0.255  1.00  0.00    -0.269 OA
ENDBRANCH   7  16
ENDBRANCH   1   2
BRANCH   1  19
HETATM   19  O2  UNL     1       9.240   1.090  -2.793  1.00  0.00    -0.347 OA
ATOM     20  H2  UNL     1       9.383   1.252  -3.718  1.00  0.00     0.219 HD
ENDBRANCH   1  19
BRANCH   1  21
HETATM   21  C6  UNL     1       9.869   3.427  -2.525  1.00  0.00     0.263 C 
BRANCH  21  22
HETATM   22  N8  UNL     1       8.896   4.478  -2.883  1.00  0.00    -0.067 N 
ATOM     23  H83 UNL     1       8.135   4.540  -2.206  1.00  0.00     0.275 HD
ATOM     24  H82 UNL     1       9.283   5.414  -2.760  1.00  0.00     0.275 HD
ATOM     25  H81 UNL     1       8.551   4.329  -3.831  1.00  0.00     0.275 HD
ENDBRANCH  21  22
BRANCH  21  26
HETATM   26  C7  UNL     1      10.788   3.196  -3.694  1.00  0.00     0.086 C 
BRANCH  26  27
HETATM   27  C8  UNL     1      12.233   3.434  -3.480  1.00  0.00     0.065 C 
BRANCH  27  28
HETATM   28  N9  UNL     1      12.791   4.590  -4.042  1.00  0.00    -0.352 N 
ATOM     29  H9  UNL     1      13.784   4.558  -4.271  1.00  0.00     0.166 HD
BRANCH  28  30
HETATM   30  C9  UNL     1      12.177   5.681  -4.296  1.00  0.00     0.170 A 
HETATM   31  N10 UNL     1      12.031   6.153  -5.578  1.00  0.00    -0.222 N 
HETATM   32  O3  UNL     1      11.381   7.244  -5.511  1.00  0.00    -0.154 OA
ATOM     33  H10 UNL     1      12.379   5.709  -6.428  1.00  0.00     0.198 HD
HETATM   34  N11 UNL     1      11.069   7.567  -4.323  1.00  0.00    -0.224 N 
HETATM   35  C10 UNL     1      11.550   6.608  -3.501  1.00  0.00     0.184 A 
ATOM     36  H11 UNL     1      10.549   8.399  -4.041  1.00  0.00     0.198 HD
HETATM   37  N12 UNL     1      11.408   6.598  -2.091  1.00  0.00    -0.077 NA
ENDBRANCH  28  30
ENDBRANCH  27  28
ENDBRANCH  26  27
ENDBRANCH  21  26
ENDBRANCH   1  21
TORSDOF 12
ENDMDL
MODEL 2
REMARK VINA RESULT: -8.108107283      1.174      1.174
REMARK  12 active torsions:
REMARK  status: ('A' for Active; 'I' for Inactive)
REMARK    1  A    between atoms: N1_1  and  N2_4 
REMARK    2  A    between atoms: N2_4  and  C1_6 
REMARK    3  A    between atoms: N3_7  and  N4_8 
REMARK    4  A    between atoms: C3_13  and  C4_14 
REMARK    5  A    between atoms: N7_17  and  C5_18 
REMARK    6  A    between atoms: C5_18  and  O2_19 
REMARK    7  A    between atoms: C5_18  and  C6_21 
REMARK    8  A    between atoms: C6_21  and  N8_22 
REMARK    9  A    between atoms: C6_21  and  C7_26 
REMARK   10  A    between atoms: C7_26  and  C8_27 
REMARK   11  A    between atoms: C8_27  and  N9_28 
REMARK   12  A    between atoms: N9_28  and  C9_30 
ROOT
HETATM    1  C5  UNL     1       9.198   2.080  -1.842  1.00  0.00     0.171 C 
ENDROOT
BRANCH   1   2
HETATM    2  N7  UNL     1       9.272   1.994  -0.404  1.00  0.00    -0.117 N 
HETATM    3  C1  UNL     1       8.248   2.299   0.426  1.00  0.00     0.727 A 
HETATM    4  N3  UNL     1       8.677   2.093   1.678  1.00  0.00    -0.074 N 
HETATM    5  C2  UNL     1       9.942   1.672   1.643  1.00  0.00     0.188 A 
HETATM    6  N5  UNL     1      10.741   1.348   2.786  1.00  0.00    -0.077 NA
HETATM    7  C3  UNL     1      10.356   1.598   0.297  1.00  0.00     0.167 A 
BRANCH   3   8
HETATM    8  N2  UNL     1       7.046   2.733   0.112  1.00  0.00    -0.136 N 
ATOM      9  H2  UNL     1       6.290   2.066  -0.051  1.00  0.00     0.205 HD
BRANCH   8  10
HETATM   10  N1  UNL     1       6.802   4.103   0.001  1.00  0.00    -0.331 N 
ATOM     11  H12 UNL     1       7.358   4.651  -0.656  1.00  0.00     0.177 HD
ATOM     12  H11 UNL     1       6.078   4.542   0.569  1.00  0.00     0.177 HD
ENDBRANCH   8  10
ENDBRANCH   3   8
BRANCH   4  13
HETATM   13  N4  UNL     1       7.883   2.304   2.825  1.00  0.00    -0.323 N 
ATOM     14  H42 UNL     1       7.630   1.614   3.532  1.00  0.00     0.178 HD
ATOM     15  H41 UNL     1       7.469   3.203   3.072  1.00  0.00     0.178 HD
ENDBRANCH   4  13
BRANCH   7  16
HETATM   16  C4  UNL     1      11.688   1.188  -0.095  1.00  0.00     0.286 C 
HETATM   17  N6  UNL     1      12.293  -0.057   0.103  1.00  0.00    -0.056 NA
HETATM   18  O1  UNL     1      12.432   2.047  -0.700  1.00  0.00    -0.269 OA
ENDBRANCH   7  16
ENDBRANCH   1   2
BRANCH   1  19
HETATM   19  O2  UNL     1       9.391   0.884  -2.518  1.00  0.00    -0.347 OA
ATOM     20  H2  UNL     1      10.235   0.791  -2.944  1.00  0.00     0.219 HD
ENDBRANCH   1  19
BRANCH   1  21
HETATM   21  C6  UNL     1       9.853   3.274  -2.454  1.00  0.00     0.263 C 
BRANCH  21  22
HETATM   22  N8  UNL     1       8.893   4.393  -2.537  1.00  0.00    -0.067 N 
ATOM     23  H83 UNL     1       7.932   4.065  -2.632  1.00  0.00     0.275 HD
ATOM     24  H82 UNL     1       8.798   4.882  -1.647  1.00  0.00     0.275 HD
ATOM     25  H81 UNL     1       9.156   5.025  -3.293  1.00  0.00     0.275 HD
ENDBRANCH  21  22
BRANCH  21  26
HETATM   26  C7  UNL     1      10.479   3.067  -3.806  1.00  0.00     0.086 C 
BRANCH  26  27
HETATM   27  C8  UNL     1      11.957   3.097  -3.881  1.00  0.00     0.065 C 
BRANCH  27  28
HETATM   28  N9  UNL     1      12.636   3.952  -3.003  1.00  0.00    -0.352 N 
ATOM     29  H9  UNL     1      12.907   3.563  -2.100  1.00  0.00     0.166 HD
BRANCH  28  30
HETATM   30  C9  UNL     1      12.947   5.172  -3.221  1.00  0.00     0.170 A 
HETATM   31  N10 UNL     1      14.052   5.519  -3.959  1.00  0.00    -0.222 N 
HETATM   32  O3  UNL     1      14.098   6.789  -4.004  1.00  0.00    -0.154 OA
ATOM     33  H10 UNL     1      14.716   4.876  -4.393  1.00  0.00     0.198 HD
HETATM   34  N11 UNL     1      13.142   7.345  -3.377  1.00  0.00    -0.224 N 
HETATM   35  C10 UNL     1      12.374   6.363  -2.855  1.00  0.00     0.184 A 
ATOM     36  H11 UNL     1      12.984   8.349  -3.285  1.00  0.00     0.198 HD
HETATM   37  N12 UNL     1      11.203   6.570  -2.083  1.00  0.00    -0.077 NA
ENDBRANCH  28  30
ENDBRANCH  27  28
ENDBRANCH  26  27
ENDBRANCH  21  26
ENDBRANCH   1  21
TORSDOF 12
ENDMDL
MODEL 3
REMARK VINA RESULT: -7.998848223      1.123      2.875
REMARK  12 active torsions:
REMARK  status: ('A' for Active; 'I' for Inactive)
REMARK    1  A    between atoms: N1_1  and  N2_4 
REMARK    2  A    between atoms: N2_4  and  C1_6 
REMARK    3  A    between atoms: N3_7  and  N4_8 
REMARK    4  A    between atoms: C3_13  and  C4_14 
REMARK    5  A    between atoms: N7_17  and  C5_18 
REMARK    6  A    between atoms: C5_18  and  O2_19 
REMARK    7  A    between atoms: C5_18  and  C6_21 
REMARK    8  A    between atoms: C6_21  and  N8_22 
REMARK    9  A    between atoms: C6_21  and  C7_26 
REMARK   10  A    between atoms: C7_26  and  C8_27 
REMARK   11  A    between atoms: C8_27  and  N9_28 
REMARK   12  A    between atoms: N9_28  and  C9_30 
ROOT
HETATM    1  C5  UNL     1       9.312   2.139  -2.213  1.00  0.00     0.171 C 
ENDROOT
BRANCH   1   2
HETATM    2  N7  UNL     1       9.409   1.901  -0.794  1.00  0.00    -0.117 N 
HETATM    3  C1  UNL     1      10.326   1.085  -0.225  1.00  0.00     0.727 A 
HETATM    4  N3  UNL     1      10.121   1.119   1.099  1.00  0.00    -0.074 N 
HETATM    5  C2  UNL     1       9.099   1.934   1.362  1.00  0.00     0.188 A 
HETATM    6  N5  UNL     1       8.583   2.225   2.665  1.00  0.00    -0.077 NA
HETATM    7  C3  UNL     1       8.614   2.458   0.145  1.00  0.00     0.167 A 
BRANCH   3   8
HETATM    8  N2  UNL     1      11.253   0.362  -0.817  1.00  0.00    -0.136 N 
ATOM      9  H2  UNL     1      11.147  -0.651  -0.877  1.00  0.00     0.205 HD
BRANCH   8  10
HETATM   10  N1  UNL     1      12.381   0.978  -1.362  1.00  0.00    -0.331 N 
ATOM     11  H12 UNL     1      12.486   1.006  -2.376  1.00  0.00     0.177 HD
ATOM     12  H11 UNL     1      13.085   1.392  -0.751  1.00  0.00     0.177 HD
ENDBRANCH   8  10
ENDBRANCH   3   8
BRANCH   4  13
HETATM   13  N4  UNL     1      10.888   0.390   2.032  1.00  0.00    -0.323 N 
ATOM     14  H42 UNL     1      11.882   0.503   2.231  1.00  0.00     0.178 HD
ATOM     15  H41 UNL     1      10.511  -0.350   2.624  1.00  0.00     0.178 HD
ENDBRANCH   4  13
BRANCH   7  16
HETATM   16  C4  UNL     1       7.493   3.369   0.072  1.00  0.00     0.286 C 
HETATM   17  N6  UNL     1       7.525   4.767   0.038  1.00  0.00    -0.056 NA
HETATM   18  O1  UNL     1       6.307   2.867   0.032  1.00  0.00    -0.269 OA
ENDBRANCH   7  16
ENDBRANCH   1   2
BRANCH   1  19
HETATM   19  O2  UNL     1       9.487   1.021  -3.015  1.00  0.00    -0.347 OA
ATOM     20  H2  UNL     1       8.697   0.685  -3.422  1.00  0.00     0.219 HD
ENDBRANCH   1  19
BRANCH   1  21
HETATM   21  C6  UNL     1       9.964   3.388  -2.706  1.00  0.00     0.263 C 
BRANCH  21  22
HETATM   22  N8  UNL     1       8.975   4.482  -2.782  1.00  0.00    -0.067 N 
ATOM     23  H83 UNL     1       8.824   4.794  -3.741  1.00  0.00     0.275 HD
ATOM     24  H82 UNL     1       8.029   4.156  -2.579  1.00  0.00     0.275 HD
ATOM     25  H81 UNL     1       9.253   5.249  -2.171  1.00  0.00     0.275 HD
ENDBRANCH  21  22
BRANCH  21  26
HETATM   26  C7  UNL     1      10.680   3.287  -4.025  1.00  0.00     0.086 C 
BRANCH  26  27
HETATM   27  C8  UNL     1      12.157   3.388  -4.005  1.00  0.00     0.065 C 
BRANCH  27  28
HETATM   28  N9  UNL     1      12.719   4.667  -3.904  1.00  0.00    -0.352 N 
ATOM     29  H9  UNL     1      13.672   4.724  -3.544  1.00  0.00     0.166 HD
BRANCH  28  30
HETATM   30  C9  UNL     1      12.155   5.770  -4.217  1.00  0.00     0.170 A 
HETATM   31  N10 UNL     1      12.123   6.228  -5.511  1.00  0.00    -0.222 N 
HETATM   32  O3  UNL     1      11.499   7.336  -5.509  1.00  0.00    -0.154 OA
ATOM     33  H10 UNL     1      12.525   5.764  -6.326  1.00  0.00     0.198 HD
HETATM   34  N11 UNL     1      11.102   7.682  -4.352  1.00  0.00    -0.224 N 
HETATM   35  C10 UNL     1      11.492   6.721  -3.484  1.00  0.00     0.184 A 
ATOM     36  H11 UNL     1      10.583   8.530  -4.121  1.00  0.00     0.198 HD
HETATM   37  N12 UNL     1      11.239   6.734  -2.090  1.00  0.00    -0.077 NA
ENDBRANCH  28  30
ENDBRANCH  27  28
ENDBRANCH  26  27
ENDBRANCH  21  26
ENDBRANCH   1  21
TORSDOF 12
ENDMDL
MODEL 4
REMARK VINA RESULT: -7.996820137      2.880      7.430
REMARK  12 active torsions:
REMARK  status: ('A' for Active; 'I' for Inactive)
REMARK    1  A    between atoms: N1_1  and  N2_4 
REMARK    2  A    between atoms: N2_4  and  C1_6 
REMARK    3  A    between atoms: N3_7  and  N4_8 
REMARK    4  A    between atoms: C3_13  and  C4_14 
REMARK    5  A    between atoms: N7_17  and  C5_18 
REMARK    6  A    between atoms: C5_18  and  O2_19 
REMARK    7  A    between atoms: C5_18  and  C6_21 
REMARK    8  A    between atoms: C6_21  and  N8_22 
REMARK    9  A    between atoms: C6_21  and  C7_26 
REMARK   10  A    between atoms: C7_26  and  C8_27 
REMARK   11  A    between atoms: C8_27  and  N9_28 
REMARK   12  A    between atoms: N9_28  and  C9_30 
ROOT
HETATM    1  C5  UNL     1       9.234   1.252   0.280  1.00  0.00     0.171 C 
ENDROOT
BRANCH   1   2
HETATM    2  N7  UNL     1       9.376   2.018  -0.933  1.00  0.00    -0.117 N 
HETATM    3  C1  UNL     1       8.730   3.182  -1.173  1.00  0.00     0.727 A 
HETATM    4  N3  UNL     1       9.112   3.607  -2.385  1.00  0.00    -0.074 N 
HETATM    5  C2  UNL     1       9.976   2.733  -2.901  1.00  0.00     0.188 A 
HETATM    6  N5  UNL     1      10.604   2.844  -4.183  1.00  0.00    -0.077 NA
HETATM    7  C3  UNL     1      10.167   1.685  -1.976  1.00  0.00     0.167 A 
BRANCH   3   8
HETATM    8  N2  UNL     1       7.869   3.811  -0.400  1.00  0.00    -0.136 N 
ATOM      9  H2  UNL     1       8.172   4.613   0.152  1.00  0.00     0.205 HD
BRANCH   8  10
HETATM   10  N1  UNL     1       6.542   3.381  -0.335  1.00  0.00    -0.331 N 
ATOM     11  H12 UNL     1       5.811   4.066  -0.144  1.00  0.00     0.177 HD
ATOM     12  H11 UNL     1       6.315   2.398  -0.477  1.00  0.00     0.177 HD
ENDBRANCH   8  10
ENDBRANCH   3   8
BRANCH   4  13
HETATM   13  N4  UNL     1       8.647   4.797  -2.983  1.00  0.00    -0.323 N 
ATOM     14  H42 UNL     1       7.902   4.886  -3.674  1.00  0.00     0.178 HD
ATOM     15  H41 UNL     1       9.023   5.722  -2.776  1.00  0.00     0.178 HD
ENDBRANCH   4  13
BRANCH   7  16
HETATM   16  C4  UNL     1      11.037   0.558  -2.233  1.00  0.00     0.286 C 
HETATM   17  N6  UNL     1      12.291   0.298  -1.670  1.00  0.00    -0.056 NA
HETATM   18  O1  UNL     1      10.641  -0.333  -3.074  1.00  0.00    -0.269 OA
ENDBRANCH   7  16
ENDBRANCH   1   2
BRANCH   1  19
HETATM   19  O2  UNL     1       7.929   1.030   0.693  1.00  0.00    -0.347 OA
ATOM     20  H2  UNL     1       7.430   0.427   0.155  1.00  0.00     0.219 HD
ENDBRANCH   1  19
BRANCH   1  21
HETATM   21  C6  UNL     1      10.202   1.579   1.369  1.00  0.00     0.263 C 
BRANCH  21  22
HETATM   22  N8  UNL     1      11.350   0.650   1.324  1.00  0.00    -0.067 N 
ATOM     23  H83 UNL     1      11.264  -0.026   0.565  1.00  0.00     0.275 HD
ATOM     24  H82 UNL     1      12.205   1.115   1.017  1.00  0.00     0.275 HD
ATOM     25  H81 UNL     1      11.467   0.195   2.229  1.00  0.00     0.275 HD
ENDBRANCH  21  22
BRANCH  21  26
HETATM   26  C7  UNL     1       9.646   1.600   2.767  1.00  0.00     0.086 C 
BRANCH  26  27
HETATM   27  C8  UNL     1      10.589   1.335   3.877  1.00  0.00     0.065 C 
BRANCH  27  28
HETATM   28  N9  UNL     1      10.624   0.038   4.404  1.00  0.00    -0.352 N 
ATOM     29  H9  UNL     1       9.774  -0.518   4.314  1.00  0.00     0.166 HD
BRANCH  28  30
HETATM   30  C9  UNL     1      11.616  -0.517   4.987  1.00  0.00     0.170 A 
HETATM   31  N10 UNL     1      12.266  -1.599   4.445  1.00  0.00    -0.222 N 
HETATM   32  O3  UNL     1      13.200  -1.924   5.245  1.00  0.00    -0.154 OA
ATOM     33  H10 UNL     1      12.041  -2.059   3.563  1.00  0.00     0.198 HD
HETATM   34  N11 UNL     1      13.257  -1.179   6.273  1.00  0.00    -0.224 N 
HETATM   35  C10 UNL     1      12.270  -0.261   6.166  1.00  0.00     0.184 A 
ATOM     36  H11 UNL     1      13.927  -1.259   7.039  1.00  0.00     0.198 HD
HETATM   37  N12 UNL     1      11.999   0.757   7.114  1.00  0.00    -0.077 NA
ENDBRANCH  28  30
ENDBRANCH  27  28
ENDBRANCH  26  27
ENDBRANCH  21  26
ENDBRANCH   1  21
TORSDOF 12
ENDMDL
MODEL 5
REMARK VINA RESULT: -7.985011533      2.884      7.338
REMARK  12 active torsions:
REMARK  status: ('A' for Active; 'I' for Inactive)
REMARK    1  A    between atoms: N1_1  and  N2_4 
REMARK    2  A    between atoms: N2_4  and  C1_6 
REMARK    3  A    between atoms: N3_7  and  N4_8 
REMARK    4  A    between atoms: C3_13  and  C4_14 
REMARK    5  A    between atoms: N7_17  and  C5_18 
REMARK    6  A    between atoms: C5_18  and  O2_19 
REMARK    7  A    between atoms: C5_18  and  C6_21 
REMARK    8  A    between atoms: C6_21  and  N8_22 
REMARK    9  A    between atoms: C6_21  and  C7_26 
REMARK   10  A    between atoms: C7_26  and  C8_27 
REMARK   11  A    between atoms: C8_27  and  N9_28 
REMARK   12  A    between atoms: N9_28  and  C9_30 
ROOT
HETATM    1  C5  UNL     1       9.234   1.254   0.415  1.00  0.00     0.171 C 
ENDROOT
BRANCH   1   2
HETATM    2  N7  UNL     1       9.354   2.013  -0.805  1.00  0.00    -0.117 N 
HETATM    3  C1  UNL     1       8.680   3.159  -1.052  1.00  0.00     0.727 A 
HETATM    4  N3  UNL     1       9.048   3.582  -2.270  1.00  0.00    -0.074 N 
HETATM    5  C2  UNL     1       9.930   2.723  -2.782  1.00  0.00     0.188 A 
HETATM    6  N5  UNL     1      10.550   2.838  -4.067  1.00  0.00    -0.077 NA
HETATM    7  C3  UNL     1      10.149   1.689  -1.848  1.00  0.00     0.167 A 
BRANCH   3   8
HETATM    8  N2  UNL     1       7.808   3.775  -0.282  1.00  0.00    -0.136 N 
ATOM      9  H2  UNL     1       8.109   4.547   0.312  1.00  0.00     0.205 HD
BRANCH   8  10
HETATM   10  N1  UNL     1       6.471   3.372  -0.277  1.00  0.00    -0.331 N 
ATOM     11  H12 UNL     1       6.222   2.481  -0.709  1.00  0.00     0.177 HD
ATOM     12  H11 UNL     1       5.760   3.962   0.154  1.00  0.00     0.177 HD
ENDBRANCH   8  10
ENDBRANCH   3   8
BRANCH   4  13
HETATM   13  N4  UNL     1       8.553   4.755  -2.877  1.00  0.00    -0.323 N 
ATOM     14  H42 UNL     1       7.575   5.026  -2.983  1.00  0.00     0.178 HD
ATOM     15  H41 UNL     1       9.146   5.477  -3.286  1.00  0.00     0.178 HD
ENDBRANCH   4  13
BRANCH   7  16
HETATM   16  C4  UNL     1      11.044   0.580  -2.098  1.00  0.00     0.286 C 
HETATM   17  N6  UNL     1      12.285   0.330  -1.504  1.00  0.00    -0.056 NA
HETATM   18  O1  UNL     1      10.686  -0.303  -2.965  1.00  0.00    -0.269 OA
ENDBRANCH   7  16
ENDBRANCH   1   2
BRANCH   1  19
HETATM   19  O2  UNL     1       7.936   1.041   0.856  1.00  0.00    -0.347 OA
ATOM     20  H2  UNL     1       7.721   1.437   1.692  1.00  0.00     0.219 HD
ENDBRANCH   1  19
BRANCH   1  21
HETATM   21  C6  UNL     1      10.225   1.584   1.482  1.00  0.00     0.263 C 
BRANCH  21  22
HETATM   22  N8  UNL     1      11.352   0.629   1.441  1.00  0.00    -0.067 N 
ATOM     23  H83 UNL     1      11.255  -0.105   2.142  1.00  0.00     0.275 HD
ATOM     24  H82 UNL     1      11.326   0.044   0.605  1.00  0.00     0.275 HD
ATOM     25  H81 UNL     1      12.237   1.128   1.531  1.00  0.00     0.275 HD
ENDBRANCH  21  22
BRANCH  21  26
HETATM   26  C7  UNL     1       9.693   1.648   2.887  1.00  0.00     0.086 C 
BRANCH  26  27
HETATM   27  C8  UNL     1      10.679   1.784   3.982  1.00  0.00     0.065 C 
BRANCH  27  28
HETATM   28  N9  UNL     1      10.741   0.755   4.932  1.00  0.00    -0.352 N 
ATOM     29  H9  UNL     1       9.871   0.511   5.404  1.00  0.00     0.166 HD
BRANCH  28  30
HETATM   30  C9  UNL     1      11.782   0.092   5.263  1.00  0.00     0.170 A 
HETATM   31  N10 UNL     1      12.408   0.278   6.471  1.00  0.00    -0.222 N 
HETATM   32  O3  UNL     1      13.401  -0.517   6.513  1.00  0.00    -0.154 OA
ATOM     33  H10 UNL     1      12.129   0.933   7.202  1.00  0.00     0.198 HD
HETATM   34  N11 UNL     1      13.517  -1.225   5.465  1.00  0.00    -0.224 N 
HETATM   35  C10 UNL     1      12.512  -0.881   4.628  1.00  0.00     0.184 A 
ATOM     36  H11 UNL     1      14.238  -1.925   5.287  1.00  0.00     0.198 HD
HETATM   37  N12 UNL     1      12.290  -1.447   3.348  1.00  0.00    -0.077 NA
ENDBRANCH  28  30
ENDBRANCH  27  28
ENDBRANCH  26  27
ENDBRANCH  21  26
ENDBRANCH   1  21
TORSDOF 12
ENDMDL
