MODEL 1
REMARK VINA RESULT: -7.127748278      0.000      0.000
REMARK  2 active torsions:
REMARK  status: ('A' for Active; 'I' for Inactive)
REMARK    1  A    between atoms: C1_4  and  C2_5 
REMARK       I    between atoms: N5_17  and  C7_18 
REMARK       I    between atoms: C7_18  and  N6_20 
REMARK    2  A    between atoms: N6_20  and  N7_22 
REMARK       I    between atoms: N7_22  and  C8_23 
REMARK       I    between atoms: C8_23  and  N8_24 
REMARK       I    between atoms: C8_23  and  N9_28 
ROOT
HETATM    1  C2  UNL     1      74.116  76.007  62.203  1.00  0.00     0.133 A 
HETATM    2  N2  UNL     1      75.292  75.853  61.510  1.00  0.00    -0.333 N 
ATOM      3  H2  UNL     1      76.051  75.223  61.769  1.00  0.00     0.168 HD
HETATM    4  C3  UNL     1      75.287  76.654  60.449  1.00  0.00     0.148 A 
HETATM    5  C4  UNL     1      76.175  76.921  59.418  1.00  0.00     0.277 A 
HETATM    6  O1  UNL     1      77.257  76.282  59.443  1.00  0.00    -0.266 OA
HETATM    7  N3  UNL     1      75.848  77.819  58.475  1.00  0.00    -0.318 N 
ATOM      8  H3  UNL     1      76.500  78.017  57.717  1.00  0.00     0.169 HD
HETATM    9  C5  UNL     1      74.662  78.460  58.526  1.00  0.00     0.185 A 
HETATM   10  N4  UNL     1      73.780  78.228  59.505  1.00  0.00    -0.336 N 
ATOM     11  H4  UNL     1      72.888  78.722  59.529  1.00  0.00     0.168 HD
HETATM   12  C6  UNL     1      74.097  77.319  60.471  1.00  0.00     0.151 A 
HETATM   13  N5  UNL     1      73.399  76.906  61.553  1.00  0.00    -0.230 N 
HETATM   14  C7  UNL     1      72.094  77.351  61.937  1.00  0.00     0.345 C 
HETATM   15  O2  UNL     1      71.548  76.867  62.966  1.00  0.00    -0.245 OA
HETATM   16  N6  UNL     1      71.324  78.318  61.245  1.00  0.00    -0.251 N 
ATOM     17  H6  UNL     1      71.668  78.775  60.401  1.00  0.00     0.187 HD
ENDROOT
BRANCH   1  18
HETATM   18  C1  UNL     1      73.833  75.252  63.422  1.00  0.00     0.130 C 
HETATM   19  N1  UNL     1      74.728  75.140  64.357  1.00  0.00    -0.405 N 
ATOM     20  H12 UNL     1      75.633  75.590  64.223  1.00  0.00     0.155 HD
ATOM     21  H11 UNL     1      74.531  74.612  65.207  1.00  0.00     0.155 HD
ENDBRANCH   1  18
BRANCH  16  22
HETATM   22  N7  UNL     1      70.053  78.617  61.788  1.00  0.00    -0.077 NA
HETATM   23  C8  UNL     1      70.015  79.910  62.429  1.00  0.00     0.490 C 
HETATM   24  N8  UNL     1      70.371  80.889  61.390  1.00  0.00    -0.035 N 
HETATM   25  N9  UNL     1      68.623  80.192  62.801  1.00  0.00    -0.035 N 
ATOM     26  H83 UNL     1      71.259  80.689  60.931  1.00  0.00     0.278 HD
ATOM     27  H82 UNL     1      69.784  80.830  60.558  1.00  0.00     0.278 HD
ATOM     28  H81 UNL     1      70.344  81.803  61.844  1.00  0.00     0.278 HD
ATOM     29  H93 UNL     1      67.982  80.124  62.010  1.00  0.00     0.278 HD
ATOM     30  H92 UNL     1      68.211  79.456  63.374  1.00  0.00     0.278 HD
ATOM     31  H91 UNL     1      68.596  81.105  63.254  1.00  0.00     0.278 HD
ENDBRANCH  16  22
TORSDOF 2
ENDMDL
MODEL 2
REMARK VINA RESULT: -6.298167154      1.597      3.497
REMARK  2 active torsions:
REMARK  status: ('A' for Active; 'I' for Inactive)
REMARK    1  A    between atoms: C1_4  and  C2_5 
REMARK       I    between atoms: N5_17  and  C7_18 
REMARK       I    between atoms: C7_18  and  N6_20 
REMARK    2  A    between atoms: N6_20  and  N7_22 
REMARK       I    between atoms: N7_22  and  C8_23 
REMARK       I    between atoms: C8_23  and  N8_24 
REMARK       I    between atoms: C8_23  and  N9_28 
ROOT
HETATM    1  C2  UNL     1      74.147  77.928  60.359  1.00  0.00     0.133 A 
HETATM    2  N2  UNL     1      75.148  77.047  60.687  1.00  0.00    -0.333 N 
ATOM      3  H2  UNL     1      76.050  76.977  60.216  1.00  0.00     0.168 HD
HETATM    4  C3  UNL     1      74.758  76.299  61.715  1.00  0.00     0.148 A 
HETATM    5  C4  UNL     1      75.329  75.275  62.455  1.00  0.00     0.277 A 
HETATM    6  O1  UNL     1      76.489  74.931  62.116  1.00  0.00    -0.266 OA
HETATM    7  N3  UNL     1      74.639  74.717  63.462  1.00  0.00    -0.318 N 
ATOM      8  H3  UNL     1      75.057  73.963  64.006  1.00  0.00     0.169 HD
HETATM    9  C5  UNL     1      73.395  75.150  63.758  1.00  0.00     0.185 A 
HETATM   10  N4  UNL     1      72.812  76.136  63.067  1.00  0.00    -0.336 N 
ATOM     11  H4  UNL     1      71.871  76.451  63.304  1.00  0.00     0.168 HD
HETATM   12  C6  UNL     1      73.501  76.713  62.040  1.00  0.00     0.151 A 
HETATM   13  N5  UNL     1      73.149  77.709  61.197  1.00  0.00    -0.230 N 
HETATM   14  C7  UNL     1      71.910  78.427  61.205  1.00  0.00     0.345 C 
HETATM   15  O2  UNL     1      71.719  79.351  60.368  1.00  0.00    -0.245 OA
HETATM   16  N6  UNL     1      70.836  78.192  62.098  1.00  0.00    -0.251 N 
ATOM     17  H6  UNL     1      70.882  77.468  62.815  1.00  0.00     0.187 HD
ENDROOT
BRANCH   1  18
HETATM   18  C1  UNL     1      74.288  78.884  59.262  1.00  0.00     0.130 C 
HETATM   19  N1  UNL     1      74.661  78.490  58.082  1.00  0.00    -0.405 N 
ATOM     20  H12 UNL     1      74.854  77.499  57.936  1.00  0.00     0.155 HD
ATOM     21  H11 UNL     1      74.760  79.157  57.317  1.00  0.00     0.155 HD
ENDBRANCH   1  18
BRANCH  16  22
HETATM   22  N7  UNL     1      69.696  79.014  61.942  1.00  0.00    -0.077 NA
HETATM   23  C8  UNL     1      69.559  79.978  63.007  1.00  0.00     0.490 C 
HETATM   24  N8  UNL     1      70.785  80.792  62.979  1.00  0.00    -0.035 N 
HETATM   25  N9  UNL     1      68.456  80.883  62.662  1.00  0.00    -0.035 N 
ATOM     26  H83 UNL     1      71.640  80.240  63.038  1.00  0.00     0.278 HD
ATOM     27  H82 UNL     1      70.971  81.214  62.070  1.00  0.00     0.278 HD
ATOM     28  H81 UNL     1      70.687  81.473  63.733  1.00  0.00     0.278 HD
ATOM     29  H93 UNL     1      68.575  81.319  61.748  1.00  0.00     0.278 HD
ATOM     30  H92 UNL     1      67.587  80.387  62.465  1.00  0.00     0.278 HD
ATOM     31  H91 UNL     1      68.359  81.564  63.416  1.00  0.00     0.278 HD
ENDBRANCH  16  22
TORSDOF 2
ENDMDL
MODEL 3
REMARK VINA RESULT: -5.460227503      1.592      3.310
REMARK  2 active torsions:
REMARK  status: ('A' for Active; 'I' for Inactive)
REMARK    1  A    between atoms: C1_4  and  C2_5 
REMARK       I    between atoms: N5_17  and  C7_18 
REMARK       I    between atoms: C7_18  and  N6_20 
REMARK    2  A    between atoms: N6_20  and  N7_22 
REMARK       I    between atoms: N7_22  and  C8_23 
REMARK       I    between atoms: C8_23  and  N8_24 
REMARK       I    between atoms: C8_23  and  N9_28 
ROOT
HETATM    1  C2  UNL     1      74.144  77.077  59.411  1.00  0.00     0.133 A 
HETATM    2  N2  UNL     1      75.353  76.475  59.666  1.00  0.00    -0.333 N 
ATOM      3  H2  UNL     1      76.082  76.301  58.975  1.00  0.00     0.168 HD
HETATM    4  C3  UNL     1      75.423  76.157  60.955  1.00  0.00     0.148 A 
HETATM    5  C4  UNL     1      76.370  75.549  61.764  1.00  0.00     0.277 A 
HETATM    6  O1  UNL     1      77.434  75.195  61.197  1.00  0.00    -0.266 OA
HETATM    7  N3  UNL     1      76.114  75.372  63.070  1.00  0.00    -0.318 N 
ATOM      8  H3  UNL     1      76.809  74.925  63.667  1.00  0.00     0.169 HD
HETATM    9  C5  UNL     1      74.942  75.784  63.597  1.00  0.00     0.185 A 
HETATM   10  N4  UNL     1      74.005  76.374  62.848  1.00  0.00    -0.336 N 
ATOM     11  H4  UNL     1      73.124  76.679  63.262  1.00  0.00     0.168 HD
HETATM   12  C6  UNL     1      74.249  76.561  61.518  1.00  0.00     0.151 A 
HETATM   13  N5  UNL     1      73.484  77.120  60.554  1.00  0.00    -0.230 N 
HETATM   14  C7  UNL     1      72.179  77.682  60.729  1.00  0.00     0.345 C 
HETATM   15  O2  UNL     1      71.581  78.190  59.742  1.00  0.00    -0.245 OA
HETATM   16  N6  UNL     1      71.466  77.726  61.952  1.00  0.00    -0.251 N 
ATOM     17  H6  UNL     1      71.854  77.343  62.815  1.00  0.00     0.187 HD
ENDROOT
BRANCH   1  18
HETATM   18  C1  UNL     1      73.780  77.539  58.073  1.00  0.00     0.130 C 
HETATM   19  N1  UNL     1      72.996  76.833  57.315  1.00  0.00    -0.405 N 
ATOM     20  H12 UNL     1      72.640  75.948  57.674  1.00  0.00     0.155 HD
ATOM     21  H11 UNL     1      72.742  77.157  56.382  1.00  0.00     0.155 HD
ENDBRANCH   1  18
BRANCH  16  22
HETATM   22  N7  UNL     1      70.187  78.328  61.915  1.00  0.00    -0.077 NA
HETATM   23  C8  UNL     1      70.135  79.564  62.659  1.00  0.00     0.490 C 
HETATM   24  N8  UNL     1      71.137  80.450  62.047  1.00  0.00    -0.035 N 
HETATM   25  N9  UNL     1      68.829  80.186  62.415  1.00  0.00    -0.035 N 
ATOM     26  H83 UNL     1      72.070  80.040  62.003  1.00  0.00     0.278 HD
ATOM     27  H82 UNL     1      71.009  80.575  61.043  1.00  0.00     0.278 HD
ATOM     28  H81 UNL     1      71.099  81.323  62.574  1.00  0.00     0.278 HD
ATOM     29  H93 UNL     1      68.633  80.316  61.422  1.00  0.00     0.278 HD
ATOM     30  H92 UNL     1      68.049  79.565  62.628  1.00  0.00     0.278 HD
ATOM     31  H91 UNL     1      68.792  81.059  62.941  1.00  0.00     0.278 HD
ENDBRANCH  16  22
TORSDOF 2
ENDMDL
MODEL 4
REMARK VINA RESULT: -4.984361022      2.140      5.378
REMARK  2 active torsions:
REMARK  status: ('A' for Active; 'I' for Inactive)
REMARK    1  A    between atoms: C1_4  and  C2_5 
REMARK       I    between atoms: N5_17  and  C7_18 
REMARK       I    between atoms: C7_18  and  N6_20 
REMARK    2  A    between atoms: N6_20  and  N7_22 
REMARK       I    between atoms: N7_22  and  C8_23 
REMARK       I    between atoms: C8_23  and  N8_24 
REMARK       I    between atoms: C8_23  and  N9_28 
ROOT
HETATM    1  C2  UNL     1      72.893  77.382  61.418  1.00  0.00     0.133 A 
HETATM    2  N2  UNL     1      72.799  76.413  62.389  1.00  0.00    -0.333 N 
ATOM      3  H2  UNL     1      72.138  76.419  63.165  1.00  0.00     0.168 HD
HETATM    4  C3  UNL     1      73.704  75.467  62.156  1.00  0.00     0.148 A 
HETATM    5  C4  UNL     1      74.066  74.283  62.779  1.00  0.00     0.277 A 
HETATM    6  O1  UNL     1      73.418  73.984  63.814  1.00  0.00    -0.266 OA
HETATM    7  N3  UNL     1      75.058  73.538  62.267  1.00  0.00    -0.318 N 
ATOM      8  H3  UNL     1      75.327  72.667  62.724  1.00  0.00     0.169 HD
HETATM    9  C5  UNL     1      75.703  73.936  61.150  1.00  0.00     0.185 A 
HETATM   10  N4  UNL     1      75.381  75.072  60.521  1.00  0.00    -0.336 N 
ATOM     11  H4  UNL     1      75.878  75.359  59.678  1.00  0.00     0.168 HD
HETATM   12  C6  UNL     1      74.375  75.841  61.030  1.00  0.00     0.151 A 
HETATM   13  N5  UNL     1      73.861  77.014  60.597  1.00  0.00    -0.230 N 
HETATM   14  C7  UNL     1      74.276  77.743  59.438  1.00  0.00     0.345 C 
HETATM   15  O2  UNL     1      73.696  78.822  59.139  1.00  0.00    -0.245 OA
HETATM   16  N6  UNL     1      75.317  77.355  58.558  1.00  0.00    -0.251 N 
ATOM     17  H6  UNL     1      75.854  76.501  58.705  1.00  0.00     0.187 HD
ENDROOT
BRANCH   1  18
HETATM   18  C1  UNL     1      72.020  78.554  61.411  1.00  0.00     0.130 C 
HETATM   19  N1  UNL     1      70.769  78.452  61.745  1.00  0.00    -0.405 N 
ATOM     20  H12 UNL     1      70.408  77.537  62.013  1.00  0.00     0.155 HD
ATOM     21  H11 UNL     1      70.160  79.270  61.740  1.00  0.00     0.155 HD
ENDBRANCH   1  18
BRANCH  16  22
HETATM   22  N7  UNL     1      75.571  78.216  57.465  1.00  0.00    -0.077 NA
HETATM   23  C8  UNL     1      75.282  77.596  56.194  1.00  0.00     0.490 C 
HETATM   24  N8  UNL     1      73.859  77.228  56.235  1.00  0.00    -0.035 N 
HETATM   25  N9  UNL     1      75.414  78.619  55.150  1.00  0.00    -0.035 N 
ATOM     26  H83 UNL     1      73.612  76.647  57.036  1.00  0.00     0.278 HD
ATOM     27  H82 UNL     1      73.243  78.011  56.455  1.00  0.00     0.278 HD
ATOM     28  H81 UNL     1      73.655  76.790  55.336  1.00  0.00     0.278 HD
ATOM     29  H93 UNL     1      74.836  79.441  55.328  1.00  0.00     0.278 HD
ATOM     30  H92 UNL     1      76.322  79.084  55.165  1.00  0.00     0.278 HD
ATOM     31  H91 UNL     1      75.210  78.181  54.251  1.00  0.00     0.278 HD
ENDBRANCH  16  22
TORSDOF 2
ENDMDL
MODEL 5
REMARK VINA RESULT: -4.926911792      2.137      2.841
REMARK  2 active torsions:
REMARK  status: ('A' for Active; 'I' for Inactive)
REMARK    1  A    between atoms: C1_4  and  C2_5 
REMARK       I    between atoms: N5_17  and  C7_18 
REMARK       I    between atoms: C7_18  and  N6_20 
REMARK    2  A    between atoms: N6_20  and  N7_22 
REMARK       I    between atoms: N7_22  and  C8_23 
REMARK       I    between atoms: C8_23  and  N8_24 
REMARK       I    between atoms: C8_23  and  N9_28 
ROOT
HETATM    1  C2  UNL     1      74.064  76.710  60.067  1.00  0.00     0.133 A 
HETATM    2  N2  UNL     1      75.410  76.521  60.266  1.00  0.00    -0.333 N 
ATOM      3  H2  UNL     1      75.961  75.753  59.884  1.00  0.00     0.168 HD
HETATM    4  C3  UNL     1      75.883  77.498  61.035  1.00  0.00     0.148 A 
HETATM    5  C4  UNL     1      77.127  77.822  61.554  1.00  0.00     0.277 A 
HETATM    6  O1  UNL     1      78.067  77.042  61.259  1.00  0.00    -0.266 OA
HETATM    7  N3  UNL     1      77.263  78.915  62.321  1.00  0.00    -0.318 N 
ATOM      8  H3  UNL     1      78.177  79.155  62.704  1.00  0.00     0.169 HD
HETATM    9  C5  UNL     1      76.197  79.699  62.587  1.00  0.00     0.185 A 
HETATM   10  N4  UNL     1      74.982  79.418  62.104  1.00  0.00    -0.336 N 
ATOM     11  H4  UNL     1      74.186  80.020  62.315  1.00  0.00     0.168 HD
HETATM   12  C6  UNL     1      74.827  78.310  61.323  1.00  0.00     0.151 A 
HETATM   13  N5  UNL     1      73.726  77.807  60.719  1.00  0.00    -0.230 N 
HETATM   14  C7  UNL     1      72.409  78.366  60.761  1.00  0.00     0.345 C 
HETATM   15  O2  UNL     1      71.471  77.800  60.135  1.00  0.00    -0.245 OA
HETATM   16  N6  UNL     1      72.041  79.539  61.464  1.00  0.00    -0.251 N 
ATOM     17  H6  UNL     1      72.719  80.076  62.006  1.00  0.00     0.187 HD
ENDROOT
BRANCH   1  18
HETATM   18  C1  UNL     1      73.268  75.790  59.256  1.00  0.00     0.130 C 
HETATM   19  N1  UNL     1      72.908  76.108  58.050  1.00  0.00    -0.405 N 
ATOM     20  H12 UNL     1      73.193  77.015  57.679  1.00  0.00     0.155 HD
ATOM     21  H11 UNL     1      72.353  75.466  57.484  1.00  0.00     0.155 HD
ENDBRANCH   1  18
BRANCH  16  22
HETATM   22  N7  UNL     1      70.684  79.927  61.376  1.00  0.00    -0.077 NA
HETATM   23  C8  UNL     1      70.119  80.259  62.662  1.00  0.00     0.490 C 
HETATM   24  N8  UNL     1      70.933  81.364  63.192  1.00  0.00    -0.035 N 
HETATM   25  N9  UNL     1      68.776  80.808  62.440  1.00  0.00    -0.035 N 
ATOM     26  H83 UNL     1      71.930  81.152  63.228  1.00  0.00     0.278 HD
ATOM     27  H82 UNL     1      70.999  82.160  62.559  1.00  0.00     0.278 HD
ATOM     28  H81 UNL     1      70.533  81.598  64.101  1.00  0.00     0.278 HD
ATOM     29  H93 UNL     1      68.773  81.596  61.793  1.00  0.00     0.278 HD
ATOM     30  H92 UNL     1      68.179  80.183  61.897  1.00  0.00     0.278 HD
ATOM     31  H91 UNL     1      68.376  81.042  63.349  1.00  0.00     0.278 HD
ENDBRANCH  16  22
TORSDOF 2
ENDMDL
