MODEL 1
REMARK VINA RESULT: -6.265455850      0.000      0.000
REMARK  8 active torsions:
REMARK  status: ('A' for Active; 'I' for Inactive)
REMARK    1  A    between atoms: O1_2  and  C2_3 
REMARK    2  A    between atoms: C4_12  and  N4_13 
REMARK    3  A    between atoms: C5_16  and  C6_17 
REMARK    4  A    between atoms: C6_17  and  N5_18 
REMARK    5  A    between atoms: C6_17  and  C7_22 
REMARK    6  A    between atoms: C7_22  and  O3_24 
REMARK    7  A    between atoms: O3_24  and  C8_25 
REMARK       I    between atoms: C8_25  and  N6_27 
REMARK    8  A    between atoms: N6_27  and  N7_28 
ROOT
HETATM    1  C2  UNL     1      74.630  75.452  60.998  1.00  0.00     0.169 A 
HETATM    2  N1  UNL     1      75.752  74.800  61.406  1.00  0.00    -0.170 N 
ATOM      3  H1  UNL     1      75.774  73.781  61.357  1.00  0.00     0.186 HD
HETATM    4  C3  UNL     1      76.808  75.437  61.859  1.00  0.00     0.679 A 
HETATM    5  N2  UNL     1      77.915  74.827  62.280  1.00  0.00    -0.234 N 
ATOM      6  H21 UNL     1      78.734  75.321  62.632  1.00  0.00     0.174 HD
ATOM      7  H22 UNL     1      77.969  73.809  62.243  1.00  0.00     0.174 HD
HETATM    8  N3  UNL     1      76.736  76.816  61.909  1.00  0.00    -0.177 N 
ATOM      9  H3  UNL     1      77.539  77.340  62.255  1.00  0.00     0.186 HD
HETATM   10  C4  UNL     1      75.630  77.494  61.512  1.00  0.00     0.128 A 
HETATM   11  C5  UNL     1      74.537  76.859  61.042  1.00  0.00     0.077 A 
ENDROOT
BRANCH  11  12
HETATM   12  C6  UNL     1      73.287  77.461  60.651  1.00  0.00     0.323 C 
BRANCH  12  13
HETATM   13  N5  UNL     1      72.595  76.748  59.552  1.00  0.00    -0.061 N 
ATOM     14  H53 UNL     1      73.130  75.931  59.261  1.00  0.00     0.275 HD
ATOM     15  H52 UNL     1      71.753  76.288  59.897  1.00  0.00     0.275 HD
ATOM     16  H51 UNL     1      72.377  77.338  58.749  1.00  0.00     0.275 HD
ENDBRANCH  12  13
BRANCH  12  17
HETATM   17  C7  UNL     1      72.272  77.757  61.666  1.00  0.00     0.304 C 
HETATM   18  O2  UNL     1      71.677  76.880  62.389  1.00  0.00    -0.262 OA
BRANCH  17  19
HETATM   19  O3  UNL     1      71.965  79.063  61.859  1.00  0.00    -0.212 OA
BRANCH  19  20
HETATM   20  C8  UNL     1      70.646  79.609  61.815  1.00  0.00     0.465 C 
HETATM   21  O4  UNL     1      70.243  79.781  60.647  1.00  0.00    -0.219 OA
HETATM   22  N6  UNL     1      70.051  79.829  63.003  1.00  0.00    -0.266 NA
BRANCH  22  23
HETATM   23  N7  UNL     1      69.461  80.046  64.169  1.00  0.00    -0.275 N 
ATOM     24  H72 UNL     1      69.752  79.848  63.211  1.00  0.00     0.191 HD
ATOM     25  H71 UNL     1      69.010  80.214  65.068  1.00  0.00     0.191 HD
ENDBRANCH  22  23
ENDBRANCH  19  20
ENDBRANCH  17  19
ENDBRANCH  12  17
ENDBRANCH  11  12
BRANCH   1  26
HETATM   26  O1  UNL     1      73.559  74.707  60.548  1.00  0.00    -0.340 OA
HETATM   27  C1  UNL     1      73.741  73.496  59.897  1.00  0.00     0.211 C 
ENDBRANCH   1  26
BRANCH  10  28
HETATM   28  N4  UNL     1      75.621  78.783  61.577  1.00  0.00    -0.384 N 
ATOM     29  H42 UNL     1      75.611  79.229  62.494  1.00  0.00     0.157 HD
ATOM     30  H41 UNL     1      75.617  79.327  60.715  1.00  0.00     0.157 HD
ENDBRANCH  10  28
TORSDOF 8
ENDMDL
MODEL 2
REMARK VINA RESULT: -6.240007163      1.602      1.673
REMARK  8 active torsions:
REMARK  status: ('A' for Active; 'I' for Inactive)
REMARK    1  A    between atoms: O1_2  and  C2_3 
REMARK    2  A    between atoms: C4_12  and  N4_13 
REMARK    3  A    between atoms: C5_16  and  C6_17 
REMARK    4  A    between atoms: C6_17  and  N5_18 
REMARK    5  A    between atoms: C6_17  and  C7_22 
REMARK    6  A    between atoms: C7_22  and  O3_24 
REMARK    7  A    between atoms: O3_24  and  C8_25 
REMARK       I    between atoms: C8_25  and  N6_27 
REMARK    8  A    between atoms: N6_27  and  N7_28 
ROOT
HETATM    1  C2  UNL     1      74.489  74.908  62.110  1.00  0.00     0.169 A 
HETATM    2  N1  UNL     1      75.785  74.514  62.228  1.00  0.00    -0.170 N 
ATOM      3  H1  UNL     1      75.984  73.538  62.446  1.00  0.00     0.186 HD
HETATM    4  C3  UNL     1      76.789  75.347  62.069  1.00  0.00     0.679 A 
HETATM    5  N2  UNL     1      78.067  74.996  62.193  1.00  0.00    -0.234 N 
ATOM      6  H21 UNL     1      78.846  75.643  62.070  1.00  0.00     0.174 HD
ATOM      7  H22 UNL     1      78.300  74.027  62.411  1.00  0.00     0.174 HD
HETATM    8  N3  UNL     1      76.474  76.660  61.774  1.00  0.00    -0.177 N 
ATOM      9  H3  UNL     1      77.230  77.332  61.644  1.00  0.00     0.186 HD
HETATM   10  C4  UNL     1      75.191  77.084  61.653  1.00  0.00     0.128 A 
HETATM   11  C5  UNL     1      74.147  76.244  61.810  1.00  0.00     0.077 A 
ENDROOT
BRANCH  11  12
HETATM   12  C6  UNL     1      72.748  76.585  61.767  1.00  0.00     0.323 C 
BRANCH  12  13
HETATM   13  N5  UNL     1      72.079  76.549  63.089  1.00  0.00    -0.061 N 
ATOM     14  H53 UNL     1      72.763  76.417  63.833  1.00  0.00     0.275 HD
ATOM     15  H52 UNL     1      71.730  77.474  63.339  1.00  0.00     0.275 HD
ATOM     16  H51 UNL     1      71.336  75.854  63.158  1.00  0.00     0.275 HD
ENDBRANCH  12  13
BRANCH  12  17
HETATM   17  C7  UNL     1      72.321  77.826  61.113  1.00  0.00     0.304 C 
HETATM   18  O2  UNL     1      72.190  77.982  59.846  1.00  0.00    -0.262 OA
BRANCH  17  19
HETATM   19  O3  UNL     1      72.023  78.872  61.922  1.00  0.00    -0.212 OA
BRANCH  19  20
HETATM   20  C8  UNL     1      70.717  79.417  62.108  1.00  0.00     0.465 C 
HETATM   21  O4  UNL     1      69.819  78.635  61.741  1.00  0.00    -0.219 OA
HETATM   22  N6  UNL     1      70.656  80.648  62.653  1.00  0.00    -0.266 NA
BRANCH  22  23
HETATM   23  N7  UNL     1      70.592  81.857  63.190  1.00  0.00    -0.275 N 
ATOM     24  H72 UNL     1      70.533  80.878  62.908  1.00  0.00     0.191 HD
ATOM     25  H71 UNL     1      70.544  82.789  63.602  1.00  0.00     0.191 HD
ENDBRANCH  22  23
ENDBRANCH  19  20
ENDBRANCH  17  19
ENDBRANCH  12  17
ENDBRANCH  11  12
BRANCH   1  26
HETATM   26  O1  UNL     1      73.492  73.973  62.305  1.00  0.00    -0.340 OA
HETATM   27  C1  UNL     1      73.577  73.023  63.312  1.00  0.00     0.211 C 
ENDBRANCH   1  26
BRANCH  10  28
HETATM   28  N4  UNL     1      74.957  78.321  61.372  1.00  0.00    -0.384 N 
ATOM     29  H42 UNL     1      74.035  78.707  61.579  1.00  0.00     0.157 HD
ATOM     30  H41 UNL     1      75.692  78.886  60.947  1.00  0.00     0.157 HD
ENDBRANCH  10  28
TORSDOF 8
ENDMDL
MODEL 3
REMARK VINA RESULT: -6.003096652      1.141      2.468
REMARK  8 active torsions:
REMARK  status: ('A' for Active; 'I' for Inactive)
REMARK    1  A    between atoms: O1_2  and  C2_3 
REMARK    2  A    between atoms: C4_12  and  N4_13 
REMARK    3  A    between atoms: C5_16  and  C6_17 
REMARK    4  A    between atoms: C6_17  and  N5_18 
REMARK    5  A    between atoms: C6_17  and  C7_22 
REMARK    6  A    between atoms: C7_22  and  O3_24 
REMARK    7  A    between atoms: O3_24  and  C8_25 
REMARK       I    between atoms: C8_25  and  N6_27 
REMARK    8  A    between atoms: N6_27  and  N7_28 
ROOT
HETATM    1  C2  UNL     1      75.704  77.400  61.571  1.00  0.00     0.169 A 
HETATM    2  N1  UNL     1      76.852  76.777  61.948  1.00  0.00    -0.170 N 
ATOM      3  H1  UNL     1      77.662  77.344  62.197  1.00  0.00     0.186 HD
HETATM    4  C3  UNL     1      76.954  75.467  62.004  1.00  0.00     0.679 A 
HETATM    5  N2  UNL     1      78.067  74.827  62.354  1.00  0.00    -0.234 N 
ATOM      6  H21 UNL     1      78.146  73.811  62.397  1.00  0.00     0.174 HD
ATOM      7  H22 UNL     1      78.895  75.366  62.609  1.00  0.00     0.174 HD
HETATM    8  N3  UNL     1      75.833  74.736  61.658  1.00  0.00    -0.177 N 
ATOM      9  H3  UNL     1      75.879  73.718  61.692  1.00  0.00     0.186 HD
HETATM   10  C4  UNL     1      74.675  75.329  61.276  1.00  0.00     0.128 A 
HETATM   11  C5  UNL     1      74.550  76.671  61.214  1.00  0.00     0.077 A 
ENDROOT
BRANCH  11  12
HETATM   12  C6  UNL     1      73.399  77.413  60.766  1.00  0.00     0.323 C 
BRANCH  12  13
HETATM   13  N5  UNL     1      72.738  76.836  59.573  1.00  0.00    -0.061 N 
ATOM     14  H53 UNL     1      73.221  77.123  58.722  1.00  0.00     0.275 HD
ATOM     15  H52 UNL     1      72.896  75.829  59.527  1.00  0.00     0.275 HD
ATOM     16  H51 UNL     1      71.742  77.046  59.508  1.00  0.00     0.275 HD
ENDBRANCH  12  13
BRANCH  12  17
HETATM   17  C7  UNL     1      72.334  77.748  61.716  1.00  0.00     0.304 C 
HETATM   18  O2  UNL     1      71.708  76.901  62.448  1.00  0.00    -0.262 OA
BRANCH  17  19
HETATM   19  O3  UNL     1      72.012  79.059  61.835  1.00  0.00    -0.212 OA
BRANCH  19  20
HETATM   20  C8  UNL     1      70.684  79.582  61.808  1.00  0.00     0.465 C 
HETATM   21  O4  UNL     1      70.250  79.717  60.646  1.00  0.00    -0.219 OA
HETATM   22  N6  UNL     1      70.112  79.821  63.004  1.00  0.00    -0.266 NA
BRANCH  22  23
HETATM   23  N7  UNL     1      69.545  80.058  64.177  1.00  0.00    -0.275 N 
ATOM     24  H72 UNL     1      69.821  79.818  63.225  1.00  0.00     0.191 HD
ATOM     25  H71 UNL     1      69.112  80.241  65.082  1.00  0.00     0.191 HD
ENDBRANCH  22  23
ENDBRANCH  19  20
ENDBRANCH  17  19
ENDBRANCH  12  17
ENDBRANCH  11  12
BRANCH   1  26
HETATM   26  O1  UNL     1      75.684  78.780  61.526  1.00  0.00    -0.340 OA
HETATM   27  C1  UNL     1      76.474  79.544  62.373  1.00  0.00     0.211 C 
ENDBRANCH   1  26
BRANCH  10  28
HETATM   28  N4  UNL     1      73.660  74.595  60.968  1.00  0.00    -0.384 N 
ATOM     29  H42 UNL     1      73.114  74.171  61.719  1.00  0.00     0.157 HD
ATOM     30  H41 UNL     1      73.427  74.449  59.986  1.00  0.00     0.157 HD
ENDBRANCH  10  28
TORSDOF 8
ENDMDL
MODEL 4
REMARK VINA RESULT: -5.991571799      1.402      1.604
REMARK  8 active torsions:
REMARK  status: ('A' for Active; 'I' for Inactive)
REMARK    1  A    between atoms: O1_2  and  C2_3 
REMARK    2  A    between atoms: C4_12  and  N4_13 
REMARK    3  A    between atoms: C5_16  and  C6_17 
REMARK    4  A    between atoms: C6_17  and  N5_18 
REMARK    5  A    between atoms: C6_17  and  C7_22 
REMARK    6  A    between atoms: C7_22  and  O3_24 
REMARK    7  A    between atoms: O3_24  and  C8_25 
REMARK       I    between atoms: C8_25  and  N6_27 
REMARK    8  A    between atoms: N6_27  and  N7_28 
ROOT
HETATM    1  C2  UNL     1      73.922  75.474  60.523  1.00  0.00     0.169 A 
HETATM    2  N1  UNL     1      74.503  74.247  60.599  1.00  0.00    -0.170 N 
ATOM      3  H1  UNL     1      74.122  73.487  60.036  1.00  0.00     0.186 HD
HETATM    4  C3  UNL     1      75.537  74.007  61.374  1.00  0.00     0.679 A 
HETATM    5  N2  UNL     1      76.118  72.814  61.482  1.00  0.00    -0.234 N 
ATOM      6  H21 UNL     1      76.921  72.628  62.083  1.00  0.00     0.174 HD
ATOM      7  H22 UNL     1      75.761  72.033  60.931  1.00  0.00     0.174 HD
HETATM    8  N3  UNL     1      76.020  75.065  62.120  1.00  0.00    -0.177 N 
ATOM      9  H3  UNL     1      76.823  74.912  62.731  1.00  0.00     0.186 HD
HETATM   10  C4  UNL     1      75.461  76.299  62.067  1.00  0.00     0.128 A 
HETATM   11  C5  UNL     1      74.400  76.566  61.278  1.00  0.00     0.077 A 
ENDROOT
BRANCH  11  12
HETATM   12  C6  UNL     1      73.685  77.813  61.183  1.00  0.00     0.323 C 
BRANCH  12  13
HETATM   13  N5  UNL     1      73.738  78.436  59.840  1.00  0.00    -0.061 N 
ATOM     14  H53 UNL     1      73.024  79.158  59.751  1.00  0.00     0.275 HD
ATOM     15  H52 UNL     1      74.576  79.010  59.744  1.00  0.00     0.275 HD
ATOM     16  H51 UNL     1      73.670  77.768  59.071  1.00  0.00     0.275 HD
ENDBRANCH  12  13
BRANCH  12  17
HETATM   17  C7  UNL     1      72.289  77.888  61.627  1.00  0.00     0.304 C 
HETATM   18  O2  UNL     1      71.716  77.037  62.397  1.00  0.00    -0.262 OA
BRANCH  17  19
HETATM   19  O3  UNL     1      71.569  78.954  61.200  1.00  0.00    -0.212 OA
BRANCH  19  20
HETATM   20  C8  UNL     1      70.453  79.516  61.889  1.00  0.00     0.465 C 
HETATM   21  O4  UNL     1      69.435  78.800  61.810  1.00  0.00    -0.219 OA
HETATM   22  N6  UNL     1      70.668  80.688  62.518  1.00  0.00    -0.266 NA
BRANCH  22  23
HETATM   23  N7  UNL     1      70.875  81.840  63.137  1.00  0.00    -0.275 N 
ATOM     24  H72 UNL     1      70.634  81.051  62.538  1.00  0.00     0.191 HD
ATOM     25  H71 UNL     1      71.037  82.726  63.617  1.00  0.00     0.191 HD
ENDBRANCH  22  23
ENDBRANCH  19  20
ENDBRANCH  17  19
ENDBRANCH  12  17
ENDBRANCH  11  12
BRANCH   1  26
HETATM   26  O1  UNL     1      72.830  75.639  59.695  1.00  0.00    -0.340 OA
HETATM   27  C1  UNL     1      72.858  75.234  58.369  1.00  0.00     0.211 C 
ENDBRANCH   1  26
BRANCH  10  28
HETATM   28  N4  UNL     1      75.958  77.250  62.785  1.00  0.00    -0.384 N 
ATOM     29  H42 UNL     1      76.875  77.117  63.210  1.00  0.00     0.157 HD
ATOM     30  H41 UNL     1      75.424  78.109  62.916  1.00  0.00     0.157 HD
ENDBRANCH  10  28
TORSDOF 8
ENDMDL
MODEL 5
REMARK VINA RESULT: -5.972587388      1.442      1.933
REMARK  8 active torsions:
REMARK  status: ('A' for Active; 'I' for Inactive)
REMARK    1  A    between atoms: O1_2  and  C2_3 
REMARK    2  A    between atoms: C4_12  and  N4_13 
REMARK    3  A    between atoms: C5_16  and  C6_17 
REMARK    4  A    between atoms: C6_17  and  N5_18 
REMARK    5  A    between atoms: C6_17  and  C7_22 
REMARK    6  A    between atoms: C7_22  and  O3_24 
REMARK    7  A    between atoms: O3_24  and  C8_25 
REMARK       I    between atoms: C8_25  and  N6_27 
REMARK    8  A    between atoms: N6_27  and  N7_28 
ROOT
HETATM    1  C2  UNL     1      75.575  76.932  60.559  1.00  0.00     0.169 A 
HETATM    2  N1  UNL     1      76.761  76.369  60.911  1.00  0.00    -0.170 N 
ATOM      3  H1  UNL     1      77.596  76.601  60.372  1.00  0.00     0.186 HD
HETATM    4  C3  UNL     1      76.870  75.535  61.922  1.00  0.00     0.679 A 
HETATM    5  N2  UNL     1      78.014  74.955  62.282  1.00  0.00    -0.234 N 
ATOM      6  H21 UNL     1      78.098  74.309  63.066  1.00  0.00     0.174 HD
ATOM      7  H22 UNL     1      78.866  75.167  61.763  1.00  0.00     0.174 HD
HETATM    8  N3  UNL     1      75.716  75.248  62.624  1.00  0.00    -0.177 N 
ATOM      9  H3  UNL     1      75.766  74.605  63.415  1.00  0.00     0.186 HD
HETATM   10  C4  UNL     1      74.518  75.792  62.296  1.00  0.00     0.128 A 
HETATM   11  C5  UNL     1      74.386  76.650  61.264  1.00  0.00     0.077 A 
ENDROOT
BRANCH  11  12
HETATM   12  C6  UNL     1      73.164  77.243  60.782  1.00  0.00     0.323 C 
BRANCH  12  13
HETATM   13  N5  UNL     1      72.457  76.424  59.770  1.00  0.00    -0.061 N 
ATOM     14  H53 UNL     1      72.974  76.415  58.891  1.00  0.00     0.275 HD
ATOM     15  H52 UNL     1      72.509  75.434  60.009  1.00  0.00     0.275 HD
ATOM     16  H51 UNL     1      71.489  76.704  59.613  1.00  0.00     0.275 HD
ENDBRANCH  12  13
BRANCH  12  17
HETATM   17  C7  UNL     1      72.150  77.700  61.737  1.00  0.00     0.304 C 
HETATM   18  O2  UNL     1      71.445  76.932  62.484  1.00  0.00    -0.262 OA
BRANCH  17  19
HETATM   19  O3  UNL     1      71.970  79.039  61.842  1.00  0.00    -0.212 OA
BRANCH  19  20
HETATM   20  C8  UNL     1      70.703  79.696  61.860  1.00  0.00     0.465 C 
HETATM   21  O4  UNL     1      70.296  79.975  60.715  1.00  0.00    -0.219 OA
HETATM   22  N6  UNL     1      70.147  79.889  63.072  1.00  0.00    -0.266 NA
BRANCH  22  23
HETATM   23  N7  UNL     1      69.598  80.081  64.262  1.00  0.00    -0.275 N 
ATOM     24  H72 UNL     1      69.916  80.065  63.293  1.00  0.00     0.191 HD
ATOM     25  H71 UNL     1      69.176  80.226  65.179  1.00  0.00     0.191 HD
ENDBRANCH  22  23
ENDBRANCH  19  20
ENDBRANCH  17  19
ENDBRANCH  12  17
ENDBRANCH  11  12
BRANCH   1  26
HETATM   26  O1  UNL     1      75.544  77.787  59.476  1.00  0.00    -0.340 OA
HETATM   27  C1  UNL     1      75.924  77.367  58.210  1.00  0.00     0.211 C 
ENDBRANCH   1  26
BRANCH  10  28
HETATM   28  N4  UNL     1      73.473  75.490  62.991  1.00  0.00    -0.384 N 
ATOM     29  H42 UNL     1      72.606  75.267  62.503  1.00  0.00     0.157 HD
ATOM     30  H41 UNL     1      73.534  75.485  64.009  1.00  0.00     0.157 HD
ENDBRANCH  10  28
TORSDOF 8
ENDMDL
