MODEL 1
REMARK VINA RESULT: -6.160153958      0.000      0.000
REMARK  5 active torsions:
REMARK  status: ('A' for Active; 'I' for Inactive)
REMARK    1  A    between atoms: C3_6  and  N3_7 
REMARK    2  A    between atoms: C5_9  and  C6_10 
REMARK    3  A    between atoms: C6_10  and  N4_11 
REMARK    4  A    between atoms: C6_10  and  O1_15 
REMARK    5  A    between atoms: C8_27  and  N9_28 
ROOT
HETATM    1  N1  UNL     1      63.811  89.311  61.177  1.00  0.00    -0.188 NA
HETATM    2  C1  UNL     1      64.516  88.489  60.764  1.00  0.00     0.138 C 
HETATM    3  C2  UNL     1      65.397  87.474  60.277  1.00  0.00     0.217 A 
HETATM    4  N2  UNL     1      66.260  86.800  61.095  1.00  0.00    -0.164 N 
ATOM      5  H2  UNL     1      66.278  87.031  62.087  1.00  0.00     0.186 HD
HETATM    6  C3  UNL     1      67.074  85.858  60.643  1.00  0.00     0.716 A 
HETATM    7  N8  UNL     1      67.026  85.575  59.310  1.00  0.00    -0.021 N 
ATOM      8  H8  UNL     1      67.644  84.853  58.940  1.00  0.00     0.203 HD
HETATM    9  C8  UNL     1      66.197  86.209  58.465  1.00  0.00     0.692 A 
HETATM   10  N10 UNL     1      65.382  87.161  58.959  1.00  0.00    -0.166 N 
ATOM     11  H10 UNL     1      64.745  87.653  58.332  1.00  0.00     0.186 HD
ENDROOT
BRANCH   6  12
HETATM   12  N3  UNL     1      68.012  85.120  61.426  1.00  0.00    -0.107 N 
HETATM   13  C4  UNL     1      68.540  83.914  60.842  1.00  0.00     0.198 C 
HETATM   14  C5  UNL     1      69.875  83.507  61.357  1.00  0.00     0.175 C 
HETATM   15  N5  UNL     1      70.466  84.428  62.301  1.00  0.00    -0.215 N 
HETATM   16  C7  UNL     1      69.692  85.227  63.180  1.00  0.00     0.687 C 
ATOM     17  H5  UNL     1      71.482  84.506  62.337  1.00  0.00     0.178 HD
HETATM   18  N6  UNL     1      70.119  85.620  64.322  1.00  0.00    -0.234 N 
HETATM   19  N7  UNL     1      68.380  85.586  62.694  1.00  0.00    -0.116 N 
ATOM     20  H62 UNL     1      71.046  85.366  64.665  1.00  0.00     0.174 HD
ATOM     21  H61 UNL     1      69.563  86.194  64.953  1.00  0.00     0.174 HD
ATOM     22  H7  UNL     1      67.746  86.157  63.252  1.00  0.00     0.206 HD
BRANCH  14  23
HETATM   23  C6  UNL     1      69.839  82.089  61.898  1.00  0.00     0.341 C 
BRANCH  23  24
HETATM   24  N4  UNL     1      70.754  81.900  63.002  1.00  0.00    -0.051 N 
ATOM     25  H43 UNL     1      70.536  82.530  63.774  1.00  0.00     0.277 HD
ATOM     26  H42 UNL     1      70.591  81.009  63.469  1.00  0.00     0.277 HD
ATOM     27  H41 UNL     1      71.728  81.993  62.715  1.00  0.00     0.277 HD
ENDBRANCH  23  24
BRANCH  23  28
HETATM   28  O1  UNL     1      68.557  81.757  62.315  1.00  0.00    -0.368 OA
ATOM     29  H1  UNL     1      68.577  81.363  63.179  1.00  0.00     0.212 HD
ENDBRANCH  23  28
ENDBRANCH  14  23
ENDBRANCH   6  12
BRANCH   9  30
HETATM   30  N9  UNL     1      66.152  85.940  57.183  1.00  0.00    -0.234 N 
ATOM     31  H92 UNL     1      65.297  85.542  56.794  1.00  0.00     0.174 HD
ATOM     32  H91 UNL     1      66.937  86.114  56.557  1.00  0.00     0.174 HD
ENDBRANCH   9  30
TORSDOF 5
ENDMDL
MODEL 2
REMARK VINA RESULT: -5.761318092      1.360      2.650
REMARK  5 active torsions:
REMARK  status: ('A' for Active; 'I' for Inactive)
REMARK    1  A    between atoms: C3_6  and  N3_7 
REMARK    2  A    between atoms: C5_9  and  C6_10 
REMARK    3  A    between atoms: C6_10  and  N4_11 
REMARK    4  A    between atoms: C6_10  and  O1_15 
REMARK    5  A    between atoms: C8_27  and  N9_28 
ROOT
HETATM    1  N1  UNL     1      65.513  87.390  55.356  1.00  0.00    -0.188 NA
HETATM    2  C1  UNL     1      65.496  87.386  56.514  1.00  0.00     0.138 C 
HETATM    3  C2  UNL     1      65.492  87.362  57.945  1.00  0.00     0.217 A 
HETATM    4  N2  UNL     1      66.370  86.603  58.666  1.00  0.00    -0.164 N 
ATOM      5  H2  UNL     1      67.051  86.032  58.166  1.00  0.00     0.186 HD
HETATM    6  C3  UNL     1      66.368  86.583  59.990  1.00  0.00     0.716 A 
HETATM    7  N8  UNL     1      65.443  87.358  60.626  1.00  0.00    -0.021 N 
ATOM      8  H8  UNL     1      65.422  87.359  61.646  1.00  0.00     0.203 HD
HETATM    9  C8  UNL     1      64.559  88.120  59.963  1.00  0.00     0.692 A 
HETATM   10  N10 UNL     1      64.590  88.117  58.617  1.00  0.00    -0.166 N 
ATOM     11  H10 UNL     1      63.926  88.691  58.096  1.00  0.00     0.186 HD
ENDROOT
BRANCH   6  12
HETATM   12  N3  UNL     1      67.238  85.810  60.815  1.00  0.00    -0.107 N 
HETATM   13  C4  UNL     1      68.031  84.803  60.157  1.00  0.00     0.198 C 
HETATM   14  C5  UNL     1      69.291  84.446  60.864  1.00  0.00     0.175 C 
HETATM   15  N5  UNL     1      69.559  85.222  62.053  1.00  0.00    -0.215 N 
HETATM   16  C7  UNL     1      68.529  85.748  62.874  1.00  0.00     0.687 C 
ATOM     17  H5  UNL     1      70.529  85.397  62.314  1.00  0.00     0.178 HD
HETATM   18  N6  UNL     1      68.676  85.952  64.129  1.00  0.00    -0.234 N 
HETATM   19  N7  UNL     1      67.293  86.055  62.192  1.00  0.00    -0.116 N 
ATOM     20  H62 UNL     1      69.549  85.735  64.611  1.00  0.00     0.174 HD
ATOM     21  H61 UNL     1      67.935  86.330  64.719  1.00  0.00     0.174 HD
ATOM     22  H7  UNL     1      66.491  86.436  62.694  1.00  0.00     0.206 HD
BRANCH  14  23
HETATM   23  C6  UNL     1      69.357  82.953  61.135  1.00  0.00     0.341 C 
BRANCH  23  24
HETATM   24  N4  UNL     1      70.618  82.559  61.724  1.00  0.00    -0.051 N 
ATOM     25  H43 UNL     1      71.402  83.004  61.248  1.00  0.00     0.277 HD
ATOM     26  H42 UNL     1      70.737  82.969  62.650  1.00  0.00     0.277 HD
ATOM     27  H41 UNL     1      70.731  81.546  61.753  1.00  0.00     0.277 HD
ENDBRANCH  23  24
BRANCH  23  28
HETATM   28  O1  UNL     1      68.325  82.564  61.978  1.00  0.00    -0.368 OA
ATOM     29  H1  UNL     1      68.313  81.619  62.079  1.00  0.00     0.212 HD
ENDBRANCH  23  28
ENDBRANCH  14  23
ENDBRANCH   6  12
BRANCH   9  30
HETATM   30  N9  UNL     1      63.668  88.863  60.573  1.00  0.00    -0.234 N 
ATOM     31  H92 UNL     1      63.788  89.061  61.567  1.00  0.00     0.174 HD
ATOM     32  H91 UNL     1      62.857  89.254  60.094  1.00  0.00     0.174 HD
ENDBRANCH   9  30
TORSDOF 5
ENDMDL
MODEL 3
REMARK VINA RESULT: -5.211789085      2.307      4.354
REMARK  5 active torsions:
REMARK  status: ('A' for Active; 'I' for Inactive)
REMARK    1  A    between atoms: C3_6  and  N3_7 
REMARK    2  A    between atoms: C5_9  and  C6_10 
REMARK    3  A    between atoms: C6_10  and  N4_11 
REMARK    4  A    between atoms: C6_10  and  O1_15 
REMARK    5  A    between atoms: C8_27  and  N9_28 
ROOT
HETATM    1  N1  UNL     1      67.001  86.140  58.614  1.00  0.00    -0.188 NA
HETATM    2  C1  UNL     1      67.341  85.723  59.640  1.00  0.00     0.138 C 
HETATM    3  C2  UNL     1      67.763  85.185  60.897  1.00  0.00     0.217 A 
HETATM    4  N2  UNL     1      68.258  83.918  61.020  1.00  0.00    -0.164 N 
ATOM      5  H2  UNL     1      68.328  83.334  60.188  1.00  0.00     0.186 HD
HETATM    6  C3  UNL     1      68.651  83.421  62.184  1.00  0.00     0.716 A 
HETATM    7  N8  UNL     1      68.543  84.228  63.278  1.00  0.00    -0.021 N 
ATOM      8  H8  UNL     1      68.839  83.867  64.185  1.00  0.00     0.203 HD
HETATM    9  C8  UNL     1      68.061  85.479  63.209  1.00  0.00     0.692 A 
HETATM   10  N10 UNL     1      67.672  85.953  62.009  1.00  0.00    -0.166 N 
ATOM     11  H10 UNL     1      67.305  86.902  61.937  1.00  0.00     0.186 HD
ENDROOT
BRANCH   6  12
HETATM   12  N3  UNL     1      69.165  82.107  62.399  1.00  0.00    -0.107 N 
HETATM   13  C4  UNL     1      70.086  81.600  61.415  1.00  0.00     0.198 C 
HETATM   14  C5  UNL     1      71.024  80.561  61.920  1.00  0.00     0.175 C 
HETATM   15  N5  UNL     1      70.917  80.284  63.334  1.00  0.00    -0.215 N 
HETATM   16  C7  UNL     1      69.698  80.402  64.048  1.00  0.00     0.687 C 
ATOM     17  H5  UNL     1      71.753  79.991  63.839  1.00  0.00     0.178 HD
HETATM   18  N6  UNL     1      69.430  79.703  65.087  1.00  0.00    -0.234 N 
HETATM   19  N7  UNL     1      68.772  81.383  63.531  1.00  0.00    -0.116 N 
ATOM     20  H62 UNL     1      70.084  79.010  65.452  1.00  0.00     0.174 HD
ATOM     21  H61 UNL     1      68.554  79.788  65.601  1.00  0.00     0.174 HD
ATOM     22  H7  UNL     1      67.867  81.542  63.973  1.00  0.00     0.206 HD
BRANCH  14  23
HETATM   23  C6  UNL     1      70.930  79.294  61.087  1.00  0.00     0.341 C 
BRANCH  23  24
HETATM   24  N4  UNL     1      72.155  78.526  61.120  1.00  0.00    -0.051 N 
ATOM     25  H43 UNL     1      72.327  78.068  60.225  1.00  0.00     0.277 HD
ATOM     26  H42 UNL     1      72.972  79.135  61.150  1.00  0.00     0.277 HD
ATOM     27  H41 UNL     1      72.168  77.854  61.886  1.00  0.00     0.277 HD
ENDBRANCH  23  24
BRANCH  23  28
HETATM   28  O1  UNL     1      69.885  78.495  61.529  1.00  0.00    -0.368 OA
ATOM     29  H1  UNL     1      70.216  77.680  61.889  1.00  0.00     0.212 HD
ENDBRANCH  23  28
ENDBRANCH  14  23
ENDBRANCH   6  12
BRANCH   9  30
HETATM   30  N9  UNL     1      67.954  86.255  64.260  1.00  0.00    -0.234 N 
ATOM     31  H92 UNL     1      68.454  86.001  65.112  1.00  0.00     0.174 HD
ATOM     32  H91 UNL     1      67.391  87.105  64.260  1.00  0.00     0.174 HD
ENDBRANCH   9  30
TORSDOF 5
ENDMDL
MODEL 4
REMARK VINA RESULT: -5.073230785     11.401     11.773
REMARK  5 active torsions:
REMARK  status: ('A' for Active; 'I' for Inactive)
REMARK    1  A    between atoms: C3_6  and  N3_7 
REMARK    2  A    between atoms: C5_9  and  C6_10 
REMARK    3  A    between atoms: C6_10  and  N4_11 
REMARK    4  A    between atoms: C6_10  and  O1_15 
REMARK    5  A    between atoms: C8_27  and  N9_28 
ROOT
HETATM    1  N1  UNL     1      76.561  79.701  55.565  1.00  0.00    -0.188 NA
HETATM    2  C1  UNL     1      75.961  78.986  56.251  1.00  0.00     0.138 C 
HETATM    3  C2  UNL     1      75.237  78.106  57.116  1.00  0.00     0.217 A 
HETATM    4  N2  UNL     1      75.543  77.968  58.440  1.00  0.00    -0.164 N 
ATOM      5  H2  UNL     1      76.316  78.510  58.825  1.00  0.00     0.186 HD
HETATM    6  C3  UNL     1      74.870  77.156  59.242  1.00  0.00     0.716 A 
HETATM    7  N8  UNL     1      73.843  76.445  58.694  1.00  0.00    -0.021 N 
ATOM      8  H8  UNL     1      73.311  75.813  59.292  1.00  0.00     0.203 HD
HETATM    9  C8  UNL     1      73.504  76.545  57.399  1.00  0.00     0.692 A 
HETATM   10  N10 UNL     1      74.209  77.382  56.613  1.00  0.00    -0.166 N 
ATOM     11  H10 UNL     1      73.965  77.471  55.626  1.00  0.00     0.186 HD
ENDROOT
BRANCH   6  12
HETATM   12  N3  UNL     1      75.134  76.944  60.628  1.00  0.00    -0.107 N 
HETATM   13  C4  UNL     1      74.534  75.784  61.234  1.00  0.00     0.198 C 
HETATM   14  C5  UNL     1      75.253  75.265  62.428  1.00  0.00     0.175 C 
HETATM   15  N5  UNL     1      76.483  75.956  62.742  1.00  0.00    -0.215 N 
HETATM   16  C7  UNL     1      76.683  77.331  62.462  1.00  0.00     0.687 C 
ATOM     17  H5  UNL     1      77.238  75.432  63.185  1.00  0.00     0.178 HD
HETATM   18  N6  UNL     1      77.464  78.075  63.151  1.00  0.00    -0.234 N 
HETATM   19  N7  UNL     1      75.950  77.842  61.326  1.00  0.00    -0.116 N 
ATOM     20  H62 UNL     1      77.981  77.714  63.954  1.00  0.00     0.174 HD
ATOM     21  H61 UNL     1      77.607  79.064  62.950  1.00  0.00     0.174 HD
ATOM     22  H7  UNL     1      76.025  78.819  61.044  1.00  0.00     0.206 HD
BRANCH  14  23
HETATM   23  C6  UNL     1      74.326  75.186  63.629  1.00  0.00     0.341 C 
BRANCH  23  24
HETATM   24  N4  UNL     1      73.658  73.907  63.722  1.00  0.00    -0.051 N 
ATOM     25  H43 UNL     1      74.033  73.350  64.490  1.00  0.00     0.277 HD
ATOM     26  H42 UNL     1      72.700  74.014  64.052  1.00  0.00     0.277 HD
ATOM     27  H41 UNL     1      73.690  73.390  62.843  1.00  0.00     0.277 HD
ENDBRANCH  23  24
BRANCH  23  28
HETATM   28  O1  UNL     1      75.029  75.414  64.804  1.00  0.00    -0.368 OA
ATOM     29  H1  UNL     1      75.213  74.595  65.249  1.00  0.00     0.212 HD
ENDBRANCH  23  28
ENDBRANCH  14  23
ENDBRANCH   6  12
BRANCH   9  30
HETATM   30  N9  UNL     1      72.519  75.861  56.870  1.00  0.00    -0.234 N 
ATOM     31  H92 UNL     1      72.691  75.329  56.016  1.00  0.00     0.174 HD
ATOM     32  H91 UNL     1      71.586  75.836  57.279  1.00  0.00     0.174 HD
ENDBRANCH   9  30
TORSDOF 5
ENDMDL
MODEL 5
REMARK VINA RESULT: -5.029400289      4.724      7.642
REMARK  5 active torsions:
REMARK  status: ('A' for Active; 'I' for Inactive)
REMARK    1  A    between atoms: C3_6  and  N3_7 
REMARK    2  A    between atoms: C5_9  and  C6_10 
REMARK    3  A    between atoms: C6_10  and  N4_11 
REMARK    4  A    between atoms: C6_10  and  O1_15 
REMARK    5  A    between atoms: C8_27  and  N9_28 
ROOT
HETATM    1  N1  UNL     1      70.482  84.632  61.192  1.00  0.00    -0.188 NA
HETATM    2  C1  UNL     1      70.234  83.535  61.469  1.00  0.00     0.138 C 
HETATM    3  C2  UNL     1      69.947  82.173  61.799  1.00  0.00     0.217 A 
HETATM    4  N2  UNL     1      70.806  81.153  61.503  1.00  0.00    -0.164 N 
ATOM      5  H2  UNL     1      71.682  81.370  61.030  1.00  0.00     0.186 HD
HETATM    6  C3  UNL     1      70.541  79.892  61.810  1.00  0.00     0.716 A 
HETATM    7  N8  UNL     1      69.360  79.636  62.442  1.00  0.00    -0.021 N 
ATOM      8  H8  UNL     1      69.134  78.673  62.688  1.00  0.00     0.203 HD
HETATM    9  C8  UNL     1      68.482  80.603  62.753  1.00  0.00     0.692 A 
HETATM   10  N10 UNL     1      68.784  81.875  62.427  1.00  0.00    -0.166 N 
ATOM     11  H10 UNL     1      68.129  82.623  62.655  1.00  0.00     0.186 HD
ENDROOT
BRANCH   6  12
HETATM   12  N3  UNL     1      71.376  78.770  61.525  1.00  0.00    -0.107 N 
HETATM   13  C4  UNL     1      72.211  78.862  60.355  1.00  0.00     0.198 C 
HETATM   14  C5  UNL     1      73.436  78.020  60.399  1.00  0.00     0.175 C 
HETATM   15  N5  UNL     1      73.637  77.307  61.639  1.00  0.00    -0.215 N 
HETATM   16  C7  UNL     1      72.562  76.860  62.449  1.00  0.00     0.687 C 
ATOM     17  H5  UNL     1      74.592  77.116  61.945  1.00  0.00     0.178 HD
HETATM   18  N6  UNL     1      72.644  75.832  63.208  1.00  0.00    -0.234 N 
HETATM   19  N7  UNL     1      71.360  77.657  62.373  1.00  0.00    -0.116 N 
ATOM     20  H62 UNL     1      73.494  75.269  63.262  1.00  0.00     0.174 HD
ATOM     21  H61 UNL     1      71.872  75.511  63.790  1.00  0.00     0.174 HD
ATOM     22  H7  UNL     1      70.530  77.417  62.916  1.00  0.00     0.206 HD
BRANCH  14  23
HETATM   23  C6  UNL     1      73.502  77.094  59.197  1.00  0.00     0.341 C 
BRANCH  23  24
HETATM   24  N4  UNL     1      72.338  76.242  59.099  1.00  0.00    -0.051 N 
ATOM     25  H43 UNL     1      72.596  75.295  58.820  1.00  0.00     0.277 HD
ATOM     26  H42 UNL     1      71.950  76.039  60.020  1.00  0.00     0.277 HD
ATOM     27  H41 UNL     1      71.628  76.628  58.476  1.00  0.00     0.277 HD
ENDBRANCH  23  24
BRANCH  23  28
HETATM   28  O1  UNL     1      73.625  77.825  58.023  1.00  0.00    -0.368 OA
ATOM     29  H1  UNL     1      73.266  78.698  58.133  1.00  0.00     0.212 HD
ENDBRANCH  23  28
ENDBRANCH  14  23
ENDBRANCH   6  12
BRANCH   9  30
HETATM   30  N9  UNL     1      67.345  80.359  63.357  1.00  0.00    -0.234 N 
ATOM     31  H92 UNL     1      67.139  80.842  64.232  1.00  0.00     0.174 HD
ATOM     32  H91 UNL     1      66.655  79.705  62.988  1.00  0.00     0.174 HD
ENDBRANCH   9  30
TORSDOF 5
ENDMDL
