MODEL 1
REMARK VINA RESULT: -6.298383717      0.000      0.000
REMARK  7 active torsions:
REMARK  status: ('A' for Active; 'I' for Inactive)
REMARK    1  A    between atoms: C2_2  and  N1_3 
REMARK    2  A    between atoms: C2_2  and  N2_7 
REMARK       I    between atoms: N2_7  and  C3_8 
REMARK    3  A    between atoms: N2_7  and  C4_15 
REMARK    4  A    between atoms: N4_10  and  N5_12 
REMARK    5  A    between atoms: C5_18  and  C6_19 
REMARK       I    between atoms: C6_19  and  N7_21 
REMARK    6  A    between atoms: N7_21  and  N8_23 
REMARK    7  A    between atoms: C7_28  and  N10_29 
ROOT
HETATM    1  C4  UNL     1      73.628  76.578  61.680  1.00  0.00     0.705 A 
HETATM    2  N6  UNL     1      72.722  77.500  62.053  1.00  0.00    -0.169 N 
ATOM      3  H6  UNL     1      72.648  77.730  63.044  1.00  0.00     0.186 HD
HETATM    4  C5  UNL     1      71.906  78.137  61.188  1.00  0.00     0.205 A 
HETATM    5  N9  UNL     1      72.041  77.800  59.897  1.00  0.00    -0.170 N 
ATOM      6  H9  UNL     1      71.447  78.252  59.201  1.00  0.00     0.186 HD
HETATM    7  C7  UNL     1      72.941  76.880  59.491  1.00  0.00     0.692 A 
HETATM    8  N11 UNL     1      73.740  76.262  60.378  1.00  0.00    -0.022 N 
ATOM      9  H11 UNL     1      74.419  75.567  60.069  1.00  0.00     0.203 HD
ENDROOT
BRANCH   1  10
HETATM   10  N2  UNL     1      74.445  75.958  62.663  1.00  0.00    -0.123 N 
HETATM   11  C3  UNL     1      73.863  74.960  63.488  1.00  0.00     0.225 C 
HETATM   12  N3  UNL     1      73.033  75.251  64.596  1.00  0.00    -0.061 NA
HETATM   13  N4  UNL     1      74.090  73.721  63.229  1.00  0.00    -0.279 N 
ATOM     14  H4  UNL     1      74.686  73.493  62.433  1.00  0.00     0.189 HD
BRANCH  10  15
HETATM   15  C2  UNL     1      75.825  76.266  62.887  1.00  0.00     0.304 C 
HETATM   16  C1  UNL     1      76.238  77.636  62.485  1.00  0.00     0.064 C 
BRANCH  15  17
HETATM   17  N1  UNL     1      76.062  76.139  64.330  1.00  0.00    -0.058 N 
ATOM     18  H13 UNL     1      75.893  77.008  64.839  1.00  0.00     0.276 HD
ATOM     19  H12 UNL     1      75.357  75.571  64.800  1.00  0.00     0.276 HD
ATOM     20  H11 UNL     1      77.010  75.782  64.456  1.00  0.00     0.276 HD
ENDBRANCH  15  17
ENDBRANCH  10  15
BRANCH  13  21
HETATM   21  N5  UNL     1      73.561  72.676  63.983  1.00  0.00    -0.343 N 
ATOM     22  H52 UNL     1      74.219  72.008  64.385  1.00  0.00     0.176 HD
ATOM     23  H51 UNL     1      72.561  72.556  64.146  1.00  0.00     0.176 HD
ENDBRANCH  13  21
ENDBRANCH   1  10
BRANCH   4  24
HETATM   24  C6  UNL     1      70.948  79.123  61.657  1.00  0.00     0.304 C 
HETATM   25  O1  UNL     1      69.789  78.791  61.996  1.00  0.00    -0.263 OA
HETATM   26  N7  UNL     1      71.305  80.484  61.742  1.00  0.00    -0.270 N 
ATOM     27  H7  UNL     1      72.247  80.765  61.468  1.00  0.00     0.189 HD
BRANCH  26  28
HETATM   28  N8  UNL     1      70.414  81.458  62.187  1.00  0.00    -0.342 N 
ATOM     29  H82 UNL     1      69.756  81.848  61.512  1.00  0.00     0.176 HD
ATOM     30  H81 UNL     1      70.404  81.784  63.154  1.00  0.00     0.176 HD
ENDBRANCH  26  28
ENDBRANCH   4  24
BRANCH   7  31
HETATM   31  N10 UNL     1      73.007  76.618  58.246  1.00  0.00    -0.234 N 
ATOM     32 2H10 UNL     1      73.145  75.664  57.912  1.00  0.00     0.174 HD
ATOM     33 1H10 UNL     1      72.915  77.392  57.588  1.00  0.00     0.174 HD
ENDBRANCH   7  31
TORSDOF 7
ENDMDL
MODEL 2
REMARK VINA RESULT: -6.251269828      4.103      8.826
REMARK  7 active torsions:
REMARK  status: ('A' for Active; 'I' for Inactive)
REMARK    1  A    between atoms: C2_2  and  N1_3 
REMARK    2  A    between atoms: C2_2  and  N2_7 
REMARK       I    between atoms: N2_7  and  C3_8 
REMARK    3  A    between atoms: N2_7  and  C4_15 
REMARK    4  A    between atoms: N4_10  and  N5_12 
REMARK    5  A    between atoms: C5_18  and  C6_19 
REMARK       I    between atoms: C6_19  and  N7_21 
REMARK    6  A    between atoms: N7_21  and  N8_23 
REMARK    7  A    between atoms: C7_28  and  N10_29 
ROOT
HETATM    1  C4  UNL     1      69.289  82.968  62.456  1.00  0.00     0.705 A 
HETATM    2  N6  UNL     1      70.472  82.367  62.234  1.00  0.00    -0.169 N 
ATOM      3  H6  UNL     1      71.237  82.931  61.864  1.00  0.00     0.186 HD
HETATM    4  C5  UNL     1      70.701  81.060  62.476  1.00  0.00     0.205 A 
HETATM    5  N9  UNL     1      69.664  80.361  62.962  1.00  0.00    -0.170 N 
ATOM      6  H9  UNL     1      69.785  79.368  63.160  1.00  0.00     0.186 HD
HETATM    7  C7  UNL     1      68.465  80.935  63.195  1.00  0.00     0.692 A 
HETATM    8  N11 UNL     1      68.268  82.241  62.944  1.00  0.00    -0.022 N 
ATOM      9  H11 UNL     1      67.361  82.672  63.121  1.00  0.00     0.203 HD
ENDROOT
BRANCH   1  10
HETATM   10  N2  UNL     1      69.139  84.352  62.171  1.00  0.00    -0.123 N 
HETATM   11  C3  UNL     1      68.896  84.739  60.828  1.00  0.00     0.225 C 
HETATM   12  N3  UNL     1      69.907  84.811  59.842  1.00  0.00    -0.061 NA
HETATM   13  N4  UNL     1      67.698  85.041  60.469  1.00  0.00    -0.279 N 
ATOM     14  H4  UNL     1      66.955  84.993  61.167  1.00  0.00     0.189 HD
BRANCH  10  15
HETATM   15  C2  UNL     1      69.216  85.397  63.148  1.00  0.00     0.304 C 
HETATM   16  C1  UNL     1      67.977  85.613  63.938  1.00  0.00     0.064 C 
BRANCH  15  17
HETATM   17  N1  UNL     1      70.280  85.024  64.088  1.00  0.00    -0.058 N 
ATOM     18  H13 UNL     1      69.924  84.761  65.007  1.00  0.00     0.276 HD
ATOM     19  H12 UNL     1      70.721  84.134  63.856  1.00  0.00     0.276 HD
ATOM     20  H11 UNL     1      70.943  85.799  64.124  1.00  0.00     0.276 HD
ENDBRANCH  15  17
ENDBRANCH  10  15
BRANCH  13  21
HETATM   21  N5  UNL     1      67.366  85.430  59.173  1.00  0.00    -0.343 N 
ATOM     22  H52 UNL     1      67.851  86.240  58.788  1.00  0.00     0.176 HD
ATOM     23  H51 UNL     1      66.671  84.945  58.605  1.00  0.00     0.176 HD
ENDBRANCH  13  21
ENDBRANCH   1  10
BRANCH   4  24
HETATM   24  C6  UNL     1      72.003  80.473  62.214  1.00  0.00     0.304 C 
HETATM   25  O1  UNL     1      73.053  81.007  62.637  1.00  0.00    -0.263 OA
HETATM   26  N7  UNL     1      72.114  79.278  61.473  1.00  0.00    -0.270 N 
ATOM     27  H7  UNL     1      71.264  78.834  61.123  1.00  0.00     0.189 HD
BRANCH  26  28
HETATM   28  N8  UNL     1      73.345  78.685  61.202  1.00  0.00    -0.342 N 
ATOM     29  H82 UNL     1      74.134  78.928  61.799  1.00  0.00     0.176 HD
ATOM     30  H81 UNL     1      73.472  78.025  60.433  1.00  0.00     0.176 HD
ENDBRANCH  26  28
ENDBRANCH   4  24
BRANCH   7  31
HETATM   31  N10 UNL     1      67.532  80.202  63.658  1.00  0.00    -0.234 N 
ATOM     32 2H10 UNL     1      67.530  79.897  64.631  1.00  0.00     0.174 HD
ATOM     33 1H10 UNL     1      66.781  79.927  63.024  1.00  0.00     0.174 HD
ENDBRANCH   7  31
TORSDOF 7
ENDMDL
MODEL 3
REMARK VINA RESULT: -5.729664360      1.596      2.184
REMARK  7 active torsions:
REMARK  status: ('A' for Active; 'I' for Inactive)
REMARK    1  A    between atoms: C2_2  and  N1_3 
REMARK    2  A    between atoms: C2_2  and  N2_7 
REMARK       I    between atoms: N2_7  and  C3_8 
REMARK    3  A    between atoms: N2_7  and  C4_15 
REMARK    4  A    between atoms: N4_10  and  N5_12 
REMARK    5  A    between atoms: C5_18  and  C6_19 
REMARK       I    between atoms: C6_19  and  N7_21 
REMARK    6  A    between atoms: N7_21  and  N8_23 
REMARK    7  A    between atoms: C7_28  and  N10_29 
ROOT
HETATM    1  C4  UNL     1      73.774  76.521  61.874  1.00  0.00     0.705 A 
HETATM    2  N6  UNL     1      72.664  77.244  62.107  1.00  0.00    -0.169 N 
ATOM      3  H6  UNL     1      72.030  76.930  62.842  1.00  0.00     0.186 HD
HETATM    4  C5  UNL     1      72.344  78.361  61.423  1.00  0.00     0.205 A 
HETATM    5  N9  UNL     1      73.209  78.733  60.467  1.00  0.00    -0.170 N 
ATOM      6  H9  UNL     1      73.013  79.572  59.920  1.00  0.00     0.186 HD
HETATM    7  C7  UNL     1      74.331  78.030  60.209  1.00  0.00     0.692 A 
HETATM    8  N11 UNL     1      74.622  76.919  60.909  1.00  0.00    -0.022 N 
ATOM      9  H11 UNL     1      75.470  76.388  60.711  1.00  0.00     0.203 HD
ENDROOT
BRANCH   1  10
HETATM   10  N2  UNL     1      74.029  75.355  62.645  1.00  0.00    -0.123 N 
HETATM   11  C3  UNL     1      74.567  74.219  61.987  1.00  0.00     0.225 C 
HETATM   12  N3  UNL     1      73.793  73.333  61.202  1.00  0.00    -0.061 NA
HETATM   13  N4  UNL     1      75.824  73.967  62.098  1.00  0.00    -0.279 N 
ATOM     14  H4  UNL     1      76.398  74.597  62.659  1.00  0.00     0.189 HD
BRANCH  10  15
HETATM   15  C2  UNL     1      73.781  75.239  64.051  1.00  0.00     0.304 C 
HETATM   16  C1  UNL     1      73.354  73.891  64.506  1.00  0.00     0.064 C 
BRANCH  15  17
HETATM   17  N1  UNL     1      75.042  75.556  64.733  1.00  0.00    -0.058 N 
ATOM     18  H13 UNL     1      75.535  74.726  65.064  1.00  0.00     0.276 HD
ATOM     19  H12 UNL     1      75.764  75.894  64.097  1.00  0.00     0.276 HD
ATOM     20  H11 UNL     1      74.829  76.216  65.481  1.00  0.00     0.276 HD
ENDBRANCH  15  17
ENDBRANCH  10  15
BRANCH  13  21
HETATM   21  N5  UNL     1      76.439  72.875  61.487  1.00  0.00    -0.343 N 
ATOM     22  H52 UNL     1      76.569  72.035  62.050  1.00  0.00     0.176 HD
ATOM     23  H51 UNL     1      76.756  72.885  60.518  1.00  0.00     0.176 HD
ENDBRANCH  13  21
ENDBRANCH   1  10
BRANCH   4  24
HETATM   24  C6  UNL     1      71.129  79.097  61.726  1.00  0.00     0.304 C 
HETATM   25  O1  UNL     1      70.049  78.503  61.947  1.00  0.00    -0.263 OA
HETATM   26  N7  UNL     1      71.139  80.506  61.778  1.00  0.00    -0.270 N 
ATOM     27  H7  UNL     1      72.013  81.000  61.600  1.00  0.00     0.189 HD
BRANCH  26  28
HETATM   28  N8  UNL     1      69.993  81.246  62.065  1.00  0.00    -0.342 N 
ATOM     29  H82 UNL     1      69.236  80.779  62.564  1.00  0.00     0.176 HD
ATOM     30  H81 UNL     1      69.896  82.224  61.792  1.00  0.00     0.176 HD
ENDBRANCH  26  28
ENDBRANCH   4  24
BRANCH   7  31
HETATM   31  N10 UNL     1      75.100  78.450  59.285  1.00  0.00    -0.234 N 
ATOM     32 2H10 UNL     1      74.811  78.435  58.307  1.00  0.00     0.174 HD
ATOM     33 1H10 UNL     1      76.019  78.805  59.551  1.00  0.00     0.174 HD
ENDBRANCH   7  31
TORSDOF 7
ENDMDL
MODEL 4
REMARK VINA RESULT: -5.643661666      1.796      2.392
REMARK  7 active torsions:
REMARK  status: ('A' for Active; 'I' for Inactive)
REMARK    1  A    between atoms: C2_2  and  N1_3 
REMARK    2  A    between atoms: C2_2  and  N2_7 
REMARK       I    between atoms: N2_7  and  C3_8 
REMARK    3  A    between atoms: N2_7  and  C4_15 
REMARK    4  A    between atoms: N4_10  and  N5_12 
REMARK    5  A    between atoms: C5_18  and  C6_19 
REMARK       I    between atoms: C6_19  and  N7_21 
REMARK    6  A    between atoms: N7_21  and  N8_23 
REMARK    7  A    between atoms: C7_28  and  N10_29 
ROOT
HETATM    1  C4  UNL     1      74.536  76.158  61.066  1.00  0.00     0.705 A 
HETATM    2  N6  UNL     1      73.803  77.138  61.623  1.00  0.00    -0.169 N 
ATOM      3  H6  UNL     1      74.094  77.503  62.529  1.00  0.00     0.186 HD
HETATM    4  C5  UNL     1      72.703  77.665  61.047  1.00  0.00     0.205 A 
HETATM    5  N9  UNL     1      72.359  77.152  59.856  1.00  0.00    -0.170 N 
ATOM      6  H9  UNL     1      71.534  77.516  59.378  1.00  0.00     0.186 HD
HETATM    7  C7  UNL     1      73.075  76.169  59.271  1.00  0.00     0.692 A 
HETATM    8  N11 UNL     1      74.167  75.664  59.871  1.00  0.00    -0.022 N 
ATOM      9  H11 UNL     1      74.706  74.920  59.428  1.00  0.00     0.203 HD
ENDROOT
BRANCH   1  10
HETATM   10  N2  UNL     1      75.681  75.663  61.747  1.00  0.00    -0.123 N 
HETATM   11  C3  UNL     1      75.967  76.177  63.039  1.00  0.00     0.225 C 
HETATM   12  N3  UNL     1      76.578  77.433  63.262  1.00  0.00    -0.061 NA
HETATM   13  N4  UNL     1      75.660  75.477  64.074  1.00  0.00    -0.279 N 
ATOM     14  H4  UNL     1      75.218  74.569  63.932  1.00  0.00     0.189 HD
BRANCH  10  15
HETATM   15  C2  UNL     1      76.577  74.676  61.224  1.00  0.00     0.304 C 
HETATM   16  C1  UNL     1      77.987  74.804  61.673  1.00  0.00     0.064 C 
BRANCH  15  17
HETATM   17  N1  UNL     1      76.085  73.370  61.680  1.00  0.00    -0.058 N 
ATOM     18  H13 UNL     1      76.354  73.157  62.640  1.00  0.00     0.276 HD
ATOM     19  H12 UNL     1      75.074  73.352  61.818  1.00  0.00     0.276 HD
ATOM     20  H11 UNL     1      76.407  72.670  61.010  1.00  0.00     0.276 HD
ENDBRANCH  15  17
ENDBRANCH  10  15
BRANCH  13  21
HETATM   21  N5  UNL     1      75.903  75.901  65.379  1.00  0.00    -0.343 N 
ATOM     22  H52 UNL     1      76.831  76.269  65.588  1.00  0.00     0.176 HD
ATOM     23  H51 UNL     1      75.202  75.858  66.119  1.00  0.00     0.176 HD
ENDBRANCH  13  21
ENDBRANCH   1  10
BRANCH   4  24
HETATM   24  C6  UNL     1      71.954  78.724  61.702  1.00  0.00     0.304 C 
HETATM   25  O1  UNL     1      72.496  79.812  62.001  1.00  0.00    -0.263 OA
HETATM   26  N7  UNL     1      70.591  78.547  62.018  1.00  0.00    -0.270 N 
ATOM     27  H7  UNL     1      70.140  77.664  61.779  1.00  0.00     0.189 HD
BRANCH  26  28
HETATM   28  N8  UNL     1      69.841  79.539  62.646  1.00  0.00    -0.342 N 
ATOM     29  H82 UNL     1      70.222  79.963  63.492  1.00  0.00     0.176 HD
ATOM     30  H81 UNL     1      68.937  79.846  62.286  1.00  0.00     0.176 HD
ENDBRANCH  26  28
ENDBRANCH   4  24
BRANCH   7  31
HETATM   31  N10 UNL     1      72.682  75.737  58.139  1.00  0.00    -0.234 N 
ATOM     32 2H10 UNL     1      72.420  74.760  58.007  1.00  0.00     0.174 HD
ATOM     33 1H10 UNL     1      72.636  76.398  57.364  1.00  0.00     0.174 HD
ENDBRANCH   7  31
TORSDOF 7
ENDMDL
MODEL 5
REMARK VINA RESULT: -5.598819666      1.317      2.583
REMARK  7 active torsions:
REMARK  status: ('A' for Active; 'I' for Inactive)
REMARK    1  A    between atoms: C2_2  and  N1_3 
REMARK    2  A    between atoms: C2_2  and  N2_7 
REMARK       I    between atoms: N2_7  and  C3_8 
REMARK    3  A    between atoms: N2_7  and  C4_15 
REMARK    4  A    between atoms: N4_10  and  N5_12 
REMARK    5  A    between atoms: C5_18  and  C6_19 
REMARK       I    between atoms: C6_19  and  N7_21 
REMARK    6  A    between atoms: N7_21  and  N8_23 
REMARK    7  A    between atoms: C7_28  and  N10_29 
ROOT
HETATM    1  C4  UNL     1      73.853  76.756  61.930  1.00  0.00     0.705 A 
HETATM    2  N6  UNL     1      72.892  77.656  62.205  1.00  0.00    -0.169 N 
ATOM      3  H6  UNL     1      72.844  78.037  63.150  1.00  0.00     0.186 HD
HETATM    4  C5  UNL     1      71.987  78.080  61.300  1.00  0.00     0.205 A 
HETATM    5  N9  UNL     1      72.090  77.550  60.072  1.00  0.00    -0.170 N 
ATOM      6  H9  UNL     1      71.428  77.837  59.350  1.00  0.00     0.186 HD
HETATM    7  C7  UNL     1      73.044  76.646  59.765  1.00  0.00     0.692 A 
HETATM    8  N11 UNL     1      73.931  76.242  60.690  1.00  0.00    -0.022 N 
ATOM      9  H11 UNL     1      74.651  75.558  60.455  1.00  0.00     0.203 HD
ENDROOT
BRANCH   1  10
HETATM   10  N2  UNL     1      74.764  76.367  62.949  1.00  0.00    -0.123 N 
HETATM   11  C3  UNL     1      76.149  76.597  62.735  1.00  0.00     0.225 C 
HETATM   12  N3  UNL     1      76.959  75.772  61.921  1.00  0.00    -0.061 NA
HETATM   13  N4  UNL     1      76.712  77.604  63.302  1.00  0.00    -0.279 N 
ATOM     14  H4  UNL     1      76.142  78.211  63.892  1.00  0.00     0.189 HD
BRANCH  10  15
HETATM   15  C2  UNL     1      74.387  75.755  64.187  1.00  0.00     0.304 C 
HETATM   16  C1  UNL     1      73.831  74.383  64.069  1.00  0.00     0.064 C 
BRANCH  15  17
HETATM   17  N1  UNL     1      75.603  75.669  65.007  1.00  0.00    -0.058 N 
ATOM     18  H13 UNL     1      76.357  76.264  64.664  1.00  0.00     0.276 HD
ATOM     19  H12 UNL     1      75.496  76.104  65.923  1.00  0.00     0.276 HD
ATOM     20  H11 UNL     1      75.867  74.685  65.062  1.00  0.00     0.276 HD
ENDBRANCH  15  17
ENDBRANCH  10  15
BRANCH  13  21
HETATM   21  N5  UNL     1      78.064  77.906  63.149  1.00  0.00    -0.343 N 
ATOM     22  H52 UNL     1      78.313  78.596  62.441  1.00  0.00     0.176 HD
ATOM     23  H51 UNL     1      78.799  77.473  63.708  1.00  0.00     0.176 HD
ENDBRANCH  13  21
ENDBRANCH   1  10
BRANCH   4  24
HETATM   24  C6  UNL     1      70.972  79.055  61.662  1.00  0.00     0.304 C 
HETATM   25  O1  UNL     1      69.819  78.698  61.992  1.00  0.00    -0.263 OA
HETATM   26  N7  UNL     1      71.268  80.434  61.651  1.00  0.00    -0.270 N 
ATOM     27  H7  UNL     1      72.205  80.736  61.384  1.00  0.00     0.189 HD
BRANCH  26  28
HETATM   28  N8  UNL     1      70.321  81.398  61.993  1.00  0.00    -0.342 N 
ATOM     29  H82 UNL     1      70.388  82.312  61.546  1.00  0.00     0.176 HD
ATOM     30  H81 UNL     1      69.577  81.213  62.666  1.00  0.00     0.176 HD
ENDBRANCH  26  28
ENDBRANCH   4  24
BRANCH   7  31
HETATM   31  N10 UNL     1      73.073  76.190  58.575  1.00  0.00    -0.234 N 
ATOM     32 2H10 UNL     1      73.815  76.451  57.926  1.00  0.00     0.174 HD
ATOM     33 1H10 UNL     1      72.331  75.551  58.289  1.00  0.00     0.174 HD
ENDBRANCH   7  31
TORSDOF 7
ENDMDL
