MODEL 1
REMARK VINA RESULT: -7.976143366      0.000      0.000
REMARK  6 active torsions:
REMARK  status: ('A' for Active; 'I' for Inactive)
REMARK    1  A    between atoms: N1_1  and  C1_4 
REMARK    2  A    between atoms: C2_7  and  C3_8 
REMARK    3  A    between atoms: N3_9  and  N4_11 
REMARK       I    between atoms: N4_11  and  C4_13 
REMARK       I    between atoms: C4_13  and  N7_19 
REMARK    4  A    between atoms: N5_14  and  N6_16 
REMARK    5  A    between atoms: N7_19  and  N8_21 
REMARK    6  A    between atoms: C5_26  and  N10_27 
ROOT
HETATM    1  C3  UNL     1      67.427  85.652  59.736  1.00  0.00     0.157 C 
HETATM    2  N3  UNL     1      67.517  85.068  60.881  1.00  0.00    -0.294 N 
ATOM      3  H3  UNL     1      66.824  85.272  61.601  1.00  0.00     0.186 HD
ENDROOT
BRANCH   1   4
HETATM    4  C2  UNL     1      66.335  86.602  59.475  1.00  0.00     0.153 A 
HETATM    5  N2  UNL     1      65.660  87.163  60.503  1.00  0.00    -0.174 N 
HETATM    6  C1  UNL     1      64.661  88.034  60.283  1.00  0.00     0.692 A 
ATOM      7  H2  UNL     1      65.914  86.923  61.461  1.00  0.00     0.186 HD
HETATM    8  N11 UNL     1      64.362  88.320  59.004  1.00  0.00    -0.023 N 
HETATM    9  C5  UNL     1      65.023  87.769  57.967  1.00  0.00     0.692 A 
ATOM     10  H11 UNL     1      63.607  88.978  58.811  1.00  0.00     0.203 HD
HETATM   11  N9  UNL     1      66.020  86.900  58.213  1.00  0.00    -0.174 N 
ATOM     12  H9  UNL     1      66.532  86.473  57.441  1.00  0.00     0.186 HD
BRANCH   6  13
HETATM   13  N1  UNL     1      63.990  88.594  61.217  1.00  0.00    -0.234 N 
ATOM     14  H12 UNL     1      64.283  88.460  62.185  1.00  0.00     0.174 HD
ATOM     15  H11 UNL     1      63.170  89.176  61.053  1.00  0.00     0.174 HD
ENDBRANCH   6  13
BRANCH   9  16
HETATM   16  N10 UNL     1      64.727  88.051  56.724  1.00  0.00    -0.234 N 
ATOM     17 2H10 UNL     1      65.442  88.128  56.002  1.00  0.00     0.174 HD
ATOM     18 1H10 UNL     1      63.749  88.198  56.475  1.00  0.00     0.174 HD
ENDBRANCH   9  16
ENDBRANCH   1   4
BRANCH   2  19
HETATM   19  N4  UNL     1      68.536  84.166  61.156  1.00  0.00    -0.130 N 
HETATM   20  C4  UNL     1      69.170  84.171  62.428  1.00  0.00     0.730 C 
HETATM   21  N5  UNL     1      69.422  85.326  62.952  1.00  0.00    -0.136 N 
HETATM   22  N7  UNL     1      69.517  82.950  63.106  1.00  0.00    -0.069 N 
ATOM     23  H5  UNL     1      69.170  86.185  62.462  1.00  0.00     0.205 HD
ATOM     24  H7  UNL     1      70.030  82.963  63.987  1.00  0.00     0.212 HD
ATOM     25  H4  UNL     1      68.831  83.498  60.443  1.00  0.00     0.205 HD
BRANCH  21  26
HETATM   26  N6  UNL     1      70.045  85.375  64.203  1.00  0.00    -0.331 N 
ATOM     27  H62 UNL     1      70.232  84.510  64.708  1.00  0.00     0.177 HD
ATOM     28  H61 UNL     1      70.303  86.285  64.586  1.00  0.00     0.177 HD
ENDBRANCH  21  26
BRANCH  22  29
HETATM   29  N8  UNL     1      69.128  81.749  62.515  1.00  0.00    -0.024 N 
HETATM   30  O1  UNL     1      68.192  81.058  62.973  1.00  0.00    -0.516 OA
HETATM   31  O2  UNL     1      69.828  81.343  61.384  1.00  0.00    -0.516 OA
ENDBRANCH  22  29
ENDBRANCH   2  19
TORSDOF 6
ENDMDL
MODEL 2
REMARK VINA RESULT: -7.947726953      0.066      1.887
REMARK  6 active torsions:
REMARK  status: ('A' for Active; 'I' for Inactive)
REMARK    1  A    between atoms: N1_1  and  C1_4 
REMARK    2  A    between atoms: C2_7  and  C3_8 
REMARK    3  A    between atoms: N3_9  and  N4_11 
REMARK       I    between atoms: N4_11  and  C4_13 
REMARK       I    between atoms: C4_13  and  N7_19 
REMARK    4  A    between atoms: N5_14  and  N6_16 
REMARK    5  A    between atoms: N7_19  and  N8_21 
REMARK    6  A    between atoms: C5_26  and  N10_27 
ROOT
HETATM    1  C3  UNL     1      67.401  85.614  59.696  1.00  0.00     0.157 C 
HETATM    2  N3  UNL     1      67.534  85.112  60.875  1.00  0.00    -0.294 N 
ATOM      3  H3  UNL     1      66.883  85.387  61.611  1.00  0.00     0.186 HD
ENDROOT
BRANCH   1   4
HETATM    4  C2  UNL     1      66.321  86.574  59.419  1.00  0.00     0.153 A 
HETATM    5  N2  UNL     1      65.998  86.886  58.145  1.00  0.00    -0.174 N 
HETATM    6  C1  UNL     1      65.014  87.760  57.873  1.00  0.00     0.692 A 
ATOM      7  H2  UNL     1      66.509  86.451  57.377  1.00  0.00     0.186 HD
HETATM    8  N11 UNL     1      64.370  88.308  58.919  1.00  0.00    -0.023 N 
HETATM    9  C5  UNL     1      64.680  88.009  60.195  1.00  0.00     0.692 A 
ATOM     10  H11 UNL     1      63.618  88.975  58.738  1.00  0.00     0.203 HD
HETATM   11  N9  UNL     1      65.668  87.131  60.442  1.00  0.00    -0.174 N 
ATOM     12  H9  UNL     1      65.917  86.892  61.402  1.00  0.00     0.186 HD
BRANCH   6  13
HETATM   13  N1  UNL     1      64.668  88.091  56.688  1.00  0.00    -0.234 N 
ATOM     14  H12 UNL     1      63.755  88.522  56.542  1.00  0.00     0.174 HD
ATOM     15  H11 UNL     1      65.256  87.951  55.867  1.00  0.00     0.174 HD
ENDBRANCH   6  13
BRANCH   9  16
HETATM   16  N10 UNL     1      64.048  88.546  61.208  1.00  0.00    -0.234 N 
ATOM     17 2H10 UNL     1      63.244  88.096  61.645  1.00  0.00     0.174 HD
ATOM     18 1H10 UNL     1      64.374  89.443  61.568  1.00  0.00     0.174 HD
ENDBRANCH   9  16
ENDBRANCH   1   4
BRANCH   2  19
HETATM   19  N4  UNL     1      68.543  84.204  61.166  1.00  0.00    -0.130 N 
HETATM   20  C4  UNL     1      69.158  84.205  62.448  1.00  0.00     0.730 C 
HETATM   21  N5  UNL     1      69.408  85.359  62.975  1.00  0.00    -0.136 N 
HETATM   22  N7  UNL     1      69.486  82.983  63.131  1.00  0.00    -0.069 N 
ATOM     23  H5  UNL     1      69.170  86.219  62.481  1.00  0.00     0.205 HD
ATOM     24  H7  UNL     1      69.985  82.993  64.020  1.00  0.00     0.212 HD
ATOM     25  H4  UNL     1      68.844  83.534  60.458  1.00  0.00     0.205 HD
BRANCH  21  26
HETATM   26  N6  UNL     1      70.013  85.405  64.235  1.00  0.00    -0.331 N 
ATOM     27  H62 UNL     1      69.477  85.728  65.041  1.00  0.00     0.177 HD
ATOM     28  H61 UNL     1      70.986  85.110  64.323  1.00  0.00     0.177 HD
ENDBRANCH  21  26
BRANCH  22  29
HETATM   29  N8  UNL     1      69.098  81.783  62.534  1.00  0.00    -0.024 N 
HETATM   30  O1  UNL     1      68.181  81.076  63.005  1.00  0.00    -0.516 OA
HETATM   31  O2  UNL     1      69.778  81.400  61.384  1.00  0.00    -0.516 OA
ENDBRANCH  22  29
ENDBRANCH   2  19
TORSDOF 6
ENDMDL
MODEL 3
REMARK VINA RESULT: -7.150812569      0.834      2.157
REMARK  6 active torsions:
REMARK  status: ('A' for Active; 'I' for Inactive)
REMARK    1  A    between atoms: N1_1  and  C1_4 
REMARK    2  A    between atoms: C2_7  and  C3_8 
REMARK    3  A    between atoms: N3_9  and  N4_11 
REMARK       I    between atoms: N4_11  and  C4_13 
REMARK       I    between atoms: C4_13  and  N7_19 
REMARK    4  A    between atoms: N5_14  and  N6_16 
REMARK    5  A    between atoms: N7_19  and  N8_21 
REMARK    6  A    between atoms: C5_26  and  N10_27 
ROOT
HETATM    1  C3  UNL     1      67.990  85.098  59.886  1.00  0.00     0.157 C 
HETATM    2  N3  UNL     1      67.911  84.424  60.981  1.00  0.00    -0.294 N 
ATOM      3  H3  UNL     1      67.094  84.539  61.580  1.00  0.00     0.186 HD
ENDROOT
BRANCH   1   4
HETATM    4  C2  UNL     1      66.911  86.023  59.509  1.00  0.00     0.153 A 
HETATM    5  N2  UNL     1      66.583  86.194  58.209  1.00  0.00    -0.174 N 
HETATM    6  C1  UNL     1      65.600  87.034  57.846  1.00  0.00     0.692 A 
ATOM      7  H2  UNL     1      67.091  85.676  57.491  1.00  0.00     0.186 HD
HETATM    8  N11 UNL     1      64.959  87.695  58.826  1.00  0.00    -0.023 N 
HETATM    9  C5  UNL     1      65.273  87.537  60.127  1.00  0.00     0.692 A 
ATOM     10  H11 UNL     1      64.208  88.339  58.576  1.00  0.00     0.203 HD
HETATM   11  N9  UNL     1      66.261  86.690  60.466  1.00  0.00    -0.174 N 
ATOM     12  H9  UNL     1      66.513  86.558  61.446  1.00  0.00     0.186 HD
BRANCH   6  13
HETATM   13  N1  UNL     1      65.249  87.233  56.632  1.00  0.00    -0.234 N 
ATOM     14  H12 UNL     1      64.896  88.151  56.364  1.00  0.00     0.174 HD
ATOM     15  H11 UNL     1      65.304  86.522  55.904  1.00  0.00     0.174 HD
ENDBRANCH   6  13
BRANCH   9  16
HETATM   16  N10 UNL     1      64.646  88.184  61.077  1.00  0.00    -0.234 N 
ATOM     17 2H10 UNL     1      65.141  88.759  61.758  1.00  0.00     0.174 HD
ATOM     18 1H10 UNL     1      63.631  88.107  61.134  1.00  0.00     0.174 HD
ENDBRANCH   9  16
ENDBRANCH   1   4
BRANCH   2  19
HETATM   19  N4  UNL     1      68.915  83.543  61.363  1.00  0.00    -0.130 N 
HETATM   20  C4  UNL     1      69.573  83.709  62.612  1.00  0.00     0.730 C 
HETATM   21  N5  UNL     1      69.860  84.919  62.966  1.00  0.00    -0.136 N 
HETATM   22  N7  UNL     1      69.903  82.586  63.448  1.00  0.00    -0.069 N 
ATOM     23  H5  UNL     1      69.620  85.707  62.365  1.00  0.00     0.205 HD
ATOM     24  H7  UNL     1      70.433  82.708  64.311  1.00  0.00     0.212 HD
ATOM     25  H4  UNL     1      69.180  82.776  60.746  1.00  0.00     0.205 HD
BRANCH  21  26
HETATM   26  N6  UNL     1      70.509  85.125  64.187  1.00  0.00    -0.331 N 
ATOM     27  H62 UNL     1      69.959  85.313  65.025  1.00  0.00     0.177 HD
ATOM     28  H61 UNL     1      71.528  85.083  64.214  1.00  0.00     0.177 HD
ENDBRANCH  21  26
BRANCH  22  29
HETATM   29  N8  UNL     1      69.475  81.324  63.036  1.00  0.00    -0.024 N 
HETATM   30  O1  UNL     1      70.281  80.405  62.771  1.00  0.00    -0.516 OA
HETATM   31  O2  UNL     1      68.103  81.124  62.930  1.00  0.00    -0.516 OA
ENDBRANCH  22  29
ENDBRANCH   2  19
TORSDOF 6
ENDMDL
MODEL 4
REMARK VINA RESULT: -7.096534753      3.205      7.334
REMARK  6 active torsions:
REMARK  status: ('A' for Active; 'I' for Inactive)
REMARK    1  A    between atoms: N1_1  and  C1_4 
REMARK    2  A    between atoms: C2_7  and  C3_8 
REMARK    3  A    between atoms: N3_9  and  N4_11 
REMARK       I    between atoms: N4_11  and  C4_13 
REMARK       I    between atoms: C4_13  and  N7_19 
REMARK    4  A    between atoms: N5_14  and  N6_16 
REMARK    5  A    between atoms: N7_19  and  N8_21 
REMARK    6  A    between atoms: C5_26  and  N10_27 
ROOT
HETATM    1  C3  UNL     1      68.751  84.914  61.719  1.00  0.00     0.157 C 
HETATM    2  N3  UNL     1      67.505  85.167  61.517  1.00  0.00    -0.294 N 
ATOM      3  H3  UNL     1      66.813  84.437  61.687  1.00  0.00     0.186 HD
ENDROOT
BRANCH   1   4
HETATM    4  C2  UNL     1      69.168  83.584  62.190  1.00  0.00     0.153 A 
HETATM    5  N2  UNL     1      70.481  83.278  62.289  1.00  0.00    -0.174 N 
HETATM    6  C1  UNL     1      70.880  82.068  62.718  1.00  0.00     0.692 A 
ATOM      7  H2  UNL     1      71.180  83.975  62.034  1.00  0.00     0.186 HD
HETATM    8  N11 UNL     1      69.923  81.181  63.041  1.00  0.00    -0.023 N 
HETATM    9  C5  UNL     1      68.610  81.470  62.948  1.00  0.00     0.692 A 
ATOM     10  H11 UNL     1      70.200  80.256  63.370  1.00  0.00     0.203 HD
HETATM   11  N9  UNL     1      68.235  82.687  62.517  1.00  0.00    -0.174 N 
ATOM     12  H9  UNL     1      67.245  82.924  62.439  1.00  0.00     0.186 HD
BRANCH   6  13
HETATM   13  N1  UNL     1      72.107  81.726  62.830  1.00  0.00    -0.234 N 
ATOM     14  H12 UNL     1      72.471  81.487  63.752  1.00  0.00     0.174 HD
ATOM     15  H11 UNL     1      72.753  81.673  62.043  1.00  0.00     0.174 HD
ENDBRANCH   6  13
BRANCH   9  16
HETATM   16  N10 UNL     1      67.683  80.602  63.264  1.00  0.00    -0.234 N 
ATOM     17 2H10 UNL     1      67.539  79.745  62.730  1.00  0.00     0.174 HD
ATOM     18 1H10 UNL     1      67.089  80.791  64.071  1.00  0.00     0.174 HD
ENDBRANCH   9  16
ENDBRANCH   1   4
BRANCH   2  19
HETATM   19  N4  UNL     1      67.081  86.412  61.073  1.00  0.00    -0.130 N 
HETATM   20  C4  UNL     1      66.310  86.522  59.884  1.00  0.00     0.730 C 
HETATM   21  N5  UNL     1      66.657  85.771  58.890  1.00  0.00    -0.136 N 
HETATM   22  N7  UNL     1      65.194  87.425  59.787  1.00  0.00    -0.069 N 
ATOM     23  H5  UNL     1      67.449  85.134  58.972  1.00  0.00     0.205 HD
ATOM     24  H7  UNL     1      64.688  87.545  58.910  1.00  0.00     0.212 HD
ATOM     25  H4  UNL     1      67.324  87.250  61.602  1.00  0.00     0.205 HD
BRANCH  21  26
HETATM   26  N6  UNL     1      65.924  85.849  57.702  1.00  0.00    -0.331 N 
ATOM     27  H62 UNL     1      65.298  86.638  57.545  1.00  0.00     0.177 HD
ATOM     28  H61 UNL     1      66.034  85.108  57.009  1.00  0.00     0.177 HD
ENDBRANCH  21  26
BRANCH  22  29
HETATM   29  N8  UNL     1      64.830  88.131  60.933  1.00  0.00    -0.024 N 
HETATM   30  O1  UNL     1      65.663  88.441  61.812  1.00  0.00    -0.516 OA
HETATM   31  O2  UNL     1      63.491  88.481  61.062  1.00  0.00    -0.516 OA
ENDBRANCH  22  29
ENDBRANCH   2  19
TORSDOF 6
ENDMDL
MODEL 5
REMARK VINA RESULT: -7.034913889      3.199      7.278
REMARK  6 active torsions:
REMARK  status: ('A' for Active; 'I' for Inactive)
REMARK    1  A    between atoms: N1_1  and  C1_4 
REMARK    2  A    between atoms: C2_7  and  C3_8 
REMARK    3  A    between atoms: N3_9  and  N4_11 
REMARK       I    between atoms: N4_11  and  C4_13 
REMARK       I    between atoms: C4_13  and  N7_19 
REMARK    4  A    between atoms: N5_14  and  N6_16 
REMARK    5  A    between atoms: N7_19  and  N8_21 
REMARK    6  A    between atoms: C5_26  and  N10_27 
ROOT
HETATM    1  C3  UNL     1      68.579  85.026  61.912  1.00  0.00     0.157 C 
HETATM    2  N3  UNL     1      67.413  85.203  61.393  1.00  0.00    -0.294 N 
ATOM      3  H3  UNL     1      66.795  84.402  61.269  1.00  0.00     0.186 HD
ENDROOT
BRANCH   1   4
HETATM    4  C2  UNL     1      69.009  83.680  62.320  1.00  0.00     0.153 A 
HETATM    5  N2  UNL     1      68.092  82.732  62.613  1.00  0.00    -0.174 N 
HETATM    6  C1  UNL     1      68.466  81.497  62.987  1.00  0.00     0.692 A 
ATOM      7  H2  UNL     1      67.099  82.957  62.550  1.00  0.00     0.186 HD
HETATM    8  N11 UNL     1      69.786  81.247  63.058  1.00  0.00    -0.023 N 
HETATM    9  C5  UNL     1      70.714  82.181  62.770  1.00  0.00     0.692 A 
ATOM     10  H11 UNL     1      70.096  80.316  63.339  1.00  0.00     0.203 HD
HETATM   11  N9  UNL     1      70.314  83.410  62.397  1.00  0.00    -0.174 N 
ATOM     12  H9  UNL     1      71.002  84.130  62.175  1.00  0.00     0.186 HD
BRANCH   6  13
HETATM   13  N1  UNL     1      67.642  80.563  63.276  1.00  0.00    -0.234 N 
ATOM     14  H12 UNL     1      66.804  80.449  62.706  1.00  0.00     0.174 HD
ATOM     15  H11 UNL     1      67.773  79.913  64.051  1.00  0.00     0.174 HD
ENDBRANCH   6  13
BRANCH   9  16
HETATM   16  N10 UNL     1      71.996  81.931  62.840  1.00  0.00    -0.234 N 
ATOM     17 2H10 UNL     1      72.356  80.999  63.046  1.00  0.00     0.174 HD
ATOM     18 1H10 UNL     1      72.653  82.695  62.684  1.00  0.00     0.174 HD
ENDBRANCH   9  16
ENDBRANCH   1   4
BRANCH   2  19
HETATM   19  N4  UNL     1      66.980  86.462  60.998  1.00  0.00    -0.130 N 
HETATM   20  C4  UNL     1      66.196  86.611  59.821  1.00  0.00     0.730 C 
HETATM   21  N5  UNL     1      66.535  85.898  58.798  1.00  0.00    -0.136 N 
HETATM   22  N7  UNL     1      65.076  87.512  59.768  1.00  0.00    -0.069 N 
ATOM     23  H5  UNL     1      67.331  85.262  58.848  1.00  0.00     0.205 HD
ATOM     24  H7  UNL     1      64.559  87.661  58.902  1.00  0.00     0.212 HD
ATOM     25  H4  UNL     1      67.226  87.282  61.553  1.00  0.00     0.205 HD
BRANCH  21  26
HETATM   26  N6  UNL     1      65.789  86.015  57.621  1.00  0.00    -0.331 N 
ATOM     27  H62 UNL     1      64.834  86.368  57.661  1.00  0.00     0.177 HD
ATOM     28  H61 UNL     1      66.222  85.742  56.738  1.00  0.00     0.177 HD
ENDBRANCH  21  26
BRANCH  22  29
HETATM   29  N8  UNL     1      64.721  88.175  60.943  1.00  0.00    -0.024 N 
HETATM   30  O1  UNL     1      65.573  88.525  61.788  1.00  0.00    -0.516 OA
HETATM   31  O2  UNL     1      63.370  88.435  61.140  1.00  0.00    -0.516 OA
ENDBRANCH  22  29
ENDBRANCH   2  19
TORSDOF 6
ENDMDL
