MODEL 1
REMARK VINA RESULT: -7.729252549      0.000      0.000
REMARK  7 active torsions:
REMARK  status: ('A' for Active; 'I' for Inactive)
REMARK    1  A    between atoms: N1_1  and  C1_4 
REMARK    2  A    between atoms: C2_7  and  C3_8 
REMARK    3  A    between atoms: C3_8  and  N3_9 
REMARK    4  A    between atoms: N3_9  and  N4_10 
REMARK    5  A    between atoms: N4_10  and  C4_12 
REMARK    6  A    between atoms: C7_19  and  N7_20 
REMARK    7  A    between atoms: N7_20  and  N8_22 
ROOT
HETATM    1  C1  UNL     1      68.626  81.101  62.872  1.00  0.00     0.680 C 
HETATM    2  N2  UNL     1      68.269  82.428  62.821  1.00  0.00    -0.191 N 
ATOM      3  H2  UNL     1      67.353  82.711  63.167  1.00  0.00     0.184 HD
HETATM    4  C2  UNL     1      69.121  83.382  62.313  1.00  0.00     0.088 C 
HETATM    5  C7  UNL     1      70.519  83.340  62.506  1.00  0.00     0.148 C 
HETATM    6  N9  UNL     1      71.388  82.335  62.452  1.00  0.00    -0.291 N 
ATOM      7  H9  UNL     1      72.376  82.562  62.340  1.00  0.00     0.172 HD
HETATM    8  C8  UNL     1      71.035  80.999  62.538  1.00  0.00     0.340 C 
HETATM    9  O1  UNL     1      72.009  80.266  62.485  1.00  0.00    -0.246 OA
HETATM   10  N10 UNL     1      69.784  80.467  62.639  1.00  0.00    -0.141 N 
ATOM     11  H10 UNL     1      69.721  79.455  62.523  1.00  0.00     0.189 HD
ENDROOT
BRANCH   4  12
HETATM   12  C3  UNL     1      68.626  84.476  61.458  1.00  0.00     0.196 C 
BRANCH  12  13
HETATM   13  N3  UNL     1      67.542  85.234  61.972  1.00  0.00    -0.134 NA
BRANCH  13  14
HETATM   14  N4  UNL     1      67.560  86.472  61.398  1.00  0.00    -0.288 N 
ATOM     15  H4  UNL     1      68.167  87.216  61.742  1.00  0.00     0.184 HD
BRANCH  14  16
HETATM   16  C4  UNL     1      66.672  86.674  60.276  1.00  0.00     0.132 A 
HETATM   17  C5  UNL     1      66.834  86.228  59.012  1.00  0.00     0.069 A 
HETATM   18  C6  UNL     1      65.739  86.646  58.273  1.00  0.00     0.111 A 
HETATM   19  N5  UNL     1      64.939  87.347  59.144  1.00  0.00    -0.310 N 
HETATM   20  N6  UNL     1      65.538  87.342  60.353  1.00  0.00    -0.285 N 
ATOM     21  H5  UNL     1      64.050  87.791  58.916  1.00  0.00     0.186 HD
ATOM     22  H6  UNL     1      65.171  87.785  61.195  1.00  0.00     0.188 HD
ENDBRANCH  14  16
ENDBRANCH  13  14
ENDBRANCH  12  13
ENDBRANCH   4  12
BRANCH   5  23
HETATM   23  N7  UNL     1      70.891  84.533  62.900  1.00  0.00    -0.290 N 
ATOM     24  H7  UNL     1      71.603  85.069  62.404  1.00  0.00     0.188 HD
BRANCH  23  25
HETATM   25  N8  UNL     1      70.250  85.027  64.045  1.00  0.00    -0.344 N 
ATOM     26  H82 UNL     1      69.737  85.909  64.024  1.00  0.00     0.176 HD
ATOM     27  H81 UNL     1      70.333  84.453  64.884  1.00  0.00     0.176 HD
ENDBRANCH  23  25
ENDBRANCH   5  23
BRANCH   1  28
HETATM   28  N1  UNL     1      67.668  80.281  63.180  1.00  0.00    -0.234 N 
ATOM     29  H12 UNL     1      66.929  80.733  63.719  1.00  0.00     0.174 HD
ATOM     30  H11 UNL     1      67.798  79.321  62.861  1.00  0.00     0.174 HD
ENDBRANCH   1  28
TORSDOF 7
ENDMDL
MODEL 2
REMARK VINA RESULT: -7.555454976      2.765      6.791
REMARK  7 active torsions:
REMARK  status: ('A' for Active; 'I' for Inactive)
REMARK    1  A    between atoms: N1_1  and  C1_4 
REMARK    2  A    between atoms: C2_7  and  C3_8 
REMARK    3  A    between atoms: C3_8  and  N3_9 
REMARK    4  A    between atoms: N3_9  and  N4_10 
REMARK    5  A    between atoms: N4_10  and  C4_12 
REMARK    6  A    between atoms: C7_19  and  N7_20 
REMARK    7  A    between atoms: N7_20  and  N8_22 
ROOT
HETATM    1  C1  UNL     1      67.607  85.099  59.921  1.00  0.00     0.680 C 
HETATM    2  N2  UNL     1      68.481  84.089  60.247  1.00  0.00    -0.191 N 
ATOM      3  H2  UNL     1      68.844  83.486  59.509  1.00  0.00     0.184 HD
HETATM    4  C2  UNL     1      68.877  83.873  61.548  1.00  0.00     0.088 C 
HETATM    5  C7  UNL     1      69.104  84.924  62.462  1.00  0.00     0.148 C 
HETATM    6  N9  UNL     1      68.429  86.043  62.706  1.00  0.00    -0.291 N 
ATOM      7  H9  UNL     1      68.598  86.521  63.591  1.00  0.00     0.172 HD
HETATM    8  C8  UNL     1      67.511  86.601  61.833  1.00  0.00     0.340 C 
HETATM    9  O1  UNL     1      67.040  87.639  62.269  1.00  0.00    -0.246 OA
HETATM   10  N10 UNL     1      67.096  86.116  60.629  1.00  0.00    -0.141 N 
ATOM     11  H10 UNL     1      66.292  86.587  60.213  1.00  0.00     0.189 HD
ENDROOT
BRANCH   4  12
HETATM   12  C3  UNL     1      69.011  82.509  62.092  1.00  0.00     0.196 C 
BRANCH  12  13
HETATM   13  N3  UNL     1      70.178  81.796  61.719  1.00  0.00    -0.134 NA
BRANCH  13  14
HETATM   14  N4  UNL     1      70.305  80.705  62.529  1.00  0.00    -0.288 N 
ATOM     15  H4  UNL     1      69.816  80.638  63.421  1.00  0.00     0.184 HD
BRANCH  14  16
HETATM   16  C4  UNL     1      71.170  79.649  62.056  1.00  0.00     0.132 A 
HETATM   17  C5  UNL     1      72.448  79.763  61.634  1.00  0.00     0.069 A 
HETATM   18  C6  UNL     1      72.890  78.498  61.281  1.00  0.00     0.111 A 
HETATM   19  N5  UNL     1      71.833  77.649  61.508  1.00  0.00    -0.310 N 
HETATM   20  N6  UNL     1      70.804  78.384  61.980  1.00  0.00    -0.285 N 
ATOM     21  H5  UNL     1      71.828  76.642  61.349  1.00  0.00     0.186 HD
ATOM     22  H6  UNL     1      69.888  78.019  62.238  1.00  0.00     0.188 HD
ENDBRANCH  14  16
ENDBRANCH  13  14
ENDBRANCH  12  13
ENDBRANCH   4  12
BRANCH   5  23
HETATM   23  N7  UNL     1      70.257  84.692  63.038  1.00  0.00    -0.290 N 
ATOM     24  H7  UNL     1      70.998  84.166  62.574  1.00  0.00     0.188 HD
BRANCH  23  25
HETATM   25  N8  UNL     1      70.412  85.212  64.331  1.00  0.00    -0.344 N 
ATOM     26  H82 UNL     1      70.458  84.598  65.145  1.00  0.00     0.176 HD
ATOM     27  H81 UNL     1      70.475  86.228  64.398  1.00  0.00     0.176 HD
ENDBRANCH  23  25
ENDBRANCH   5  23
BRANCH   1  28
HETATM   28  N1  UNL     1      67.158  85.071  58.703  1.00  0.00    -0.234 N 
ATOM     29  H12 UNL     1      66.935  84.124  58.394  1.00  0.00     0.174 HD
ATOM     30  H11 UNL     1      67.112  85.976  58.235  1.00  0.00     0.174 HD
ENDBRANCH   1  28
TORSDOF 7
ENDMDL
MODEL 3
REMARK VINA RESULT: -7.273656707      2.897      6.676
REMARK  7 active torsions:
REMARK  status: ('A' for Active; 'I' for Inactive)
REMARK    1  A    between atoms: N1_1  and  C1_4 
REMARK    2  A    between atoms: C2_7  and  C3_8 
REMARK    3  A    between atoms: C3_8  and  N3_9 
REMARK    4  A    between atoms: N3_9  and  N4_10 
REMARK    5  A    between atoms: N4_10  and  C4_12 
REMARK    6  A    between atoms: C7_19  and  N7_20 
REMARK    7  A    between atoms: N7_20  and  N8_22 
ROOT
HETATM    1  C1  UNL     1      64.822  87.971  60.257  1.00  0.00     0.680 C 
HETATM    2  N2  UNL     1      65.581  87.440  61.274  1.00  0.00    -0.191 N 
ATOM      3  H2  UNL     1      65.275  87.560  62.239  1.00  0.00     0.184 HD
HETATM    4  C2  UNL     1      66.745  86.751  61.017  1.00  0.00     0.088 C 
HETATM    5  C7  UNL     1      66.899  85.899  59.901  1.00  0.00     0.148 C 
HETATM    6  N9  UNL     1      66.534  86.036  58.630  1.00  0.00    -0.291 N 
ATOM      7  H9  UNL     1      66.988  85.442  57.936  1.00  0.00     0.172 HD
HETATM    8  C8  UNL     1      65.578  86.934  58.189  1.00  0.00     0.340 C 
HETATM    9  O1  UNL     1      65.401  86.858  56.984  1.00  0.00    -0.246 OA
HETATM   10  N10 UNL     1      64.886  87.850  58.924  1.00  0.00    -0.141 N 
ATOM     11  H10 UNL     1      64.346  88.533  58.390  1.00  0.00     0.189 HD
ENDROOT
BRANCH   4  12
HETATM   12  C3  UNL     1      67.941  86.925  61.860  1.00  0.00     0.196 C 
BRANCH  12  13
HETATM   13  N3  UNL     1      67.954  86.215  63.088  1.00  0.00    -0.134 NA
BRANCH  13  14
HETATM   14  N4  UNL     1      69.200  85.692  63.281  1.00  0.00    -0.288 N 
ATOM     15  H4  UNL     1      69.997  86.279  63.528  1.00  0.00     0.184 HD
BRANCH  14  16
HETATM   16  C4  UNL     1      69.330  84.263  63.117  1.00  0.00     0.132 A 
HETATM   17  C5  UNL     1      70.471  83.540  63.112  1.00  0.00     0.069 A 
HETATM   18  C6  UNL     1      70.127  82.209  62.934  1.00  0.00     0.111 A 
HETATM   19  N5  UNL     1      68.755  82.182  62.837  1.00  0.00    -0.310 N 
HETATM   20  N6  UNL     1      68.306  83.449  62.953  1.00  0.00    -0.285 N 
ATOM     21  H5  UNL     1      68.180  81.351  62.701  1.00  0.00     0.186 HD
ATOM     22  H6  UNL     1      67.327  83.733  62.920  1.00  0.00     0.188 HD
ENDBRANCH  14  16
ENDBRANCH  13  14
ENDBRANCH  12  13
ENDBRANCH   4  12
BRANCH   5  23
HETATM   23  N7  UNL     1      67.408  84.776  60.340  1.00  0.00    -0.290 N 
ATOM     24  H7  UNL     1      66.985  84.252  61.107  1.00  0.00     0.188 HD
BRANCH  23  25
HETATM   25  N8  UNL     1      68.571  84.336  59.692  1.00  0.00    -0.344 N 
ATOM     26  H82 UNL     1      69.194  84.993  59.221  1.00  0.00     0.176 HD
ATOM     27  H81 UNL     1      68.747  83.331  59.726  1.00  0.00     0.176 HD
ENDBRANCH  23  25
ENDBRANCH   5  23
BRANCH   1  28
HETATM   28  N1  UNL     1      63.867  88.765  60.636  1.00  0.00    -0.234 N 
ATOM     29  H12 UNL     1      63.053  88.256  60.981  1.00  0.00     0.174 HD
ATOM     30  H11 UNL     1      64.057  89.760  60.519  1.00  0.00     0.174 HD
ENDBRANCH   1  28
TORSDOF 7
ENDMDL
MODEL 4
REMARK VINA RESULT: -7.262614058      2.049      3.528
REMARK  7 active torsions:
REMARK  status: ('A' for Active; 'I' for Inactive)
REMARK    1  A    between atoms: N1_1  and  C1_4 
REMARK    2  A    between atoms: C2_7  and  C3_8 
REMARK    3  A    between atoms: C3_8  and  N3_9 
REMARK    4  A    between atoms: N3_9  and  N4_10 
REMARK    5  A    between atoms: N4_10  and  C4_12 
REMARK    6  A    between atoms: C7_19  and  N7_20 
REMARK    7  A    between atoms: N7_20  and  N8_22 
ROOT
HETATM    1  C1  UNL     1      69.530  85.125  63.405  1.00  0.00     0.680 C 
HETATM    2  N2  UNL     1      68.971  86.159  62.692  1.00  0.00    -0.191 N 
ATOM      3  H2  UNL     1      69.217  87.119  62.932  1.00  0.00     0.184 HD
HETATM    4  C2  UNL     1      68.087  85.927  61.663  1.00  0.00     0.088 C 
HETATM    5  C7  UNL     1      68.217  84.839  60.773  1.00  0.00     0.148 C 
HETATM    6  N9  UNL     1      68.529  83.563  60.981  1.00  0.00    -0.291 N 
ATOM      7  H9  UNL     1      68.291  82.888  60.253  1.00  0.00     0.172 HD
HETATM    8  C8  UNL     1      69.155  83.092  62.121  1.00  0.00     0.340 C 
HETATM    9  O1  UNL     1      69.355  81.889  62.068  1.00  0.00    -0.246 OA
HETATM   10  N10 UNL     1      69.517  83.796  63.231  1.00  0.00    -0.141 N 
ATOM     11  H10 UNL     1      69.816  83.240  64.032  1.00  0.00     0.189 HD
ENDROOT
BRANCH   4  12
HETATM   12  C3  UNL     1      66.890  86.768  61.475  1.00  0.00     0.196 C 
BRANCH  12  13
HETATM   13  N3  UNL     1      66.034  86.411  60.403  1.00  0.00    -0.134 NA
BRANCH  13  14
HETATM   14  N4  UNL     1      65.284  87.498  60.058  1.00  0.00    -0.288 N 
ATOM     15  H4  UNL     1      64.902  88.132  60.760  1.00  0.00     0.184 HD
BRANCH  14  16
HETATM   16  C4  UNL     1      65.060  87.704  58.646  1.00  0.00     0.132 A 
HETATM   17  C5  UNL     1      65.668  87.071  57.619  1.00  0.00     0.069 A 
HETATM   18  C6  UNL     1      65.141  87.576  56.441  1.00  0.00     0.111 A 
HETATM   19  N5  UNL     1      64.211  88.517  56.813  1.00  0.00    -0.310 N 
HETATM   20  N6  UNL     1      64.189  88.567  58.162  1.00  0.00    -0.285 N 
ATOM     21  H5  UNL     1      63.640  89.079  56.183  1.00  0.00     0.186 HD
ATOM     22  H6  UNL     1      63.592  89.177  58.720  1.00  0.00     0.188 HD
ENDBRANCH  14  16
ENDBRANCH  13  14
ENDBRANCH  12  13
ENDBRANCH   4  12
BRANCH   5  23
HETATM   23  N7  UNL     1      68.086  85.313  59.560  1.00  0.00    -0.290 N 
ATOM     24  H7  UNL     1      68.482  86.212  59.285  1.00  0.00     0.188 HD
BRANCH  23  25
HETATM   25  N8  UNL     1      67.368  84.511  58.662  1.00  0.00    -0.344 N 
ATOM     26  H82 UNL     1      67.037  83.584  58.931  1.00  0.00     0.176 HD
ATOM     27  H81 UNL     1      67.205  84.912  57.739  1.00  0.00     0.176 HD
ENDBRANCH  23  25
ENDBRANCH   5  23
BRANCH   1  28
HETATM   28  N1  UNL     1      70.182  85.476  64.472  1.00  0.00    -0.234 N 
ATOM     29  H12 UNL     1      69.860  84.981  65.304  1.00  0.00     0.174 HD
ATOM     30  H11 UNL     1      70.891  86.196  64.331  1.00  0.00     0.174 HD
ENDBRANCH   1  28
TORSDOF 7
ENDMDL
MODEL 5
REMARK VINA RESULT: -6.965982635      3.364      5.720
REMARK  7 active torsions:
REMARK  status: ('A' for Active; 'I' for Inactive)
REMARK    1  A    between atoms: N1_1  and  C1_4 
REMARK    2  A    between atoms: C2_7  and  C3_8 
REMARK    3  A    between atoms: C3_8  and  N3_9 
REMARK    4  A    between atoms: N3_9  and  N4_10 
REMARK    5  A    between atoms: N4_10  and  C4_12 
REMARK    6  A    between atoms: C7_19  and  N7_20 
REMARK    7  A    between atoms: N7_20  and  N8_22 
ROOT
HETATM    1  C1  UNL     1      68.085  84.691  60.197  1.00  0.00     0.680 C 
HETATM    2  N2  UNL     1      67.224  85.056  59.189  1.00  0.00    -0.191 N 
ATOM      3  H2  UNL     1      67.035  84.399  58.432  1.00  0.00     0.184 HD
HETATM    4  C2  UNL     1      66.610  86.288  59.179  1.00  0.00     0.088 C 
HETATM    5  C7  UNL     1      66.161  86.928  60.355  1.00  0.00     0.148 C 
HETATM    6  N9  UNL     1      66.718  87.059  61.555  1.00  0.00    -0.291 N 
ATOM      7  H9  UNL     1      66.364  87.793  62.169  1.00  0.00     0.172 HD
HETATM    8  C8  UNL     1      67.747  86.262  62.025  1.00  0.00     0.340 C 
HETATM    9  O1  UNL     1      68.073  86.560  63.162  1.00  0.00    -0.246 OA
HETATM   10  N10 UNL     1      68.402  85.263  61.367  1.00  0.00    -0.141 N 
ATOM     11  H10 UNL     1      69.241  84.905  61.824  1.00  0.00     0.189 HD
ENDROOT
BRANCH   4  12
HETATM   12  C3  UNL     1      66.454  87.057  57.931  1.00  0.00     0.196 C 
BRANCH  12  13
HETATM   13  N3  UNL     1      65.303  86.768  57.154  1.00  0.00    -0.134 NA
BRANCH  13  14
HETATM   14  N4  UNL     1      65.173  87.724  56.189  1.00  0.00    -0.288 N 
ATOM     15  H4  UNL     1      65.982  88.112  55.704  1.00  0.00     0.184 HD
BRANCH  14  16
HETATM   16  C4  UNL     1      63.827  88.156  55.888  1.00  0.00     0.132 A 
HETATM   17  C5  UNL     1      63.235  88.209  54.675  1.00  0.00     0.069 A 
HETATM   18  C6  UNL     1      61.943  88.675  54.857  1.00  0.00     0.111 A 
HETATM   19  N5  UNL     1      61.803  88.889  56.207  1.00  0.00    -0.310 N 
HETATM   20  N6  UNL     1      62.969  88.562  56.803  1.00  0.00    -0.285 N 
ATOM     21  H5  UNL     1      60.966  89.235  56.676  1.00  0.00     0.186 HD
ATOM     22  H6  UNL     1      63.157  88.620  57.803  1.00  0.00     0.188 HD
ENDBRANCH  14  16
ENDBRANCH  13  14
ENDBRANCH  12  13
ENDBRANCH   4  12
BRANCH   5  23
HETATM   23  N7  UNL     1      64.937  87.335  60.130  1.00  0.00    -0.290 N 
ATOM     24  H7  UNL     1      64.351  86.915  59.409  1.00  0.00     0.188 HD
BRANCH  23  25
HETATM   25  N8  UNL     1      64.481  88.383  60.942  1.00  0.00    -0.344 N 
ATOM     26  H82 UNL     1      65.126  89.081  61.315  1.00  0.00     0.176 HD
ATOM     27  H81 UNL     1      63.478  88.399  61.128  1.00  0.00     0.176 HD
ENDBRANCH  23  25
ENDBRANCH   5  23
BRANCH   1  28
HETATM   28  N1  UNL     1      68.750  83.595  59.987  1.00  0.00    -0.234 N 
ATOM     29  H12 UNL     1      68.184  82.879  59.531  1.00  0.00     0.174 HD
ATOM     30  H11 UNL     1      69.715  83.602  60.318  1.00  0.00     0.174 HD
ENDBRANCH   1  28
TORSDOF 7
ENDMDL
