MODEL 1
REMARK VINA RESULT: -8.151869476      0.000      0.000
REMARK  9 active torsions:
REMARK  status: ('A' for Active; 'I' for Inactive)
REMARK    1  A    between atoms: N1_1  and  C1_4 
REMARK    2  A    between atoms: C3_8  and  N3_9 
REMARK    3  A    between atoms: N3_9  and  N4_11 
REMARK    4  A    between atoms: N4_11  and  O1_12 
REMARK    5  A    between atoms: N5_14  and  O2_16 
REMARK    6  A    between atoms: O2_16  and  C4_17 
REMARK    7  A    between atoms: C4_17  and  C5_19 
REMARK       I    between atoms: C5_19  and  N6_21 
REMARK    8  A    between atoms: N6_21  and  N7_23 
REMARK    9  A    between atoms: N7_23  and  N8_24 
ROOT
HETATM    1  N4  UNL     1      68.216  85.800  63.167  1.00  0.00    -0.074 N 
HETATM    2  N5  UNL     1      67.579  86.435  62.270  1.00  0.00    -0.156 N 
ATOM      3  H5  UNL     1      66.712  86.899  62.542  1.00  0.00     0.221 HD
ENDROOT
BRANCH   1   4
HETATM    4  N3  UNL     1      69.399  85.129  62.932  1.00  0.00    -0.255 N 
ATOM      5  H3  UNL     1      70.224  85.695  62.737  1.00  0.00     0.191 HD
BRANCH   4   6
HETATM    6  C3  UNL     1      69.566  83.740  62.938  1.00  0.00     0.084 A 
HETATM    7  C2  UNL     1      68.495  82.909  62.688  1.00  0.00     0.138 A 
HETATM    8  N2  UNL     1      68.634  81.554  62.688  1.00  0.00    -0.200 N 
HETATM    9  C1  UNL     1      69.846  80.999  62.940  1.00  0.00     0.675 A 
ATOM     10  H2  UNL     1      67.829  80.957  62.499  1.00  0.00     0.183 HD
HETATM   11  N9  UNL     1      70.896  81.777  63.184  1.00  0.00    -0.200 N 
HETATM   12  C6  UNL     1      70.776  83.126  63.187  1.00  0.00     0.138 A 
ATOM     13  H9  UNL     1      71.804  81.353  63.372  1.00  0.00     0.183 HD
BRANCH   9  14
HETATM   14  N1  UNL     1      69.888  79.712  62.921  1.00  0.00    -0.234 N 
ATOM     15  H12 UNL     1      70.464  79.166  62.280  1.00  0.00     0.174 HD
ATOM     16  H11 UNL     1      69.295  79.238  63.603  1.00  0.00     0.174 HD
ENDBRANCH   9  14
ENDBRANCH   4   6
ENDBRANCH   1   4
BRANCH   1  17
HETATM   17  O1  UNL     1      67.618  85.832  64.429  1.00  0.00    -0.252 OA
ATOM     18  H1  UNL     1      67.557  86.631  64.939  1.00  0.00     0.248 HD
ENDBRANCH   1  17
BRANCH   2  19
HETATM   19  O2  UNL     1      67.973  86.539  60.962  1.00  0.00    -0.172 OA
BRANCH  19  20
HETATM   20  C4  UNL     1      67.208  85.893  59.976  1.00  0.00     0.375 C 
HETATM   21  O3  UNL     1      67.543  84.734  59.616  1.00  0.00    -0.252 OA
BRANCH  20  22
HETATM   22  C5  UNL     1      66.056  86.522  59.371  1.00  0.00     0.335 C 
HETATM   23  O4  UNL     1      65.178  87.027  60.104  1.00  0.00    -0.260 OA
HETATM   24  N6  UNL     1      65.928  86.563  57.972  1.00  0.00    -0.245 N 
ATOM     25  H6  UNL     1      66.663  86.142  57.405  1.00  0.00     0.187 HD
BRANCH  24  26
HETATM   26  N7  UNL     1      64.837  87.157  57.318  1.00  0.00    -0.027 NA
BRANCH  26  27
HETATM   27  N8  UNL     1      64.631  88.471  57.755  1.00  0.00    -0.329 N 
ATOM     28  H82 UNL     1      64.006  88.716  58.522  1.00  0.00     0.174 HD
ATOM     29  H81 UNL     1      65.181  89.135  57.212  1.00  0.00     0.174 HD
ENDBRANCH  26  27
ENDBRANCH  24  26
ENDBRANCH  20  22
ENDBRANCH  19  20
ENDBRANCH   2  19
TORSDOF 9
ENDMDL
MODEL 2
REMARK VINA RESULT: -8.075918136      3.110      6.940
REMARK  9 active torsions:
REMARK  status: ('A' for Active; 'I' for Inactive)
REMARK    1  A    between atoms: N1_1  and  C1_4 
REMARK    2  A    between atoms: C3_8  and  N3_9 
REMARK    3  A    between atoms: N3_9  and  N4_11 
REMARK    4  A    between atoms: N4_11  and  O1_12 
REMARK    5  A    between atoms: N5_14  and  O2_16 
REMARK    6  A    between atoms: O2_16  and  C4_17 
REMARK    7  A    between atoms: C4_17  and  C5_19 
REMARK       I    between atoms: C5_19  and  N6_21 
REMARK    8  A    between atoms: N6_21  and  N7_23 
REMARK    9  A    between atoms: N7_23  and  N8_24 
ROOT
HETATM    1  N4  UNL     1      70.498  83.628  63.276  1.00  0.00    -0.074 N 
HETATM    2  N5  UNL     1      70.605  82.379  63.483  1.00  0.00    -0.156 N 
ATOM      3  H5  UNL     1      71.543  81.976  63.477  1.00  0.00     0.221 HD
ENDROOT
BRANCH   1   4
HETATM    4  N3  UNL     1      69.291  84.297  63.257  1.00  0.00    -0.255 N 
ATOM      5  H3  UNL     1      68.835  84.458  64.155  1.00  0.00     0.191 HD
BRANCH   4   6
HETATM    6  C3  UNL     1      68.638  84.773  62.116  1.00  0.00     0.084 A 
HETATM    7  C2  UNL     1      67.835  85.891  62.187  1.00  0.00     0.138 A 
HETATM    8  N2  UNL     1      67.190  86.373  61.089  1.00  0.00    -0.200 N 
HETATM    9  C1  UNL     1      67.332  85.747  59.894  1.00  0.00     0.675 A 
ATOM     10  H2  UNL     1      66.602  87.203  61.164  1.00  0.00     0.183 HD
HETATM   11  N9  UNL     1      68.100  84.666  59.796  1.00  0.00    -0.200 N 
HETATM   12  C6  UNL     1      68.749  84.174  60.878  1.00  0.00     0.138 A 
ATOM     13  H9  UNL     1      68.202  84.201  58.894  1.00  0.00     0.183 HD
BRANCH   9  14
HETATM   14  N1  UNL     1      66.687  86.269  58.909  1.00  0.00    -0.234 N 
ATOM     15  H12 UNL     1      66.591  87.273  58.753  1.00  0.00     0.174 HD
ATOM     16  H11 UNL     1      66.255  85.609  58.261  1.00  0.00     0.174 HD
ENDBRANCH   9  14
ENDBRANCH   4   6
ENDBRANCH   1   4
BRANCH   1  17
HETATM   17  O1  UNL     1      71.713  84.283  63.065  1.00  0.00    -0.252 OA
ATOM     18  H1  UNL     1      72.299  84.503  63.780  1.00  0.00     0.248 HD
ENDBRANCH   1  17
BRANCH   2  19
HETATM   19  O2  UNL     1      69.551  81.535  63.712  1.00  0.00    -0.172 OA
BRANCH  19  20
HETATM   20  C4  UNL     1      69.311  80.495  62.797  1.00  0.00     0.375 C 
HETATM   21  O3  UNL     1      68.166  79.972  62.765  1.00  0.00    -0.252 OA
BRANCH  20  22
HETATM   22  C5  UNL     1      70.339  80.018  61.899  1.00  0.00     0.335 C 
HETATM   23  O4  UNL     1      70.946  80.835  61.173  1.00  0.00    -0.260 OA
HETATM   24  N6  UNL     1      70.648  78.649  61.846  1.00  0.00    -0.245 N 
ATOM     25  H6  UNL     1      70.133  78.011  62.453  1.00  0.00     0.187 HD
BRANCH  24  26
HETATM   26  N7  UNL     1      71.632  78.116  60.999  1.00  0.00    -0.027 NA
BRANCH  26  27
HETATM   27  N8  UNL     1      72.911  78.562  61.356  1.00  0.00    -0.329 N 
ATOM     28  H82 UNL     1      73.162  78.850  62.301  1.00  0.00     0.174 HD
ATOM     29  H81 UNL     1      73.543  78.560  60.556  1.00  0.00     0.174 HD
ENDBRANCH  26  27
ENDBRANCH  24  26
ENDBRANCH  20  22
ENDBRANCH  19  20
ENDBRANCH   2  19
TORSDOF 9
ENDMDL
MODEL 3
REMARK VINA RESULT: -7.941936369      3.120      6.995
REMARK  9 active torsions:
REMARK  status: ('A' for Active; 'I' for Inactive)
REMARK    1  A    between atoms: N1_1  and  C1_4 
REMARK    2  A    between atoms: C3_8  and  N3_9 
REMARK    3  A    between atoms: N3_9  and  N4_11 
REMARK    4  A    between atoms: N4_11  and  O1_12 
REMARK    5  A    between atoms: N5_14  and  O2_16 
REMARK    6  A    between atoms: O2_16  and  C4_17 
REMARK    7  A    between atoms: C4_17  and  C5_19 
REMARK       I    between atoms: C5_19  and  N6_21 
REMARK    8  A    between atoms: N6_21  and  N7_23 
REMARK    9  A    between atoms: N7_23  and  N8_24 
ROOT
HETATM    1  N4  UNL     1      70.473  83.642  63.351  1.00  0.00    -0.074 N 
HETATM    2  N5  UNL     1      70.573  82.386  63.516  1.00  0.00    -0.156 N 
ATOM      3  H5  UNL     1      71.507  81.977  63.482  1.00  0.00     0.221 HD
ENDROOT
BRANCH   1   4
HETATM    4  N3  UNL     1      69.270  84.320  63.374  1.00  0.00    -0.255 N 
ATOM      5  H3  UNL     1      68.833  84.461  64.284  1.00  0.00     0.191 HD
BRANCH   4   6
HETATM    6  C3  UNL     1      68.598  84.829  62.258  1.00  0.00     0.084 A 
HETATM    7  C2  UNL     1      68.689  84.192  61.039  1.00  0.00     0.138 A 
HETATM    8  N2  UNL     1      68.044  84.670  59.939  1.00  0.00    -0.200 N 
HETATM    9  C1  UNL     1      67.294  85.796  60.032  1.00  0.00     0.675 A 
ATOM     10  H2  UNL     1      68.123  84.181  59.047  1.00  0.00     0.183 HD
HETATM   11  N9  UNL     1      67.189  86.431  61.195  1.00  0.00    -0.200 N 
HETATM   12  C6  UNL     1      67.823  85.970  62.299  1.00  0.00     0.138 A 
ATOM     13  H9  UNL     1      66.623  87.278  61.257  1.00  0.00     0.183 HD
BRANCH   9  14
HETATM   14  N1  UNL     1      66.719  86.177  58.944  1.00  0.00    -0.234 N 
ATOM     15  H12 UNL     1      67.215  86.396  58.079  1.00  0.00     0.174 HD
ATOM     16  H11 UNL     1      65.703  86.255  58.983  1.00  0.00     0.174 HD
ENDBRANCH   9  14
ENDBRANCH   4   6
ENDBRANCH   1   4
BRANCH   1  17
HETATM   17  O1  UNL     1      71.689  84.294  63.141  1.00  0.00    -0.252 OA
ATOM     18  H1  UNL     1      72.501  83.819  63.010  1.00  0.00     0.248 HD
ENDBRANCH   1  17
BRANCH   2  19
HETATM   19  O2  UNL     1      69.516  81.543  63.737  1.00  0.00    -0.172 OA
BRANCH  19  20
HETATM   20  C4  UNL     1      69.304  80.483  62.838  1.00  0.00     0.375 C 
HETATM   21  O3  UNL     1      68.154  79.974  62.766  1.00  0.00    -0.252 OA
BRANCH  20  22
HETATM   22  C5  UNL     1      70.365  79.969  62.001  1.00  0.00     0.335 C 
HETATM   23  O4  UNL     1      71.001  80.756  61.266  1.00  0.00    -0.260 OA
HETATM   24  N6  UNL     1      70.674  78.599  62.016  1.00  0.00    -0.245 N 
ATOM     25  H6  UNL     1      70.134  77.987  62.628  1.00  0.00     0.187 HD
BRANCH  24  26
HETATM   26  N7  UNL     1      71.689  78.031  61.231  1.00  0.00    -0.027 NA
BRANCH  26  27
HETATM   27  N8  UNL     1      72.952  78.502  61.610  1.00  0.00    -0.329 N 
ATOM     28  H82 UNL     1      73.105  79.126  62.401  1.00  0.00     0.174 HD
ATOM     29  H81 UNL     1      73.683  78.141  60.997  1.00  0.00     0.174 HD
ENDBRANCH  26  27
ENDBRANCH  24  26
ENDBRANCH  20  22
ENDBRANCH  19  20
ENDBRANCH   2  19
TORSDOF 9
ENDMDL
MODEL 4
REMARK VINA RESULT: -7.879873966      2.967      7.193
REMARK  9 active torsions:
REMARK  status: ('A' for Active; 'I' for Inactive)
REMARK    1  A    between atoms: N1_1  and  C1_4 
REMARK    2  A    between atoms: C3_8  and  N3_9 
REMARK    3  A    between atoms: N3_9  and  N4_11 
REMARK    4  A    between atoms: N4_11  and  O1_12 
REMARK    5  A    between atoms: N5_14  and  O2_16 
REMARK    6  A    between atoms: O2_16  and  C4_17 
REMARK    7  A    between atoms: C4_17  and  C5_19 
REMARK       I    between atoms: C5_19  and  N6_21 
REMARK    8  A    between atoms: N6_21  and  N7_23 
REMARK    9  A    between atoms: N7_23  and  N8_24 
ROOT
HETATM    1  N4  UNL     1      70.213  84.023  63.284  1.00  0.00    -0.074 N 
HETATM    2  N5  UNL     1      71.022  83.219  62.725  1.00  0.00    -0.156 N 
ATOM      3  H5  UNL     1      72.001  83.258  63.009  1.00  0.00     0.221 HD
ENDROOT
BRANCH   1   4
HETATM    4  N3  UNL     1      68.865  84.075  62.991  1.00  0.00    -0.255 N 
ATOM      5  H3  UNL     1      68.235  83.566  63.611  1.00  0.00     0.191 HD
BRANCH   4   6
HETATM    6  C3  UNL     1      68.287  84.764  61.920  1.00  0.00     0.084 A 
HETATM    7  C2  UNL     1      68.417  84.286  60.634  1.00  0.00     0.138 A 
HETATM    8  N2  UNL     1      67.862  84.940  59.575  1.00  0.00    -0.200 N 
HETATM    9  C1  UNL     1      67.168  86.087  59.779  1.00  0.00     0.675 A 
ATOM     10  H2  UNL     1      67.969  84.568  58.632  1.00  0.00     0.183 HD
HETATM   11  N9  UNL     1      67.027  86.571  61.009  1.00  0.00    -0.200 N 
HETATM   12  C6  UNL     1      67.571  85.934  62.073  1.00  0.00     0.138 A 
ATOM     13  H9  UNL     1      66.503  87.434  61.154  1.00  0.00     0.183 HD
BRANCH   9  14
HETATM   14  N1  UNL     1      66.678  86.640  58.723  1.00  0.00    -0.234 N 
ATOM     15  H12 UNL     1      67.187  87.296  58.131  1.00  0.00     0.174 HD
ATOM     16  H11 UNL     1      65.718  86.384  58.493  1.00  0.00     0.174 HD
ENDBRANCH   9  14
ENDBRANCH   4   6
ENDBRANCH   1   4
BRANCH   1  17
HETATM   17  O1  UNL     1      70.800  84.865  64.231  1.00  0.00    -0.252 OA
ATOM     18  H1  UNL     1      71.507  84.575  64.796  1.00  0.00     0.248 HD
ENDBRANCH   1  17
BRANCH   2  19
HETATM   19  O2  UNL     1      70.673  82.304  61.767  1.00  0.00    -0.172 OA
BRANCH  19  20
HETATM   20  C4  UNL     1      70.228  81.036  62.179  1.00  0.00     0.375 C 
HETATM   21  O3  UNL     1      69.023  80.901  62.520  1.00  0.00    -0.252 OA
BRANCH  20  22
HETATM   22  C5  UNL     1      71.113  79.894  62.220  1.00  0.00     0.335 C 
HETATM   23  O4  UNL     1      72.350  80.078  62.250  1.00  0.00    -0.260 OA
HETATM   24  N6  UNL     1      70.585  78.592  62.224  1.00  0.00    -0.245 N 
ATOM     25  H6  UNL     1      69.572  78.480  62.199  1.00  0.00     0.187 HD
BRANCH  24  26
HETATM   26  N7  UNL     1      71.384  77.439  62.262  1.00  0.00    -0.027 NA
BRANCH  26  27
HETATM   27  N8  UNL     1      72.232  77.367  61.151  1.00  0.00    -0.329 N 
ATOM     28  H82 UNL     1      72.047  76.776  60.341  1.00  0.00     0.174 HD
ATOM     29  H81 UNL     1      73.043  77.975  61.260  1.00  0.00     0.174 HD
ENDBRANCH  26  27
ENDBRANCH  24  26
ENDBRANCH  20  22
ENDBRANCH  19  20
ENDBRANCH   2  19
TORSDOF 9
ENDMDL
MODEL 5
REMARK VINA RESULT: -7.849016047      2.945      7.151
REMARK  9 active torsions:
REMARK  status: ('A' for Active; 'I' for Inactive)
REMARK    1  A    between atoms: N1_1  and  C1_4 
REMARK    2  A    between atoms: C3_8  and  N3_9 
REMARK    3  A    between atoms: N3_9  and  N4_11 
REMARK    4  A    between atoms: N4_11  and  O1_12 
REMARK    5  A    between atoms: N5_14  and  O2_16 
REMARK    6  A    between atoms: O2_16  and  C4_17 
REMARK    7  A    between atoms: C4_17  and  C5_19 
REMARK       I    between atoms: C5_19  and  N6_21 
REMARK    8  A    between atoms: N6_21  and  N7_23 
REMARK    9  A    between atoms: N7_23  and  N8_24 
ROOT
HETATM    1  N4  UNL     1      70.175  84.089  63.314  1.00  0.00    -0.074 N 
HETATM    2  N5  UNL     1      70.984  83.275  62.769  1.00  0.00    -0.156 N 
ATOM      3  H5  UNL     1      71.960  83.307  63.066  1.00  0.00     0.221 HD
ENDROOT
BRANCH   1   4
HETATM    4  N3  UNL     1      68.831  84.151  63.003  1.00  0.00    -0.255 N 
ATOM      5  H3  UNL     1      68.182  83.706  63.652  1.00  0.00     0.191 HD
BRANCH   4   6
HETATM    6  C3  UNL     1      68.281  84.771  61.876  1.00  0.00     0.084 A 
HETATM    7  C2  UNL     1      67.540  85.926  62.008  1.00  0.00     0.138 A 
HETATM    8  N2  UNL     1      66.995  86.547  60.925  1.00  0.00    -0.200 N 
HETATM    9  C1  UNL     1      67.178  86.027  59.686  1.00  0.00     0.675 A 
ATOM     10  H2  UNL     1      66.452  87.401  61.045  1.00  0.00     0.183 HD
HETATM   11  N9  UNL     1      67.888  84.913  59.529  1.00  0.00    -0.200 N 
HETATM   12  C6  UNL     1      68.438  84.283  60.594  1.00  0.00     0.138 A 
ATOM     13  H9  UNL     1      68.021  84.528  58.594  1.00  0.00     0.183 HD
BRANCH   9  14
HETATM   14  N1  UNL     1      66.628  86.677  58.719  1.00  0.00    -0.234 N 
ATOM     15  H12 UNL     1      65.662  87.004  58.725  1.00  0.00     0.174 HD
ATOM     16  H11 UNL     1      67.224  86.859  57.911  1.00  0.00     0.174 HD
ENDBRANCH   9  14
ENDBRANCH   4   6
ENDBRANCH   1   4
BRANCH   1  17
HETATM   17  O1  UNL     1      70.756  84.929  64.266  1.00  0.00    -0.252 OA
ATOM     18  H1  UNL     1      70.797  84.698  65.186  1.00  0.00     0.248 HD
ENDBRANCH   1  17
BRANCH   2  19
HETATM   19  O2  UNL     1      70.640  82.360  61.810  1.00  0.00    -0.172 OA
BRANCH  19  20
HETATM   20  C4  UNL     1      70.205  81.088  62.221  1.00  0.00     0.375 C 
HETATM   21  O3  UNL     1      69.009  80.948  62.588  1.00  0.00    -0.252 OA
BRANCH  20  22
HETATM   22  C5  UNL     1      71.092  79.946  62.231  1.00  0.00     0.335 C 
HETATM   23  O4  UNL     1      72.329  80.131  62.249  1.00  0.00    -0.260 OA
HETATM   24  N6  UNL     1      70.566  78.644  62.221  1.00  0.00    -0.245 N 
ATOM     25  H6  UNL     1      69.552  78.530  62.207  1.00  0.00     0.187 HD
BRANCH  24  26
HETATM   26  N7  UNL     1      71.366  77.491  62.230  1.00  0.00    -0.027 NA
BRANCH  26  27
HETATM   27  N8  UNL     1      72.175  77.421  61.089  1.00  0.00    -0.329 N 
ATOM     28  H82 UNL     1      72.990  78.017  60.941  1.00  0.00     0.174 HD
ATOM     29  H81 UNL     1      71.845  76.707  60.441  1.00  0.00     0.174 HD
ENDBRANCH  26  27
ENDBRANCH  24  26
ENDBRANCH  20  22
ENDBRANCH  19  20
ENDBRANCH   2  19
TORSDOF 9
ENDMDL
