MODEL 1
REMARK VINA RESULT: -6.419029250      0.000      0.000
REMARK  4 active torsions:
REMARK  status: ('A' for Active; 'I' for Inactive)
REMARK       I    between atoms: C2_2  and  N1_4 
REMARK    1  A    between atoms: N1_4  and  N2_5 
REMARK    2  A    between atoms: N2_5  and  N3_6 
REMARK    3  A    between atoms: C4_12  and  N5_13 
REMARK    4  A    between atoms: C6_20  and  N7_21 
REMARK       I    between atoms: N8_23  and  C7_25 
REMARK       I    between atoms: C7_25  and  N9_26 
REMARK       I    between atoms: C7_25  and  N10_30 
ROOT
HETATM    1  N2  UNL     1      72.541  77.640  60.709  1.00  0.00    -0.113 N 
HETATM    2  C3  UNL     1      73.086  76.483  60.345  1.00  0.00     0.206 A 
HETATM    3  N4  UNL     1      72.691  75.968  59.079  1.00  0.00    -0.170 N 
ATOM      4  H4  UNL     1      71.967  76.425  58.524  1.00  0.00     0.186 HD
HETATM    5  C4  UNL     1      73.302  74.866  58.645  1.00  0.00     0.680 A 
HETATM    6  N6  UNL     1      74.263  74.197  59.283  1.00  0.00    -0.154 N 
ATOM      7  H6  UNL     1      74.685  73.361  58.880  1.00  0.00     0.187 HD
HETATM    8  C5  UNL     1      74.659  74.681  60.508  1.00  0.00     0.291 A 
HETATM    9  O2  UNL     1      75.548  74.084  61.107  1.00  0.00    -0.265 OA
HETATM   10  C6  UNL     1      74.039  75.826  61.002  1.00  0.00     0.166 A 
ENDROOT
BRANCH  10  11
HETATM   11  N7  UNL     1      74.398  76.158  62.340  1.00  0.00    -0.293 N 
HETATM   12  N8  UNL     1      73.917  75.469  63.219  1.00  0.00    -0.283 N 
HETATM   13  C7  UNL     1      73.785  75.169  64.570  1.00  0.00     0.494 C 
ATOM     14  H8  UNL     1      73.332  74.788  62.735  1.00  0.00     0.184 HD
HETATM   15  N9  UNL     1      73.835  73.693  64.841  1.00  0.00    -0.032 N 
HETATM   16  N10 UNL     1      72.488  75.552  65.036  1.00  0.00    -0.032 N 
ATOM     17  H93 UNL     1      73.140  73.194  64.286  1.00  0.00     0.279 HD
ATOM     18  H92 UNL     1      74.683  73.278  64.455  1.00  0.00     0.279 HD
ATOM     19  H91 UNL     1      73.739  73.473  65.833  1.00  0.00     0.279 HD
ATOM     20 3H10 UNL     1      72.287  76.534  64.842  1.00  0.00     0.279 HD
ATOM     21 2H10 UNL     1      71.743  75.134  64.478  1.00  0.00     0.279 HD
ATOM     22 1H10 UNL     1      72.392  75.332  66.027  1.00  0.00     0.279 HD
ATOM     23  H7  UNL     1      75.026  76.933  62.550  1.00  0.00     0.187 HD
ENDBRANCH  10  11
BRANCH   1  24
HETATM   24  N1  UNL     1      71.680  78.419  61.185  1.00  0.00    -0.263 NA
HETATM   25  C2  UNL     1      70.685  79.283  61.723  1.00  0.00     0.311 C 
HETATM   26  C1  UNL     1      71.094  80.745  61.871  1.00  0.00     0.137 C 
HETATM   27  O1  UNL     1      69.604  78.983  62.047  1.00  0.00    -0.256 OA
ENDBRANCH   1  24
BRANCH   1  28
HETATM   28  N3  UNL     1      73.754  78.668  60.401  1.00  0.00    -0.312 N 
ATOM     29  H32 UNL     1      73.757  79.230  61.252  1.00  0.00     0.179 HD
ATOM     30  H31 UNL     1      74.022  78.378  59.461  1.00  0.00     0.179 HD
ENDBRANCH   1  28
BRANCH   5  31
HETATM   31  N5  UNL     1      72.878  74.380  57.494  1.00  0.00    -0.234 N 
ATOM     32  H52 UNL     1      71.966  74.688  57.159  1.00  0.00     0.174 HD
ATOM     33  H51 UNL     1      73.517  73.752  57.007  1.00  0.00     0.174 HD
ENDBRANCH   5  31
TORSDOF 4
ENDMDL
MODEL 2
REMARK VINA RESULT: -6.084596508      2.059      4.356
REMARK  4 active torsions:
REMARK  status: ('A' for Active; 'I' for Inactive)
REMARK       I    between atoms: C2_2  and  N1_4 
REMARK    1  A    between atoms: N1_4  and  N2_5 
REMARK    2  A    between atoms: N2_5  and  N3_6 
REMARK    3  A    between atoms: C4_12  and  N5_13 
REMARK    4  A    between atoms: C6_20  and  N7_21 
REMARK       I    between atoms: N8_23  and  C7_25 
REMARK       I    between atoms: C7_25  and  N9_26 
REMARK       I    between atoms: C7_25  and  N10_30 
ROOT
HETATM    1  N2  UNL     1      72.423  77.627  61.941  1.00  0.00    -0.113 N 
HETATM    2  C3  UNL     1      73.493  76.953  62.353  1.00  0.00     0.206 A 
HETATM    3  N4  UNL     1      73.267  75.941  63.326  1.00  0.00    -0.170 N 
ATOM      4  H4  UNL     1      72.346  75.802  63.741  1.00  0.00     0.186 HD
HETATM    5  C4  UNL     1      74.304  75.181  63.677  1.00  0.00     0.680 A 
HETATM    6  N6  UNL     1      75.544  75.273  63.194  1.00  0.00    -0.154 N 
ATOM      7  H6  UNL     1      76.285  74.648  63.512  1.00  0.00     0.187 HD
HETATM    8  C5  UNL     1      75.781  76.244  62.250  1.00  0.00     0.291 A 
HETATM    9  O2  UNL     1      76.913  76.339  61.787  1.00  0.00    -0.265 OA
HETATM   10  C6  UNL     1      74.725  77.066  61.862  1.00  0.00     0.166 A 
ENDROOT
BRANCH  10  11
HETATM   11  N7  UNL     1      75.100  78.141  61.006  1.00  0.00    -0.293 N 
HETATM   12  N8  UNL     1      75.135  77.901  59.814  1.00  0.00    -0.283 N 
HETATM   13  C7  UNL     1      75.360  78.331  58.512  1.00  0.00     0.494 C 
ATOM     14  H8  UNL     1      74.875  76.918  59.731  1.00  0.00     0.184 HD
HETATM   15  N9  UNL     1      74.323  77.826  57.550  1.00  0.00    -0.032 N 
HETATM   16  N10 UNL     1      76.580  77.773  58.013  1.00  0.00    -0.032 N 
ATOM     17  H93 UNL     1      74.247  76.810  57.593  1.00  0.00     0.279 HD
ATOM     18  H92 UNL     1      73.383  78.075  57.861  1.00  0.00     0.279 HD
ATOM     19  H91 UNL     1      74.488  78.142  56.594  1.00  0.00     0.279 HD
ATOM     20 3H10 UNL     1      77.371  77.977  58.624  1.00  0.00     0.279 HD
ATOM     21 2H10 UNL     1      76.592  76.755  58.086  1.00  0.00     0.279 HD
ATOM     22 1H10 UNL     1      76.745  78.089  57.057  1.00  0.00     0.279 HD
ATOM     23  H7  UNL     1      75.329  79.064  61.374  1.00  0.00     0.187 HD
ENDBRANCH  10  11
BRANCH   1  24
HETATM   24  N1  UNL     1      71.522  78.501  61.959  1.00  0.00    -0.263 NA
HETATM   25  C2  UNL     1      70.482  79.472  61.982  1.00  0.00     0.311 C 
HETATM   26  C1  UNL     1      70.930  80.918  61.792  1.00  0.00     0.137 C 
HETATM   27  O1  UNL     1      69.341  79.267  62.120  1.00  0.00    -0.256 OA
ENDBRANCH   1  24
BRANCH   1  28
HETATM   28  N3  UNL     1      72.143  76.923  60.509  1.00  0.00    -0.312 N 
ATOM     29  H32 UNL     1      73.069  76.563  60.281  1.00  0.00     0.179 HD
ATOM     30  H31 UNL     1      71.156  77.142  60.373  1.00  0.00     0.179 HD
ENDBRANCH   1  28
BRANCH   5  31
HETATM   31  N5  UNL     1      74.079  74.288  64.621  1.00  0.00    -0.234 N 
ATOM     32  H52 UNL     1      73.354  74.498  65.307  1.00  0.00     0.174 HD
ATOM     33  H51 UNL     1      74.631  73.432  64.573  1.00  0.00     0.174 HD
ENDBRANCH   5  31
TORSDOF 4
ENDMDL
MODEL 3
REMARK VINA RESULT: -5.972938795      2.630      5.398
REMARK  4 active torsions:
REMARK  status: ('A' for Active; 'I' for Inactive)
REMARK       I    between atoms: C2_2  and  N1_4 
REMARK    1  A    between atoms: N1_4  and  N2_5 
REMARK    2  A    between atoms: N2_5  and  N3_6 
REMARK    3  A    between atoms: C4_12  and  N5_13 
REMARK    4  A    between atoms: C6_20  and  N7_21 
REMARK       I    between atoms: N8_23  and  C7_25 
REMARK       I    between atoms: C7_25  and  N9_26 
REMARK       I    between atoms: C7_25  and  N10_30 
ROOT
HETATM    1  N2  UNL     1      74.558  78.864  61.695  1.00  0.00    -0.113 N 
HETATM    2  C3  UNL     1      73.307  79.256  61.919  1.00  0.00     0.206 A 
HETATM    3  N4  UNL     1      73.110  80.647  62.139  1.00  0.00    -0.170 N 
ATOM      4  H4  UNL     1      73.899  81.291  62.201  1.00  0.00     0.186 HD
HETATM    5  C4  UNL     1      71.855  81.080  62.260  1.00  0.00     0.680 A 
HETATM    6  N6  UNL     1      70.755  80.331  62.188  1.00  0.00    -0.154 N 
ATOM      7  H6  UNL     1      69.827  80.739  62.287  1.00  0.00     0.187 HD
HETATM    8  C5  UNL     1      70.926  78.982  61.974  1.00  0.00     0.291 A 
HETATM    9  O2  UNL     1      69.925  78.277  61.896  1.00  0.00    -0.265 OA
HETATM   10  C6  UNL     1      72.222  78.488  61.850  1.00  0.00     0.166 A 
ENDROOT
BRANCH  10  11
HETATM   11  N7  UNL     1      72.307  77.067  61.794  1.00  0.00    -0.293 N 
HETATM   12  N8  UNL     1      73.053  76.535  62.593  1.00  0.00    -0.283 N 
HETATM   13  C7  UNL     1      73.614  75.378  63.122  1.00  0.00     0.494 C 
ATOM     14  H8  UNL     1      73.460  77.300  63.130  1.00  0.00     0.184 HD
HETATM   15  N9  UNL     1      73.672  75.398  64.622  1.00  0.00    -0.032 N 
HETATM   16  N10 UNL     1      74.987  75.274  62.734  1.00  0.00    -0.032 N 
ATOM     17  H93 UNL     1      74.159  76.229  64.958  1.00  0.00     0.279 HD
ATOM     18  H92 UNL     1      72.750  75.575  65.022  1.00  0.00     0.279 HD
ATOM     19  H91 UNL     1      74.083  74.550  65.010  1.00  0.00     0.279 HD
ATOM     20 3H10 UNL     1      75.102  75.326  61.721  1.00  0.00     0.279 HD
ATOM     21 2H10 UNL     1      75.519  76.107  62.988  1.00  0.00     0.279 HD
ATOM     22 1H10 UNL     1      75.398  74.425  63.122  1.00  0.00     0.279 HD
ATOM     23  H7  UNL     1      71.769  76.525  61.118  1.00  0.00     0.187 HD
ENDBRANCH  10  11
BRANCH   1  24
HETATM   24  N1  UNL     1      75.731  78.511  61.967  1.00  0.00    -0.263 NA
HETATM   25  C2  UNL     1      77.058  78.122  62.301  1.00  0.00     0.311 C 
HETATM   26  C1  UNL     1      77.866  77.501  61.165  1.00  0.00     0.137 C 
HETATM   27  O1  UNL     1      77.578  78.240  63.340  1.00  0.00    -0.256 OA
ENDBRANCH   1  24
BRANCH   1  28
HETATM   28  N3  UNL     1      74.541  78.671  60.087  1.00  0.00    -0.312 N 
ATOM     29  H32 UNL     1      73.552  78.811  59.881  1.00  0.00     0.179 HD
ATOM     30  H31 UNL     1      75.520  78.450  59.906  1.00  0.00     0.179 HD
ENDBRANCH   1  28
BRANCH   5  31
HETATM   31  N5  UNL     1      71.705  82.365  62.518  1.00  0.00    -0.234 N 
ATOM     32  H52 UNL     1      71.747  83.013  61.733  1.00  0.00     0.174 HD
ATOM     33  H51 UNL     1      71.523  82.611  63.491  1.00  0.00     0.174 HD
ENDBRANCH   5  31
TORSDOF 4
ENDMDL
MODEL 4
REMARK VINA RESULT: -5.685619020      2.466      4.912
REMARK  4 active torsions:
REMARK  status: ('A' for Active; 'I' for Inactive)
REMARK       I    between atoms: C2_2  and  N1_4 
REMARK    1  A    between atoms: N1_4  and  N2_5 
REMARK    2  A    between atoms: N2_5  and  N3_6 
REMARK    3  A    between atoms: C4_12  and  N5_13 
REMARK    4  A    between atoms: C6_20  and  N7_21 
REMARK       I    between atoms: N8_23  and  C7_25 
REMARK       I    between atoms: C7_25  and  N9_26 
REMARK       I    between atoms: C7_25  and  N10_30 
ROOT
HETATM    1  N2  UNL     1      73.019  77.794  61.102  1.00  0.00    -0.113 N 
HETATM    2  C3  UNL     1      74.305  77.456  61.097  1.00  0.00     0.206 A 
HETATM    3  N4  UNL     1      74.775  76.735  62.230  1.00  0.00    -0.170 N 
ATOM      4  H4  UNL     1      74.171  76.562  63.034  1.00  0.00     0.186 HD
HETATM    5  C4  UNL     1      76.031  76.293  62.202  1.00  0.00     0.680 A 
HETATM    6  N6  UNL     1      76.899  76.455  61.202  1.00  0.00    -0.154 N 
ATOM      7  H6  UNL     1      77.846  76.081  61.255  1.00  0.00     0.187 HD
HETATM    8  C5  UNL     1      76.463  77.149  60.097  1.00  0.00     0.291 A 
HETATM    9  O2  UNL     1      77.244  77.301  59.163  1.00  0.00    -0.265 OA
HETATM   10  C6  UNL     1      75.157  77.635  60.090  1.00  0.00     0.166 A 
ENDROOT
BRANCH  10  11
HETATM   11  N7  UNL     1      74.849  78.474  58.982  1.00  0.00    -0.293 N 
HETATM   12  N8  UNL     1      74.806  77.940  57.890  1.00  0.00    -0.283 N 
HETATM   13  C7  UNL     1      74.600  78.031  56.518  1.00  0.00     0.494 C 
ATOM     14  H8  UNL     1      75.027  76.959  58.063  1.00  0.00     0.184 HD
HETATM   15  N9  UNL     1      73.785  76.891  55.980  1.00  0.00    -0.032 N 
HETATM   16  N10 UNL     1      75.845  77.911  55.823  1.00  0.00    -0.032 N 
ATOM     17  H93 UNL     1      74.200  75.994  56.229  1.00  0.00     0.279 HD
ATOM     18  H92 UNL     1      72.899  76.806  56.479  1.00  0.00     0.279 HD
ATOM     19  H91 UNL     1      73.633  76.958  54.974  1.00  0.00     0.279 HD
ATOM     20 3H10 UNL     1      76.532  78.590  56.152  1.00  0.00     0.279 HD
ATOM     21 2H10 UNL     1      76.344  77.058  56.078  1.00  0.00     0.279 HD
ATOM     22 1H10 UNL     1      75.693  77.978  54.817  1.00  0.00     0.279 HD
ATOM     23  H7  UNL     1      74.672  79.472  59.097  1.00  0.00     0.187 HD
ENDBRANCH  10  11
BRANCH   1  24
HETATM   24  N1  UNL     1      71.997  78.471  61.370  1.00  0.00    -0.263 NA
HETATM   25  C2  UNL     1      70.823  79.215  61.673  1.00  0.00     0.311 C 
HETATM   26  C1  UNL     1      71.018  80.722  61.811  1.00  0.00     0.137 C 
HETATM   27  O1  UNL     1      69.745  78.789  61.812  1.00  0.00    -0.256 OA
ENDBRANCH   1  24
BRANCH   1  28
HETATM   28  N3  UNL     1      72.400  76.679  60.103  1.00  0.00    -0.312 N 
ATOM     29  H32 UNL     1      71.885  77.267  59.447  1.00  0.00     0.179 HD
ATOM     30  H31 UNL     1      72.736  75.819  60.536  1.00  0.00     0.179 HD
ENDBRANCH   1  28
BRANCH   5  31
HETATM   31  N5  UNL     1      76.456  75.676  63.287  1.00  0.00    -0.234 N 
ATOM     32  H52 UNL     1      76.191  76.070  64.189  1.00  0.00     0.174 HD
ATOM     33  H51 UNL     1      76.996  74.823  63.139  1.00  0.00     0.174 HD
ENDBRANCH   5  31
TORSDOF 4
ENDMDL
MODEL 5
REMARK VINA RESULT: -5.670396715      2.287      2.484
REMARK  4 active torsions:
REMARK  status: ('A' for Active; 'I' for Inactive)
REMARK       I    between atoms: C2_2  and  N1_4 
REMARK    1  A    between atoms: N1_4  and  N2_5 
REMARK    2  A    between atoms: N2_5  and  N3_6 
REMARK    3  A    between atoms: C4_12  and  N5_13 
REMARK    4  A    between atoms: C6_20  and  N7_21 
REMARK       I    between atoms: N8_23  and  C7_25 
REMARK       I    between atoms: C7_25  and  N9_26 
REMARK       I    between atoms: C7_25  and  N10_30 
ROOT
HETATM    1  N2  UNL     1      74.487  77.797  61.552  1.00  0.00    -0.113 N 
HETATM    2  C3  UNL     1      75.472  76.971  61.212  1.00  0.00     0.206 A 
HETATM    3  N4  UNL     1      75.799  76.911  59.829  1.00  0.00    -0.170 N 
ATOM      4  H4  UNL     1      75.249  77.414  59.133  1.00  0.00     0.186 HD
HETATM    5  C4  UNL     1      76.851  76.173  59.476  1.00  0.00     0.680 A 
HETATM    6  N6  UNL     1      77.640  75.484  60.301  1.00  0.00    -0.154 N 
ATOM      7  H6  UNL     1      78.432  74.945  59.952  1.00  0.00     0.187 HD
HETATM    8  C5  UNL     1      77.341  75.532  61.643  1.00  0.00     0.291 A 
HETATM    9  O2  UNL     1      78.061  74.912  62.419  1.00  0.00    -0.265 OA
HETATM   10  C6  UNL     1      76.244  76.286  62.053  1.00  0.00     0.166 A 
ENDROOT
BRANCH  10  11
HETATM   11  N7  UNL     1      75.917  76.145  63.432  1.00  0.00    -0.293 N 
HETATM   12  N8  UNL     1      74.949  75.457  63.694  1.00  0.00    -0.283 N 
HETATM   13  C7  UNL     1      74.098  74.896  64.640  1.00  0.00     0.494 C 
ATOM     14  H8  UNL     1      74.591  75.143  62.792  1.00  0.00     0.184 HD
HETATM   15  N9  UNL     1      73.760  73.465  64.335  1.00  0.00    -0.032 N 
HETATM   16  N10 UNL     1      72.828  75.554  64.612  1.00  0.00    -0.032 N 
ATOM     17  H93 UNL     1      73.376  73.371  63.395  1.00  0.00     0.279 HD
ATOM     18  H92 UNL     1      74.606  72.905  64.224  1.00  0.00     0.279 HD
ATOM     19  H91 UNL     1      73.136  73.053  65.029  1.00  0.00     0.279 HD
ATOM     20 3H10 UNL     1      72.918  76.564  64.732  1.00  0.00     0.279 HD
ATOM     21 2H10 UNL     1      72.416  75.550  63.679  1.00  0.00     0.279 HD
ATOM     22 1H10 UNL     1      72.204  75.142  65.306  1.00  0.00     0.279 HD
ATOM     23  H7  UNL     1      76.466  76.598  64.162  1.00  0.00     0.187 HD
ENDBRANCH  10  11
BRANCH   1  24
HETATM   24  N1  UNL     1      73.308  78.184  61.736  1.00  0.00    -0.263 NA
HETATM   25  C2  UNL     1      71.962  78.597  61.949  1.00  0.00     0.311 C 
HETATM   26  C1  UNL     1      71.682  80.075  61.699  1.00  0.00     0.137 C 
HETATM   27  O1  UNL     1      71.071  77.920  62.282  1.00  0.00    -0.256 OA
ENDBRANCH   1  24
BRANCH   1  28
HETATM   28  N3  UNL     1      75.322  79.054  62.142  1.00  0.00    -0.312 N 
ATOM     29  H32 UNL     1      76.215  78.613  62.359  1.00  0.00     0.179 HD
ATOM     30  H31 UNL     1      74.619  79.792  62.099  1.00  0.00     0.179 HD
ENDBRANCH   1  28
BRANCH   5  31
HETATM   31  N5  UNL     1      77.097  76.091  58.183  1.00  0.00    -0.234 N 
ATOM     32  H52 UNL     1      77.718  75.348  57.865  1.00  0.00     0.174 HD
ATOM     33  H51 UNL     1      76.613  76.765  57.588  1.00  0.00     0.174 HD
ENDBRANCH   5  31
TORSDOF 4
ENDMDL
