MODEL 1
REMARK VINA RESULT: -8.669536372      0.000      0.000
REMARK  4 active torsions:
REMARK  status: ('A' for Active; 'I' for Inactive)
REMARK    1  A    between atoms: C3_4  and  N2_5 
REMARK    2  A    between atoms: N2_5  and  N3_7 
REMARK    3  A    between atoms: N3_7  and  C4_9 
REMARK    4  A    between atoms: C5_14  and  N6_15 
ROOT
HETATM    1  N3  UNL     1      70.588  84.502  62.452  1.00  0.00    -0.279 N 
ATOM      2  H3  UNL     1      71.463  85.023  62.393  1.00  0.00     0.189 HD
ENDROOT
BRANCH   1   3
HETATM    3  N2  UNL     1      70.532  83.358  63.216  1.00  0.00    -0.294 N 
ATOM      4  H2  UNL     1      70.624  83.515  64.220  1.00  0.00     0.187 HD
BRANCH   3   5
HETATM    5  C3  UNL     1      70.372  82.019  62.852  1.00  0.00     0.107 A 
HETATM    6  C2  UNL     1      71.534  81.324  62.443  1.00  0.00     0.130 A 
HETATM    7  N1  UNL     1      71.483  80.040  62.077  1.00  0.00    -0.312 N 
HETATM    8  C1  UNL     1      72.683  79.334  61.658  1.00  0.00     0.160 C 
HETATM    9  C8  UNL     1      70.298  79.410  62.100  1.00  0.00     0.327 A 
HETATM   10  N9  UNL     1      69.176  80.030  62.479  1.00  0.00    -0.293 N 
HETATM   11  O2  UNL     1      70.284  78.203  61.749  1.00  0.00    -0.246 OA
HETATM   12  C7  UNL     1      69.176  81.360  62.869  1.00  0.00     0.132 A 
ATOM     13  H9  UNL     1      68.298  79.510  62.482  1.00  0.00     0.172 HD
HETATM   14  N8  UNL     1      68.091  81.867  63.210  1.00  0.00    -0.383 N 
ATOM     15  H82 UNL     1      68.091  82.846  63.497  1.00  0.00     0.157 HD
ATOM     16  H81 UNL     1      67.198  81.374  63.223  1.00  0.00     0.157 HD
ENDBRANCH   3   5
ENDBRANCH   1   3
BRANCH   1  17
HETATM   17  C4  UNL     1      69.433  84.981  61.731  1.00  0.00     0.205 A 
HETATM   18  N4  UNL     1      69.201  84.628  60.465  1.00  0.00    -0.266 N 
HETATM   19  N5  UNL     1      68.144  85.055  59.781  1.00  0.00    -0.131 N 
ATOM     20  H4  UNL     1      69.862  84.005  60.002  1.00  0.00     0.189 HD
HETATM   21  C5  UNL     1      67.252  85.878  60.359  1.00  0.00     0.693 A 
ATOM     22  H5  UNL     1      68.010  84.758  58.814  1.00  0.00     0.205 HD
HETATM   23  N7  UNL     1      67.450  86.252  61.624  1.00  0.00    -0.152 N 
HETATM   24  C6  UNL     1      68.524  85.824  62.335  1.00  0.00     0.306 A 
ATOM     25  H7  UNL     1      66.778  86.876  62.068  1.00  0.00     0.188 HD
HETATM   26  O1  UNL     1      68.699  86.184  63.528  1.00  0.00    -0.263 OA
BRANCH  21  27
HETATM   27  N6  UNL     1      66.209  86.303  59.692  1.00  0.00    -0.233 N 
ATOM     28  H62 UNL     1      65.914  85.836  58.834  1.00  0.00     0.174 HD
ATOM     29  H61 UNL     1      65.675  87.107  60.022  1.00  0.00     0.174 HD
ENDBRANCH  21  27
ENDBRANCH   1  17
TORSDOF 4
ENDMDL
MODEL 2
REMARK VINA RESULT: -8.343073946      1.147      1.462
REMARK  4 active torsions:
REMARK  status: ('A' for Active; 'I' for Inactive)
REMARK    1  A    between atoms: C3_4  and  N2_5 
REMARK    2  A    between atoms: N2_5  and  N3_7 
REMARK    3  A    between atoms: N3_7  and  C4_9 
REMARK    4  A    between atoms: C5_14  and  N6_15 
ROOT
HETATM    1  N3  UNL     1      70.481  84.575  62.475  1.00  0.00    -0.279 N 
ATOM      2  H3  UNL     1      71.385  85.001  62.273  1.00  0.00     0.189 HD
ENDROOT
BRANCH   1   3
HETATM    3  N2  UNL     1      70.431  83.429  63.237  1.00  0.00    -0.294 N 
ATOM      4  H2  UNL     1      70.494  83.587  64.243  1.00  0.00     0.187 HD
BRANCH   3   5
HETATM    5  C3  UNL     1      70.311  82.087  62.869  1.00  0.00     0.107 A 
HETATM    6  C2  UNL     1      71.496  81.420  62.483  1.00  0.00     0.130 A 
HETATM    7  N1  UNL     1      71.484  80.136  62.114  1.00  0.00    -0.312 N 
HETATM    8  C1  UNL     1      72.708  79.460  61.719  1.00  0.00     0.160 C 
HETATM    9  C8  UNL     1      70.314  79.479  62.113  1.00  0.00     0.327 A 
HETATM   10  N9  UNL     1      69.170  80.070  62.469  1.00  0.00    -0.293 N 
HETATM   11  O2  UNL     1      70.336  78.271  61.760  1.00  0.00    -0.246 OA
HETATM   12  C7  UNL     1      69.130  81.399  62.860  1.00  0.00     0.132 A 
ATOM     13  H9  UNL     1      68.305  79.530  62.453  1.00  0.00     0.172 HD
HETATM   14  N8  UNL     1      68.027  81.880  63.179  1.00  0.00    -0.383 N 
ATOM     15  H82 UNL     1      67.998  82.858  63.467  1.00  0.00     0.157 HD
ATOM     16  H81 UNL     1      67.145  81.367  63.173  1.00  0.00     0.157 HD
ENDBRANCH   3   5
ENDBRANCH   1   3
BRANCH   1  17
HETATM   17  C4  UNL     1      69.281  85.185  61.958  1.00  0.00     0.205 A 
HETATM   18  N4  UNL     1      68.789  86.313  62.475  1.00  0.00    -0.266 N 
HETATM   19  N5  UNL     1      67.685  86.895  62.015  1.00  0.00    -0.131 N 
ATOM     20  H4  UNL     1      69.280  86.748  63.256  1.00  0.00     0.189 HD
HETATM   21  C5  UNL     1      67.013  86.349  60.987  1.00  0.00     0.693 A 
ATOM     22  H5  UNL     1      67.349  87.757  62.444  1.00  0.00     0.205 HD
HETATM   23  N7  UNL     1      67.474  85.222  60.444  1.00  0.00    -0.152 N 
HETATM   24  C6  UNL     1      68.599  84.616  60.902  1.00  0.00     0.306 A 
ATOM     25  H7  UNL     1      66.968  84.803  59.664  1.00  0.00     0.188 HD
HETATM   26  O1  UNL     1      69.024  83.553  60.381  1.00  0.00    -0.263 OA
BRANCH  21  27
HETATM   27  N6  UNL     1      65.925  86.916  60.528  1.00  0.00    -0.233 N 
ATOM     28  H62 UNL     1      65.176  86.354  60.123  1.00  0.00     0.174 HD
ATOM     29  H61 UNL     1      65.811  87.928  60.570  1.00  0.00     0.174 HD
ENDBRANCH  21  27
ENDBRANCH   1  17
TORSDOF 4
ENDMDL
MODEL 3
REMARK VINA RESULT: -8.141806898      2.329      3.346
REMARK  4 active torsions:
REMARK  status: ('A' for Active; 'I' for Inactive)
REMARK    1  A    between atoms: C3_4  and  N2_5 
REMARK    2  A    between atoms: N2_5  and  N3_7 
REMARK    3  A    between atoms: N3_7  and  C4_9 
REMARK    4  A    between atoms: C5_14  and  N6_15 
ROOT
HETATM    1  N3  UNL     1      71.436  81.959  63.122  1.00  0.00    -0.279 N 
ATOM      2  H3  UNL     1      71.993  81.790  63.960  1.00  0.00     0.189 HD
ENDROOT
BRANCH   1   3
HETATM    3  N2  UNL     1      71.664  81.200  61.996  1.00  0.00    -0.294 N 
ATOM      4  H2  UNL     1      71.548  81.704  61.116  1.00  0.00     0.187 HD
BRANCH   3   5
HETATM    5  C3  UNL     1      72.026  79.859  61.852  1.00  0.00     0.107 A 
HETATM    6  C2  UNL     1      73.389  79.589  61.592  1.00  0.00     0.130 A 
HETATM    7  N1  UNL     1      73.834  78.338  61.439  1.00  0.00    -0.312 N 
HETATM    8  C1  UNL     1      75.237  78.070  61.172  1.00  0.00     0.160 C 
HETATM    9  C8  UNL     1      72.956  77.327  61.535  1.00  0.00     0.327 A 
HETATM   10  N9  UNL     1      71.659  77.538  61.778  1.00  0.00    -0.293 N 
HETATM   11  O2  UNL     1      73.406  76.162  61.385  1.00  0.00    -0.246 OA
HETATM   12  C7  UNL     1      71.149  78.816  61.945  1.00  0.00     0.132 A 
ATOM     13  H9  UNL     1      71.029  76.738  61.844  1.00  0.00     0.172 HD
HETATM   14  N8  UNL     1      69.930  78.931  62.171  1.00  0.00    -0.383 N 
ATOM     15  H82 UNL     1      69.554  79.872  62.294  1.00  0.00     0.157 HD
ATOM     16  H81 UNL     1      69.275  78.153  62.241  1.00  0.00     0.157 HD
ENDBRANCH   3   5
ENDBRANCH   1   3
BRANCH   1  17
HETATM   17  C4  UNL     1      70.426  82.990  63.142  1.00  0.00     0.205 A 
HETATM   18  N4  UNL     1      70.708  84.240  63.516  1.00  0.00    -0.266 N 
HETATM   19  N5  UNL     1      69.795  85.206  63.542  1.00  0.00    -0.131 N 
ATOM     20  H4  UNL     1      71.663  84.464  63.794  1.00  0.00     0.189 HD
HETATM   21  C5  UNL     1      68.526  84.947  63.182  1.00  0.00     0.693 A 
ATOM     22  H5  UNL     1      70.059  86.146  63.836  1.00  0.00     0.205 HD
HETATM   23  N7  UNL     1      68.208  83.709  62.802  1.00  0.00    -0.152 N 
HETATM   24  C6  UNL     1      69.128  82.712  62.770  1.00  0.00     0.306 A 
ATOM     25  H7  UNL     1      67.247  83.506  62.528  1.00  0.00     0.188 HD
HETATM   26  O1  UNL     1      68.814  81.548  62.409  1.00  0.00    -0.263 OA
BRANCH  21  27
HETATM   27  N6  UNL     1      67.622  85.893  63.205  1.00  0.00    -0.233 N 
ATOM     28  H62 UNL     1      67.082  86.118  62.369  1.00  0.00     0.174 HD
ATOM     29  H61 UNL     1      67.443  86.419  64.060  1.00  0.00     0.174 HD
ENDBRANCH  21  27
ENDBRANCH   1  17
TORSDOF 4
ENDMDL
MODEL 4
REMARK VINA RESULT: -8.138939281      1.594      6.588
REMARK  4 active torsions:
REMARK  status: ('A' for Active; 'I' for Inactive)
REMARK    1  A    between atoms: C3_4  and  N2_5 
REMARK    2  A    between atoms: N2_5  and  N3_7 
REMARK    3  A    between atoms: N3_7  and  C4_9 
REMARK    4  A    between atoms: C5_14  and  N6_15 
ROOT
HETATM    1  N3  UNL     1      70.086  82.069  62.827  1.00  0.00    -0.279 N 
ATOM      2  H3  UNL     1      69.573  82.084  63.708  1.00  0.00     0.189 HD
ENDROOT
BRANCH   1   3
HETATM    3  N2  UNL     1      70.164  83.218  62.072  1.00  0.00    -0.294 N 
ATOM      4  H2  UNL     1      71.009  83.295  61.505  1.00  0.00     0.187 HD
BRANCH   3   5
HETATM    5  C3  UNL     1      69.286  84.297  61.951  1.00  0.00     0.107 A 
HETATM    6  C2  UNL     1      68.592  84.424  60.726  1.00  0.00     0.130 A 
HETATM    7  N1  UNL     1      67.730  85.422  60.514  1.00  0.00    -0.312 N 
HETATM    8  C1  UNL     1      67.022  85.543  59.250  1.00  0.00     0.160 C 
HETATM    9  C8  UNL     1      67.529  86.317  61.493  1.00  0.00     0.327 A 
HETATM   10  N9  UNL     1      68.164  86.236  62.666  1.00  0.00    -0.293 N 
HETATM   11  O2  UNL     1      66.712  87.245  61.262  1.00  0.00    -0.246 OA
HETATM   12  C7  UNL     1      69.067  85.220  62.935  1.00  0.00     0.132 A 
ATOM     13  H9  UNL     1      67.979  86.940  63.381  1.00  0.00     0.172 HD
HETATM   14  N8  UNL     1      69.618  85.211  64.051  1.00  0.00    -0.383 N 
ATOM     15  H82 UNL     1      70.283  84.462  64.250  1.00  0.00     0.157 HD
ATOM     16  H81 UNL     1      69.455  85.899  64.786  1.00  0.00     0.157 HD
ENDBRANCH   3   5
ENDBRANCH   1   3
BRANCH   1  17
HETATM   17  C4  UNL     1      70.714  80.844  62.396  1.00  0.00     0.205 A 
HETATM   18  N4  UNL     1      72.006  80.798  62.060  1.00  0.00    -0.266 N 
HETATM   19  N5  UNL     1      72.607  79.683  61.661  1.00  0.00    -0.131 N 
ATOM     20  H4  UNL     1      72.555  81.657  62.112  1.00  0.00     0.189 HD
HETATM   21  C5  UNL     1      71.914  78.533  61.581  1.00  0.00     0.693 A 
ATOM     22  H5  UNL     1      73.596  79.699  61.415  1.00  0.00     0.205 HD
HETATM   23  N7  UNL     1      70.621  78.540  61.908  1.00  0.00    -0.152 N 
HETATM   24  C6  UNL     1      69.993  79.671  62.318  1.00  0.00     0.306 A 
ATOM     25  H7  UNL     1      70.090  77.671  61.849  1.00  0.00     0.188 HD
HETATM   26  O1  UNL     1      68.773  79.663  62.624  1.00  0.00    -0.263 OA
BRANCH  21  27
HETATM   27  N6  UNL     1      72.499  77.430  61.189  1.00  0.00    -0.233 N 
ATOM     28  H62 UNL     1      72.659  76.664  61.843  1.00  0.00     0.174 HD
ATOM     29  H61 UNL     1      72.804  77.320  60.222  1.00  0.00     0.174 HD
ENDBRANCH  21  27
ENDBRANCH   1  17
TORSDOF 4
ENDMDL
MODEL 5
REMARK VINA RESULT: -8.129039731      1.919      2.635
REMARK  4 active torsions:
REMARK  status: ('A' for Active; 'I' for Inactive)
REMARK    1  A    between atoms: C3_4  and  N2_5 
REMARK    2  A    between atoms: N2_5  and  N3_7 
REMARK    3  A    between atoms: N3_7  and  C4_9 
REMARK    4  A    between atoms: C5_14  and  N6_15 
ROOT
HETATM    1  N3  UNL     1      70.807  82.468  63.352  1.00  0.00    -0.279 N 
ATOM      2  H3  UNL     1      70.878  82.185  64.329  1.00  0.00     0.189 HD
ENDROOT
BRANCH   1   3
HETATM    3  N2  UNL     1      71.525  81.783  62.398  1.00  0.00    -0.294 N 
ATOM      4  H2  UNL     1      72.046  82.378  61.753  1.00  0.00     0.187 HD
BRANCH   3   5
HETATM    5  C3  UNL     1      71.663  80.414  62.161  1.00  0.00     0.107 A 
HETATM    6  C2  UNL     1      72.949  79.953  61.797  1.00  0.00     0.130 A 
HETATM    7  N1  UNL     1      73.182  78.661  61.551  1.00  0.00    -0.312 N 
HETATM    8  C1  UNL     1      74.508  78.197  61.178  1.00  0.00     0.160 C 
HETATM    9  C8  UNL     1      72.163  77.793  61.654  1.00  0.00     0.327 A 
HETATM   10  N9  UNL     1      70.932  78.185  61.994  1.00  0.00    -0.293 N 
HETATM   11  O2  UNL     1      72.415  76.583  61.415  1.00  0.00    -0.246 OA
HETATM   12  C7  UNL     1      70.639  79.513  62.260  1.00  0.00     0.132 A 
ATOM     13  H9  UNL     1      70.189  77.489  62.061  1.00  0.00     0.172 HD
HETATM   14  N8  UNL     1      69.469  79.801  62.572  1.00  0.00    -0.383 N 
ATOM     15  H82 UNL     1      69.254  80.779  62.768  1.00  0.00     0.157 HD
ATOM     16  H81 UNL     1      68.705  79.129  62.646  1.00  0.00     0.157 HD
ENDBRANCH   3   5
ENDBRANCH   1   3
BRANCH   1  17
HETATM   17  C4  UNL     1      69.956  83.578  62.998  1.00  0.00     0.205 A 
HETATM   18  N4  UNL     1      69.961  84.716  63.696  1.00  0.00    -0.266 N 
HETATM   19  N5  UNL     1      69.187  85.752  63.390  1.00  0.00    -0.131 N 
ATOM     20  H4  UNL     1      70.585  84.794  64.500  1.00  0.00     0.189 HD
HETATM   21  C5  UNL     1      68.352  85.684  62.338  1.00  0.00     0.693 A 
ATOM     22  H5  UNL     1      69.226  86.601  63.954  1.00  0.00     0.205 HD
HETATM   23  N7  UNL     1      68.319  84.563  61.617  1.00  0.00    -0.152 N 
HETATM   24  C6  UNL     1      69.103  83.497  61.917  1.00  0.00     0.306 A 
ATOM     25  H7  UNL     1      67.688  84.505  60.819  1.00  0.00     0.188 HD
HETATM   26  O1  UNL     1      69.063  82.445  61.228  1.00  0.00    -0.263 OA
BRANCH  21  27
HETATM   27  N6  UNL     1      67.586  86.700  62.030  1.00  0.00    -0.233 N 
ATOM     28  H62 UNL     1      67.696  87.598  62.503  1.00  0.00     0.174 HD
ATOM     29  H61 UNL     1      66.868  86.609  61.312  1.00  0.00     0.174 HD
ENDBRANCH  21  27
ENDBRANCH   1  17
TORSDOF 4
ENDMDL
