MODEL 1
REMARK VINA RESULT: -6.782971335      0.000      0.000
REMARK  8 active torsions:
REMARK  status: ('A' for Active; 'I' for Inactive)
REMARK    1  A    between atoms: N1_1  and  C1_4 
REMARK    2  A    between atoms: C2_7  and  C3_8 
REMARK    3  A    between atoms: C3_8  and  N3_9 
REMARK    4  A    between atoms: C4_13  and  C5_14 
REMARK       I    between atoms: C5_14  and  N4_16 
REMARK    5  A    between atoms: N4_16  and  C6_18 
REMARK    6  A    between atoms: C6_18  and  N5_19 
REMARK    7  A    between atoms: C6_18  and  C7_23 
REMARK    8  A    between atoms: N10_32  and  N11_33 
ROOT
HETATM    1  C5  UNL     1      67.330  86.332  61.287  1.00  0.00     0.274 C 
HETATM    2  O1  UNL     1      67.941  87.282  61.915  1.00  0.00    -0.266 OA
HETATM    3  N4  UNL     1      67.614  85.024  61.699  1.00  0.00    -0.322 N 
ATOM      4  H4  UNL     1      67.171  84.222  61.252  1.00  0.00     0.165 HD
ENDROOT
BRANCH   1   5
HETATM    5  C4  UNL     1      66.435  86.743  60.243  1.00  0.00     0.166 A 
HETATM    6  C2  UNL     1      65.446  87.692  60.300  1.00  0.00     0.086 A 
HETATM    7  N2  UNL     1      64.885  87.708  59.050  1.00  0.00    -0.190 N 
HETATM    8  C1  UNL     1      65.510  86.808  58.277  1.00  0.00     0.697 A 
ATOM      9  H2  UNL     1      64.116  88.307  58.755  1.00  0.00     0.184 HD
HETATM   10  N10 UNL     1      66.467  86.199  58.983  1.00  0.00    -0.086 N 
BRANCH   6  11
HETATM   11  C3  UNL     1      64.985  88.561  61.423  1.00  0.00     0.289 C 
BRANCH  11  12
HETATM   12  N3  UNL     1      63.529  88.753  61.332  1.00  0.00    -0.074 N 
ATOM     13  H33 UNL     1      63.036  87.881  61.140  1.00  0.00     0.274 HD
ATOM     14  H32 UNL     1      63.110  88.961  62.239  1.00  0.00     0.274 HD
ATOM     15  H31 UNL     1      63.322  89.472  60.638  1.00  0.00     0.274 HD
ENDBRANCH  11  12
ENDBRANCH   6  11
BRANCH   8  16
HETATM   16  N1  UNL     1      65.227  86.562  57.022  1.00  0.00    -0.233 N 
ATOM     17  H12 UNL     1      65.205  87.259  56.278  1.00  0.00     0.174 HD
ATOM     18  H11 UNL     1      64.995  85.645  56.640  1.00  0.00     0.174 HD
ENDBRANCH   8  16
BRANCH  10  19
HETATM   19  N11 UNL     1      67.299  85.209  58.466  1.00  0.00    -0.324 N 
ATOM     20 2H11 UNL     1      67.071  84.422  57.859  1.00  0.00     0.178 HD
ATOM     21 1H11 UNL     1      68.301  85.158  58.649  1.00  0.00     0.178 HD
ENDBRANCH  10  19
ENDBRANCH   1   5
BRANCH   3  22
HETATM   22  C6  UNL     1      68.575  84.845  62.801  1.00  0.00     0.355 C 
BRANCH  22  23
HETATM   23  N5  UNL     1      67.929  85.300  64.040  1.00  0.00    -0.051 N 
ATOM     24  H53 UNL     1      67.216  84.652  64.376  1.00  0.00     0.277 HD
ATOM     25  H52 UNL     1      68.548  85.251  64.849  1.00  0.00     0.277 HD
ATOM     26  H51 UNL     1      67.565  86.238  63.877  1.00  0.00     0.277 HD
ENDBRANCH  22  23
BRANCH  22  27
HETATM   27  C7  UNL     1      68.995  83.445  62.924  1.00  0.00     0.164 A 
HETATM   28  N6  UNL     1      68.278  82.322  62.699  1.00  0.00    -0.269 N 
HETATM   29  N7  UNL     1      69.062  81.285  62.937  1.00  0.00    -0.227 N 
ATOM     30  H6  UNL     1      67.304  82.283  62.399  1.00  0.00     0.190 HD
HETATM   31  N8  UNL     1      70.251  81.724  63.305  1.00  0.00    -0.227 N 
ATOM     32  H7  UNL     1      68.792  80.305  62.851  1.00  0.00     0.210 HD
HETATM   33  N9  UNL     1      70.218  83.037  63.299  1.00  0.00    -0.269 N 
ATOM     34  H8  UNL     1      71.054  81.145  63.550  1.00  0.00     0.210 HD
ATOM     35  H9  UNL     1      70.998  83.649  63.542  1.00  0.00     0.190 HD
ENDBRANCH  22  27
ENDBRANCH   3  22
TORSDOF 8
ENDMDL
MODEL 2
REMARK VINA RESULT: -6.545370626      1.864      6.684
REMARK  8 active torsions:
REMARK  status: ('A' for Active; 'I' for Inactive)
REMARK    1  A    between atoms: N1_1  and  C1_4 
REMARK    2  A    between atoms: C2_7  and  C3_8 
REMARK    3  A    between atoms: C3_8  and  N3_9 
REMARK    4  A    between atoms: C4_13  and  C5_14 
REMARK       I    between atoms: C5_14  and  N4_16 
REMARK    5  A    between atoms: N4_16  and  C6_18 
REMARK    6  A    between atoms: C6_18  and  N5_19 
REMARK    7  A    between atoms: C6_18  and  C7_23 
REMARK    8  A    between atoms: N10_32  and  N11_33 
ROOT
HETATM    1  C5  UNL     1      68.297  83.845  62.550  1.00  0.00     0.274 C 
HETATM    2  O1  UNL     1      67.506  84.147  63.527  1.00  0.00    -0.266 OA
HETATM    3  N4  UNL     1      68.156  84.594  61.375  1.00  0.00    -0.322 N 
ATOM      4  H4  UNL     1      68.745  84.415  60.562  1.00  0.00     0.165 HD
ENDROOT
BRANCH   1   5
HETATM    5  C4  UNL     1      69.222  82.776  62.799  1.00  0.00     0.166 A 
HETATM    6  C2  UNL     1      70.583  82.852  62.953  1.00  0.00     0.086 A 
HETATM    7  N2  UNL     1      70.996  81.564  63.169  1.00  0.00    -0.190 N 
HETATM    8  C1  UNL     1      69.930  80.751  63.146  1.00  0.00     0.697 A 
ATOM      9  H2  UNL     1      71.960  81.270  63.323  1.00  0.00     0.184 HD
HETATM   10  N10 UNL     1      68.826  81.467  62.920  1.00  0.00    -0.086 N 
BRANCH   6  11
HETATM   11  C3  UNL     1      71.512  84.020  62.899  1.00  0.00     0.289 C 
BRANCH  11  12
HETATM   12  N3  UNL     1      71.091  85.029  63.884  1.00  0.00    -0.074 N 
ATOM     13  H33 UNL     1      70.114  85.299  63.765  1.00  0.00     0.274 HD
ATOM     14  H32 UNL     1      71.022  84.643  64.826  1.00  0.00     0.274 HD
ATOM     15  H31 UNL     1      71.719  85.832  63.840  1.00  0.00     0.274 HD
ENDBRANCH  11  12
ENDBRANCH   6  11
BRANCH   8  16
HETATM   16  N1  UNL     1      69.965  79.453  63.318  1.00  0.00    -0.233 N 
ATOM     17  H12 UNL     1      70.151  78.983  64.204  1.00  0.00     0.174 HD
ATOM     18  H11 UNL     1      69.811  78.758  62.588  1.00  0.00     0.174 HD
ENDBRANCH   8  16
BRANCH  10  19
HETATM   19  N11 UNL     1      67.549  80.915  62.837  1.00  0.00    -0.324 N 
ATOM     20 2H11 UNL     1      66.866  80.748  63.575  1.00  0.00     0.178 HD
ATOM     21 1H11 UNL     1      67.125  80.595  61.966  1.00  0.00     0.178 HD
ENDBRANCH  10  19
ENDBRANCH   1   5
BRANCH   3  22
HETATM   22  C6  UNL     1      67.129  85.649  61.352  1.00  0.00     0.355 C 
BRANCH  22  23
HETATM   23  N5  UNL     1      67.716  86.861  61.940  1.00  0.00    -0.051 N 
ATOM     24  H53 UNL     1      67.032  87.605  62.078  1.00  0.00     0.277 HD
ATOM     25  H52 UNL     1      67.982  86.738  62.917  1.00  0.00     0.277 HD
ATOM     26  H51 UNL     1      68.497  87.147  61.350  1.00  0.00     0.277 HD
ENDBRANCH  22  23
BRANCH  22  27
HETATM   27  C7  UNL     1      66.662  85.913  59.987  1.00  0.00     0.164 A 
HETATM   28  N6  UNL     1      66.974  85.263  58.844  1.00  0.00    -0.269 N 
HETATM   29  N7  UNL     1      66.321  85.847  57.854  1.00  0.00    -0.227 N 
ATOM     30  H6  UNL     1      67.601  84.463  58.761  1.00  0.00     0.190 HD
HETATM   31  N8  UNL     1      65.609  86.845  58.342  1.00  0.00    -0.227 N 
ATOM     32  H7  UNL     1      66.362  85.571  56.873  1.00  0.00     0.210 HD
HETATM   33  N9  UNL     1      65.811  86.892  59.638  1.00  0.00    -0.269 N 
ATOM     34  H8  UNL     1      65.007  87.471  57.806  1.00  0.00     0.210 HD
ATOM     35  H9  UNL     1      65.390  87.565  60.279  1.00  0.00     0.190 HD
ENDBRANCH  22  27
ENDBRANCH   3  22
TORSDOF 8
ENDMDL
MODEL 3
REMARK VINA RESULT: -6.334227676      1.885      6.795
REMARK  8 active torsions:
REMARK  status: ('A' for Active; 'I' for Inactive)
REMARK    1  A    between atoms: N1_1  and  C1_4 
REMARK    2  A    between atoms: C2_7  and  C3_8 
REMARK    3  A    between atoms: C3_8  and  N3_9 
REMARK    4  A    between atoms: C4_13  and  C5_14 
REMARK       I    between atoms: C5_14  and  N4_16 
REMARK    5  A    between atoms: N4_16  and  C6_18 
REMARK    6  A    between atoms: C6_18  and  N5_19 
REMARK    7  A    between atoms: C6_18  and  C7_23 
REMARK    8  A    between atoms: N10_32  and  N11_33 
ROOT
HETATM    1  C5  UNL     1      68.454  83.928  62.456  1.00  0.00     0.274 C 
HETATM    2  O1  UNL     1      67.823  84.330  63.510  1.00  0.00    -0.266 OA
HETATM    3  N4  UNL     1      68.168  84.599  61.260  1.00  0.00    -0.322 N 
ATOM      4  H4  UNL     1      68.627  84.340  60.387  1.00  0.00     0.165 HD
ENDROOT
BRANCH   1   5
HETATM    5  C4  UNL     1      69.371  82.841  62.649  1.00  0.00     0.166 A 
HETATM    6  C2  UNL     1      69.082  81.521  62.890  1.00  0.00     0.086 A 
HETATM    7  N2  UNL     1      70.297  80.898  62.997  1.00  0.00    -0.190 N 
HETATM    8  C1  UNL     1      71.272  81.803  62.828  1.00  0.00     0.697 A 
ATOM      9  H2  UNL     1      70.438  79.904  63.176  1.00  0.00     0.184 HD
HETATM   10  N10 UNL     1      70.733  83.005  62.613  1.00  0.00    -0.086 N 
BRANCH   6  11
HETATM   11  C3  UNL     1      67.775  80.815  63.038  1.00  0.00     0.289 C 
BRANCH  11  12
HETATM   12  N3  UNL     1      67.778  80.028  64.282  1.00  0.00    -0.074 N 
ATOM     13  H33 UNL     1      67.868  79.028  64.104  1.00  0.00     0.274 HD
ATOM     14  H32 UNL     1      68.637  80.159  64.817  1.00  0.00     0.274 HD
ATOM     15  H31 UNL     1      66.946  80.249  64.828  1.00  0.00     0.274 HD
ENDBRANCH  11  12
ENDBRANCH   6  11
BRANCH   8  16
HETATM   16  N1  UNL     1      72.556  81.548  62.868  1.00  0.00    -0.233 N 
ATOM     17  H12 UNL     1      72.970  80.663  63.163  1.00  0.00     0.174 HD
ATOM     18  H11 UNL     1      73.294  82.201  62.608  1.00  0.00     0.174 HD
ENDBRANCH   8  16
BRANCH  10  19
HETATM   19  N11 UNL     1      71.481  84.162  62.401  1.00  0.00    -0.324 N 
ATOM     20 2H11 UNL     1      72.458  84.261  62.125  1.00  0.00     0.178 HD
ATOM     21 1H11 UNL     1      71.108  85.105  62.505  1.00  0.00     0.178 HD
ENDBRANCH  10  19
ENDBRANCH   1   5
BRANCH   3  22
HETATM   22  C6  UNL     1      67.183  85.693  61.306  1.00  0.00     0.355 C 
BRANCH  22  23
HETATM   23  N5  UNL     1      67.853  86.881  61.852  1.00  0.00    -0.051 N 
ATOM     24  H53 UNL     1      67.263  87.712  61.833  1.00  0.00     0.277 HD
ATOM     25  H52 UNL     1      67.985  86.831  62.862  1.00  0.00     0.277 HD
ATOM     26  H51 UNL     1      68.729  87.006  61.345  1.00  0.00     0.277 HD
ENDBRANCH  22  23
BRANCH  22  27
HETATM   27  C7  UNL     1      66.636  85.978  59.975  1.00  0.00     0.164 A 
HETATM   28  N6  UNL     1      66.900  85.363  58.801  1.00  0.00    -0.269 N 
HETATM   29  N7  UNL     1      66.181  85.953  57.862  1.00  0.00    -0.227 N 
ATOM     30  H6  UNL     1      67.541  84.581  58.664  1.00  0.00     0.190 HD
HETATM   31  N8  UNL     1      65.472  86.921  58.413  1.00  0.00    -0.227 N 
ATOM     32  H7  UNL     1      66.174  85.702  56.874  1.00  0.00     0.210 HD
HETATM   33  N9  UNL     1      65.744  86.942  59.697  1.00  0.00    -0.269 N 
ATOM     34  H8  UNL     1      64.827  87.544  57.926  1.00  0.00     0.210 HD
ATOM     35  H9  UNL     1      65.342  87.589  60.376  1.00  0.00     0.190 HD
ENDBRANCH  22  27
ENDBRANCH   3  22
TORSDOF 8
ENDMDL
MODEL 4
REMARK VINA RESULT: -6.236664304      7.104     11.633
REMARK  8 active torsions:
REMARK  status: ('A' for Active; 'I' for Inactive)
REMARK    1  A    between atoms: N1_1  and  C1_4 
REMARK    2  A    between atoms: C2_7  and  C3_8 
REMARK    3  A    between atoms: C3_8  and  N3_9 
REMARK    4  A    between atoms: C4_13  and  C5_14 
REMARK       I    between atoms: C5_14  and  N4_16 
REMARK    5  A    between atoms: N4_16  and  C6_18 
REMARK    6  A    between atoms: C6_18  and  N5_19 
REMARK    7  A    between atoms: C6_18  and  C7_23 
REMARK    8  A    between atoms: N10_32  and  N11_33 
ROOT
HETATM    1  C5  UNL     1      73.115  77.429  61.782  1.00  0.00     0.274 C 
HETATM    2  O1  UNL     1      72.376  76.804  60.926  1.00  0.00    -0.266 OA
HETATM    3  N4  UNL     1      72.680  78.702  62.174  1.00  0.00    -0.322 N 
ATOM      4  H4  UNL     1      73.210  79.256  62.846  1.00  0.00     0.165 HD
ENDROOT
BRANCH   1   5
HETATM    5  C4  UNL     1      74.291  76.735  62.223  1.00  0.00     0.166 A 
HETATM    6  C2  UNL     1      74.400  75.803  63.224  1.00  0.00     0.086 A 
HETATM    7  N2  UNL     1      75.723  75.447  63.246  1.00  0.00    -0.190 N 
HETATM    8  C1  UNL     1      76.379  76.135  62.301  1.00  0.00     0.697 A 
ATOM      9  H2  UNL     1      76.141  74.768  63.881  1.00  0.00     0.184 HD
HETATM   10  N10 UNL     1      75.526  76.935  61.656  1.00  0.00    -0.086 N 
BRANCH   6  11
HETATM   11  C3  UNL     1      73.377  75.241  64.154  1.00  0.00     0.289 C 
BRANCH  11  12
HETATM   12  N3  UNL     1      73.960  74.120  64.909  1.00  0.00    -0.074 N 
ATOM     13  H33 UNL     1      74.517  73.505  64.316  1.00  0.00     0.274 HD
ATOM     14  H32 UNL     1      74.702  74.425  65.540  1.00  0.00     0.274 HD
ATOM     15  H31 UNL     1      73.220  73.616  65.399  1.00  0.00     0.274 HD
ENDBRANCH  11  12
ENDBRANCH   6  11
BRANCH   8  16
HETATM   16  N1  UNL     1      77.661  76.039  62.048  1.00  0.00    -0.233 N 
ATOM     17  H12 UNL     1      78.406  76.208  62.723  1.00  0.00     0.174 HD
ATOM     18  H11 UNL     1      78.065  75.786  61.147  1.00  0.00     0.174 HD
ENDBRANCH   8  16
BRANCH  10  19
HETATM   19  N11 UNL     1      75.896  77.783  60.615  1.00  0.00    -0.324 N 
ATOM     20 2H11 UNL     1      76.260  77.554  59.690  1.00  0.00     0.178 HD
ATOM     21 1H11 UNL     1      75.841  78.800  60.665  1.00  0.00     0.178 HD
ENDBRANCH  10  19
ENDBRANCH   1   5
BRANCH   3  22
HETATM   22  C6  UNL     1      71.433  79.213  61.582  1.00  0.00     0.355 C 
BRANCH  22  23
HETATM   23  N5  UNL     1      70.335  78.344  62.026  1.00  0.00    -0.051 N 
ATOM     24  H53 UNL     1      70.302  78.234  63.040  1.00  0.00     0.277 HD
ATOM     25  H52 UNL     1      69.417  78.773  61.907  1.00  0.00     0.277 HD
ATOM     26  H51 UNL     1      70.422  77.454  61.535  1.00  0.00     0.277 HD
ENDBRANCH  22  23
BRANCH  22  27
HETATM   27  C7  UNL     1      71.181  80.603  61.979  1.00  0.00     0.164 A 
HETATM   28  N6  UNL     1      72.007  81.467  62.609  1.00  0.00    -0.269 N 
HETATM   29  N7  UNL     1      71.359  82.609  62.765  1.00  0.00    -0.227 N 
ATOM     30  H6  UNL     1      72.962  81.273  62.910  1.00  0.00     0.190 HD
HETATM   31  N8  UNL     1      70.149  82.486  62.251  1.00  0.00    -0.227 N 
ATOM     32  H7  UNL     1      71.732  83.447  63.209  1.00  0.00     0.210 HD
HETATM   33  N9  UNL     1      70.033  81.269  61.772  1.00  0.00    -0.269 N 
ATOM     34  H8  UNL     1      69.430  83.209  62.231  1.00  0.00     0.210 HD
ATOM     35  H9  UNL     1      69.204  80.890  61.315  1.00  0.00     0.190 HD
ENDBRANCH  22  27
ENDBRANCH   3  22
TORSDOF 8
ENDMDL
MODEL 5
REMARK VINA RESULT: -6.186828537      2.155      2.861
REMARK  8 active torsions:
REMARK  status: ('A' for Active; 'I' for Inactive)
REMARK    1  A    between atoms: N1_1  and  C1_4 
REMARK    2  A    between atoms: C2_7  and  C3_8 
REMARK    3  A    between atoms: C3_8  and  N3_9 
REMARK    4  A    between atoms: C4_13  and  C5_14 
REMARK       I    between atoms: C5_14  and  N4_16 
REMARK    5  A    between atoms: N4_16  and  C6_18 
REMARK    6  A    between atoms: C6_18  and  N5_19 
REMARK    7  A    between atoms: C6_18  and  C7_23 
REMARK    8  A    between atoms: N10_32  and  N11_33 
ROOT
HETATM    1  C5  UNL     1      66.242  86.251  59.257  1.00  0.00     0.274 C 
HETATM    2  O1  UNL     1      66.433  85.182  58.554  1.00  0.00    -0.266 OA
HETATM    3  N4  UNL     1      66.932  86.333  60.473  1.00  0.00    -0.322 N 
ATOM      4  H4  UNL     1      66.834  87.145  61.081  1.00  0.00     0.165 HD
ENDROOT
BRANCH   1   5
HETATM    5  C4  UNL     1      65.345  87.220  58.695  1.00  0.00     0.166 A 
HETATM    6  C2  UNL     1      64.594  88.161  59.352  1.00  0.00     0.086 A 
HETATM    7  N2  UNL     1      63.914  88.833  58.371  1.00  0.00    -0.190 N 
HETATM    8  C1  UNL     1      64.243  88.318  57.177  1.00  0.00     0.697 A 
ATOM      9  H2  UNL     1      63.263  89.602  58.524  1.00  0.00     0.184 HD
HETATM   10  N10 UNL     1      65.120  87.325  57.344  1.00  0.00    -0.086 N 
BRANCH   6  11
HETATM   11  C3  UNL     1      64.457  88.463  60.808  1.00  0.00     0.289 C 
BRANCH  11  12
HETATM   12  N3  UNL     1      63.044  88.357  61.202  1.00  0.00    -0.074 N 
ATOM     13  H33 UNL     1      62.484  87.870  60.502  1.00  0.00     0.274 HD
ATOM     14  H32 UNL     1      62.907  87.707  61.976  1.00  0.00     0.274 HD
ATOM     15  H31 UNL     1      62.676  89.286  61.410  1.00  0.00     0.274 HD
ENDBRANCH  11  12
ENDBRANCH   6  11
BRANCH   8  16
HETATM   16  N1  UNL     1      63.776  88.726  56.023  1.00  0.00    -0.233 N 
ATOM     17  H12 UNL     1      62.964  88.332  55.546  1.00  0.00     0.174 HD
ATOM     18  H11 UNL     1      64.167  89.483  55.465  1.00  0.00     0.174 HD
ENDBRANCH   8  16
BRANCH  10  19
HETATM   19  N11 UNL     1      65.658  86.584  56.295  1.00  0.00    -0.324 N 
ATOM     20 2H11 UNL     1      66.400  86.830  55.640  1.00  0.00     0.178 HD
ATOM     21 1H11 UNL     1      65.349  85.643  56.048  1.00  0.00     0.178 HD
ENDBRANCH  10  19
ENDBRANCH   1   5
BRANCH   3  22
HETATM   22  C6  UNL     1      67.804  85.206  60.845  1.00  0.00     0.355 C 
BRANCH  22  23
HETATM   23  N5  UNL     1      68.891  85.134  59.860  1.00  0.00    -0.051 N 
ATOM     24  H53 UNL     1      68.823  84.316  59.253  1.00  0.00     0.277 HD
ATOM     25  H52 UNL     1      68.817  85.847  59.135  1.00  0.00     0.277 HD
ATOM     26  H51 UNL     1      69.775  85.177  60.366  1.00  0.00     0.277 HD
ENDBRANCH  22  23
BRANCH  22  27
HETATM   27  C7  UNL     1      68.346  85.371  62.198  1.00  0.00     0.164 A 
HETATM   28  N6  UNL     1      69.620  85.223  62.624  1.00  0.00    -0.269 N 
HETATM   29  N7  UNL     1      69.646  85.469  63.922  1.00  0.00    -0.227 N 
ATOM     30  H6  UNL     1      70.420  84.967  62.045  1.00  0.00     0.190 HD
HETATM   31  N8  UNL     1      68.424  85.767  64.325  1.00  0.00    -0.227 N 
ATOM     32  H7  UNL     1      70.474  85.434  64.517  1.00  0.00     0.210 HD
HETATM   33  N9  UNL     1      67.628  85.709  63.281  1.00  0.00    -0.269 N 
ATOM     34  H8  UNL     1      68.147  86.001  65.278  1.00  0.00     0.210 HD
ATOM     35  H9  UNL     1      66.625  85.892  63.292  1.00  0.00     0.190 HD
ENDBRANCH  22  27
ENDBRANCH   3  22
TORSDOF 8
ENDMDL
