MODEL 1
REMARK VINA RESULT: -8.783789720      0.000      0.000
REMARK  8 active torsions:
REMARK  status: ('A' for Active; 'I' for Inactive)
REMARK    1  A    between atoms: C6_6  and  O1_7 
REMARK    2  A    between atoms: O1_7  and  N1_8 
REMARK    3  A    between atoms: N1_8  and  C7_9 
REMARK    4  A    between atoms: C7_9  and  C8_10 
REMARK    5  A    between atoms: C12_16  and  N2_17 
REMARK       I    between atoms: N2_17  and  C13_19 
REMARK    6  A    between atoms: C13_19  and  C14_21 
REMARK    7  A    between atoms: C14_21  and  C15_22 
REMARK    8  A    between atoms: C21_30  and  O3_31 
ROOT
HETATM    1  C7  UNL     1       2.326   0.878  47.406  1.00  0.00     0.149 C 
ENDROOT
BRANCH   1   2
HETATM    2  N1  UNL     1       2.907   1.655  48.472  1.00  0.00    -0.100 NA
BRANCH   2   3
HETATM    3  O1  UNL     1       2.604   2.894  48.455  1.00  0.00    -0.275 OA
BRANCH   3   4
HETATM    4  C6  UNL     1       3.458   3.924  48.364  1.00  0.00     0.213 C 
HETATM    5  C4  UNL     1       4.762   3.564  47.647  1.00  0.00     0.020 C 
HETATM    6  C3  UNL     1       4.803   3.950  46.220  1.00  0.00     0.038 C 
HETATM    7  C5  UNL     1       5.879   4.256  48.392  1.00  0.00     0.013 C 
HETATM    8  C2  UNL     1       3.530   4.321  45.558  1.00  0.00     0.121 C 
HETATM    9  C1  UNL     1       3.162   3.371  44.409  1.00  0.00     0.040 C 
HETATM   10  O5  UNL     1       2.413   4.403  46.352  1.00  0.00    -0.347 OA
HETATM   11  C19 UNL     1       2.785   5.033  47.545  1.00  0.00     0.195 C 
HETATM   12  C20 UNL     1       1.559   5.564  48.201  1.00  0.00     0.103 C 
HETATM   13  O4  UNL     1       3.703   6.025  47.213  1.00  0.00    -0.352 OA
HETATM   14  C21 UNL     1       1.128   6.848  47.534  1.00  0.00     0.129 C 
HETATM   15  C22 UNL     1       2.219   7.859  47.701  1.00  0.00     0.034 C 
HETATM   16  C23 UNL     1       2.276   8.803  46.518  1.00  0.00     0.015 C 
HETATM   17  C24 UNL     1       3.516   7.178  47.970  1.00  0.00     0.178 C 
BRANCH  14  18
HETATM   18  O3  UNL     1      -0.073   7.321  48.111  1.00  0.00    -0.395 OA
ATOM     19  H3  UNL     1      -0.802   6.772  47.848  1.00  0.00     0.210 HD
ENDBRANCH  14  18
ENDBRANCH   3   4
ENDBRANCH   2   3
ENDBRANCH   1   2
BRANCH   1  20
HETATM   20  C8  UNL     1       1.138   0.051  47.957  1.00  0.00     0.027 C 
HETATM   21  C9  UNL     1       0.679  -0.880  46.931  1.00  0.00     0.019 C 
HETATM   22  C10 UNL     1       1.663  -1.353  45.909  1.00  0.00     0.086 C 
HETATM   23  S1  UNL     1       2.539  -2.805  46.619  1.00  0.00    -0.098 SA
HETATM   24  S2  UNL     1       3.446  -2.075  48.420  1.00  0.00    -0.096 SA
HETATM   25  C11 UNL     1       2.091  -1.699  49.555  1.00  0.00     0.111 C 
HETATM   26  C12 UNL     1       1.395  -0.419  49.338  1.00  0.00     0.099 C 
BRANCH  26  27
HETATM   27  N2  UNL     1       0.166  -0.487  50.130  1.00  0.00    -0.355 N 
HETATM   28  C13 UNL     1      -0.427   0.664  50.699  1.00  0.00     0.218 C 
HETATM   29  O2  UNL     1       0.136   1.780  50.488  1.00  0.00    -0.274 OA
ATOM     30  H2  UNL     1      -0.277  -1.395  50.277  1.00  0.00     0.162 HD
BRANCH  28  31
HETATM   31  C14 UNL     1      -1.646   0.649  51.516  1.00  0.00     0.108 C 
BRANCH  31  32
HETATM   32  C15 UNL     1      -1.296   0.725  52.983  1.00  0.00     0.005 A 
HETATM   33  C16 UNL     1      -2.431   0.430  53.924  1.00  0.00     0.084 A 
HETATM   34  C17 UNL     1      -1.693  -0.786  54.413  1.00  0.00     0.244 A 
HETATM   35  F1  UNL     1      -1.464  -0.734  55.785  1.00  0.00    -0.206 F 
HETATM   36  F2  UNL     1      -2.291  -1.988  54.076  1.00  0.00    -0.206 F 
HETATM   37  C18 UNL     1      -0.515  -0.406  53.561  1.00  0.00     0.084 A 
ENDBRANCH  31  32
ENDBRANCH  28  31
ENDBRANCH  26  27
ENDBRANCH   1  20
TORSDOF 8
ENDMDL
MODEL 2
REMARK VINA RESULT: -8.750855890      1.089      1.158
REMARK  8 active torsions:
REMARK  status: ('A' for Active; 'I' for Inactive)
REMARK    1  A    between atoms: C6_6  and  O1_7 
REMARK    2  A    between atoms: O1_7  and  N1_8 
REMARK    3  A    between atoms: N1_8  and  C7_9 
REMARK    4  A    between atoms: C7_9  and  C8_10 
REMARK    5  A    between atoms: C12_16  and  N2_17 
REMARK       I    between atoms: N2_17  and  C13_19 
REMARK    6  A    between atoms: C13_19  and  C14_21 
REMARK    7  A    between atoms: C14_21  and  C15_22 
REMARK    8  A    between atoms: C21_30  and  O3_31 
ROOT
HETATM    1  C7  UNL     1       2.180   0.171  46.705  1.00  0.00     0.149 C 
ENDROOT
BRANCH   1   2
HETATM    2  N1  UNL     1       2.726   1.205  47.549  1.00  0.00    -0.100 NA
BRANCH   2   3
HETATM    3  O1  UNL     1       2.870   2.338  46.980  1.00  0.00    -0.275 OA
BRANCH   3   4
HETATM    4  C6  UNL     1       3.729   3.305  47.335  1.00  0.00     0.213 C 
HETATM    5  C4  UNL     1       4.797   3.581  46.274  1.00  0.00     0.020 C 
HETATM    6  C3  UNL     1       4.509   4.738  45.400  1.00  0.00     0.038 C 
HETATM    7  C5  UNL     1       6.097   3.812  47.009  1.00  0.00     0.013 C 
HETATM    8  C2  UNL     1       3.134   5.291  45.401  1.00  0.00     0.121 C 
HETATM    9  C1  UNL     1       2.448   5.174  44.032  1.00  0.00     0.040 C 
HETATM   10  O5  UNL     1       2.250   4.768  46.312  1.00  0.00    -0.347 OA
HETATM   11  C19 UNL     1       2.934   4.605  47.522  1.00  0.00     0.195 C 
HETATM   12  C20 UNL     1       1.935   4.510  48.621  1.00  0.00     0.103 C 
HETATM   13  O4  UNL     1       3.794   5.691  47.654  1.00  0.00    -0.352 OA
HETATM   14  C21 UNL     1       1.422   5.885  48.975  1.00  0.00     0.129 C 
HETATM   15  C22 UNL     1       2.571   6.710  49.463  1.00  0.00     0.034 C 
HETATM   16  C23 UNL     1       2.387   8.170  49.107  1.00  0.00     0.015 C 
HETATM   17  C24 UNL     1       3.857   6.144  48.968  1.00  0.00     0.178 C 
BRANCH  14  18
HETATM   18  O3  UNL     1       0.424   5.793  49.973  1.00  0.00    -0.395 OA
ATOM     19  H3  UNL     1      -0.440   5.829  49.579  1.00  0.00     0.210 HD
ENDBRANCH  14  18
ENDBRANCH   3   4
ENDBRANCH   2   3
ENDBRANCH   1   2
BRANCH   1  20
HETATM   20  C8  UNL     1       1.068  -0.588  47.468  1.00  0.00     0.027 C 
HETATM   21  C9  UNL     1       0.632  -1.733  46.676  1.00  0.00     0.019 C 
HETATM   22  C10 UNL     1       1.605  -2.351  45.724  1.00  0.00     0.086 C 
HETATM   23  S1  UNL     1       2.596  -3.577  46.670  1.00  0.00    -0.098 SA
HETATM   24  S2  UNL     1       3.521  -2.446  48.239  1.00  0.00    -0.096 SA
HETATM   25  C11 UNL     1       2.187  -1.919  49.340  1.00  0.00     0.111 C 
HETATM   26  C12 UNL     1       1.405  -0.751  48.902  1.00  0.00     0.099 C 
BRANCH  26  27
HETATM   27  N2  UNL     1       0.212  -0.721  49.751  1.00  0.00    -0.355 N 
HETATM   28  C13 UNL     1      -0.242   0.468  50.368  1.00  0.00     0.218 C 
HETATM   29  O2  UNL     1       0.414   1.530  50.151  1.00  0.00    -0.274 OA
ATOM     30  H2  UNL     1      -0.307  -1.586  49.902  1.00  0.00     0.162 HD
BRANCH  28  31
HETATM   31  C14 UNL     1      -1.419   0.548  51.241  1.00  0.00     0.108 C 
BRANCH  31  32
HETATM   32  C15 UNL     1      -0.993   0.676  52.685  1.00  0.00     0.005 A 
HETATM   33  C16 UNL     1      -2.106   0.557  53.689  1.00  0.00     0.084 A 
HETATM   34  C17 UNL     1      -1.470  -0.697  54.225  1.00  0.00     0.244 A 
HETATM   35  F1  UNL     1      -1.173  -0.586  55.580  1.00  0.00    -0.206 F 
HETATM   36  F2  UNL     1      -2.202  -1.849  53.991  1.00  0.00    -0.206 F 
HETATM   37  C18 UNL     1      -0.302  -0.493  53.302  1.00  0.00     0.084 A 
ENDBRANCH  31  32
ENDBRANCH  28  31
ENDBRANCH  26  27
ENDBRANCH   1  20
TORSDOF 8
ENDMDL
MODEL 3
REMARK VINA RESULT: -8.638554715      1.145      1.378
REMARK  8 active torsions:
REMARK  status: ('A' for Active; 'I' for Inactive)
REMARK    1  A    between atoms: C6_6  and  O1_7 
REMARK    2  A    between atoms: O1_7  and  N1_8 
REMARK    3  A    between atoms: N1_8  and  C7_9 
REMARK    4  A    between atoms: C7_9  and  C8_10 
REMARK    5  A    between atoms: C12_16  and  N2_17 
REMARK       I    between atoms: N2_17  and  C13_19 
REMARK    6  A    between atoms: C13_19  and  C14_21 
REMARK    7  A    between atoms: C14_21  and  C15_22 
REMARK    8  A    between atoms: C21_30  and  O3_31 
ROOT
HETATM    1  C7  UNL     1       2.325   0.980  47.259  1.00  0.00     0.149 C 
ENDROOT
BRANCH   1   2
HETATM    2  N1  UNL     1       2.568   2.086  48.153  1.00  0.00    -0.100 NA
BRANCH   2   3
HETATM    3  O1  UNL     1       2.451   3.239  47.619  1.00  0.00    -0.275 OA
BRANCH   3   4
HETATM    4  C6  UNL     1       3.429   4.138  47.440  1.00  0.00     0.213 C 
HETATM    5  C4  UNL     1       3.938   4.196  45.998  1.00  0.00     0.020 C 
HETATM    6  C3  UNL     1       3.360   5.289  45.187  1.00  0.00     0.038 C 
HETATM    7  C5  UNL     1       5.439   4.355  46.067  1.00  0.00     0.013 C 
HETATM    8  C2  UNL     1       2.157   5.983  45.704  1.00  0.00     0.121 C 
HETATM    9  C1  UNL     1       0.935   5.810  44.790  1.00  0.00     0.040 C 
HETATM   10  O5  UNL     1       1.735   5.647  46.967  1.00  0.00    -0.347 OA
HETATM   11  C19 UNL     1       2.870   5.527  47.776  1.00  0.00     0.195 C 
HETATM   12  C20 UNL     1       2.451   5.644  49.199  1.00  0.00     0.103 C 
HETATM   13  O4  UNL     1       3.759   6.523  47.383  1.00  0.00    -0.352 OA
HETATM   14  C21 UNL     1       2.221   7.094  49.554  1.00  0.00     0.129 C 
HETATM   15  C22 UNL     1       3.511   7.833  49.388  1.00  0.00     0.034 C 
HETATM   16  C23 UNL     1       3.270   9.265  48.956  1.00  0.00     0.015 C 
HETATM   17  C24 UNL     1       4.417   7.089  48.470  1.00  0.00     0.178 C 
BRANCH  14  18
HETATM   18  O3  UNL     1       1.758   7.204  50.886  1.00  0.00    -0.395 OA
ATOM     19  H3  UNL     1       2.241   6.614  51.452  1.00  0.00     0.210 HD
ENDBRANCH  14  18
ENDBRANCH   3   4
ENDBRANCH   2   3
ENDBRANCH   1   2
BRANCH   1  20
HETATM   20  C8  UNL     1       1.174   0.108  47.816  1.00  0.00     0.027 C 
HETATM   21  C9  UNL     1       0.757  -0.851  46.799  1.00  0.00     0.019 C 
HETATM   22  C10 UNL     1       1.762  -1.290  45.782  1.00  0.00     0.086 C 
HETATM   23  S1  UNL     1       2.698  -2.696  46.505  1.00  0.00    -0.098 SA
HETATM   24  S2  UNL     1       3.571  -1.912  48.300  1.00  0.00    -0.096 SA
HETATM   25  C11 UNL     1       2.199  -1.585  49.431  1.00  0.00     0.111 C 
HETATM   26  C12 UNL     1       1.449  -0.339  49.202  1.00  0.00     0.099 C 
BRANCH  26  27
HETATM   27  N2  UNL     1       0.223  -0.453  49.993  1.00  0.00    -0.355 N 
HETATM   28  C13 UNL     1      -0.367   0.663  50.632  1.00  0.00     0.218 C 
HETATM   29  O2  UNL     1       0.197   1.789  50.486  1.00  0.00    -0.274 OA
ATOM     30  H2  UNL     1      -0.220  -1.367  50.088  1.00  0.00     0.162 HD
BRANCH  28  31
HETATM   31  C14 UNL     1      -1.583   0.600  51.451  1.00  0.00     0.108 C 
BRANCH  31  32
HETATM   32  C15 UNL     1      -1.232   0.688  52.918  1.00  0.00     0.005 A 
HETATM   33  C16 UNL     1      -2.376   0.433  53.861  1.00  0.00     0.084 A 
HETATM   34  C17 UNL     1      -1.667  -0.793  54.369  1.00  0.00     0.244 A 
HETATM   35  F1  UNL     1      -1.439  -0.727  55.740  1.00  0.00    -0.206 F 
HETATM   36  F2  UNL     1      -2.293  -1.985  54.047  1.00  0.00    -0.206 F 
HETATM   37  C18 UNL     1      -0.479  -0.453  53.512  1.00  0.00     0.084 A 
ENDBRANCH  31  32
ENDBRANCH  28  31
ENDBRANCH  26  27
ENDBRANCH   1  20
TORSDOF 8
ENDMDL
MODEL 4
REMARK VINA RESULT: -8.464733525     12.168     14.757
REMARK  8 active torsions:
REMARK  status: ('A' for Active; 'I' for Inactive)
REMARK    1  A    between atoms: C6_6  and  O1_7 
REMARK    2  A    between atoms: O1_7  and  N1_8 
REMARK    3  A    between atoms: N1_8  and  C7_9 
REMARK    4  A    between atoms: C7_9  and  C8_10 
REMARK    5  A    between atoms: C12_16  and  N2_17 
REMARK       I    between atoms: N2_17  and  C13_19 
REMARK    6  A    between atoms: C13_19  and  C14_21 
REMARK    7  A    between atoms: C14_21  and  C15_22 
REMARK    8  A    between atoms: C21_30  and  O3_31 
ROOT
HETATM    1  C7  UNL     1       3.703  15.157  57.767  1.00  0.00     0.149 C 
ENDROOT
BRANCH   1   2
HETATM    2  N1  UNL     1       4.333  14.867  56.503  1.00  0.00    -0.100 NA
BRANCH   2   3
HETATM    3  O1  UNL     1       4.626  13.638  56.323  1.00  0.00    -0.275 OA
BRANCH   3   4
HETATM    4  C6  UNL     1       5.843  13.135  56.075  1.00  0.00     0.213 C 
HETATM    5  C4  UNL     1       6.964  14.168  56.222  1.00  0.00     0.020 C 
HETATM    6  C3  UNL     1       7.672  14.123  57.519  1.00  0.00     0.038 C 
HETATM    7  C5  UNL     1       7.944  13.917  55.100  1.00  0.00     0.013 C 
HETATM    8  C2  UNL     1       7.053  13.360  58.629  1.00  0.00     0.121 C 
HETATM    9  C1  UNL     1       6.689  14.248  59.828  1.00  0.00     0.040 C 
HETATM   10  O5  UNL     1       5.923  12.638  58.337  1.00  0.00    -0.347 OA
HETATM   11  C19 UNL     1       6.119  12.023  57.096  1.00  0.00     0.195 C 
HETATM   12  C20 UNL     1       5.166  10.887  56.973  1.00  0.00     0.103 C 
HETATM   13  O4  UNL     1       7.453  11.628  57.043  1.00  0.00    -0.352 OA
HETATM   14  C21 UNL     1       5.670   9.700  57.760  1.00  0.00     0.129 C 
HETATM   15  C22 UNL     1       6.981   9.270  57.181  1.00  0.00     0.034 C 
HETATM   16  C23 UNL     1       7.890   8.697  58.249  1.00  0.00     0.015 C 
HETATM   17  C24 UNL     1       7.603  10.391  56.423  1.00  0.00     0.178 C 
BRANCH  14  18
HETATM   18  O3  UNL     1       4.735   8.641  57.701  1.00  0.00    -0.395 OA
ATOM     19  H3  UNL     1       4.644   8.235  58.555  1.00  0.00     0.210 HD
ENDBRANCH  14  18
ENDBRANCH   3   4
ENDBRANCH   2   3
ENDBRANCH   1   2
BRANCH   1  20
HETATM   20  C8  UNL     1       2.462  14.249  57.948  1.00  0.00     0.027 C 
HETATM   21  C9  UNL     1       2.477  13.670  59.286  1.00  0.00     0.019 C 
HETATM   22  C10 UNL     1       3.164  14.424  60.380  1.00  0.00     0.086 C 
HETATM   23  S1  UNL     1       1.948  15.615  61.074  1.00  0.00    -0.098 SA
HETATM   24  S2  UNL     1       1.366  16.840  59.413  1.00  0.00    -0.096 SA
HETATM   25  C11 UNL     1       0.437  15.767  58.292  1.00  0.00     0.111 C 
HETATM   26  C12 UNL     1       1.235  14.890  57.420  1.00  0.00     0.099 C 
BRANCH  26  27
HETATM   27  N2  UNL     1       0.300  13.909  56.867  1.00  0.00    -0.355 N 
HETATM   28  C13 UNL     1       0.382  13.464  55.527  1.00  0.00     0.218 C 
HETATM   29  O2  UNL     1       1.313  13.934  54.807  1.00  0.00    -0.274 OA
ATOM     30  H2  UNL     1      -0.435  13.535  57.468  1.00  0.00     0.162 HD
BRANCH  28  31
HETATM   31  C14 UNL     1      -0.541  12.498  54.919  1.00  0.00     0.108 C 
BRANCH  31  32
HETATM   32  C15 UNL     1       0.220  11.300  54.401  1.00  0.00     0.005 A 
HETATM   33  C16 UNL     1       0.809  10.414  55.463  1.00  0.00     0.084 A 
HETATM   34  C17 UNL     1      -0.093   9.297  55.013  1.00  0.00     0.244 A 
HETATM   35  F1  UNL     1       0.630   8.172  54.628  1.00  0.00    -0.206 F 
HETATM   36  F2  UNL     1      -1.065   8.946  55.934  1.00  0.00    -0.206 F 
HETATM   37  C18 UNL     1      -0.579  10.154  53.878  1.00  0.00     0.084 A 
ENDBRANCH  31  32
ENDBRANCH  28  31
ENDBRANCH  26  27
ENDBRANCH   1  20
TORSDOF 8
ENDMDL
MODEL 5
REMARK VINA RESULT: -8.245960471      1.167      1.328
REMARK  8 active torsions:
REMARK  status: ('A' for Active; 'I' for Inactive)
REMARK    1  A    between atoms: C6_6  and  O1_7 
REMARK    2  A    between atoms: O1_7  and  N1_8 
REMARK    3  A    between atoms: N1_8  and  C7_9 
REMARK    4  A    between atoms: C7_9  and  C8_10 
REMARK    5  A    between atoms: C12_16  and  N2_17 
REMARK       I    between atoms: N2_17  and  C13_19 
REMARK    6  A    between atoms: C13_19  and  C14_21 
REMARK    7  A    between atoms: C14_21  and  C15_22 
REMARK    8  A    between atoms: C21_30  and  O3_31 
ROOT
HETATM    1  C7  UNL     1       2.161   0.279  46.408  1.00  0.00     0.149 C 
ENDROOT
BRANCH   1   2
HETATM    2  N1  UNL     1       2.801   1.170  47.344  1.00  0.00    -0.100 NA
BRANCH   2   3
HETATM    3  O1  UNL     1       2.973   2.359  46.916  1.00  0.00    -0.275 OA
BRANCH   3   4
HETATM    4  C6  UNL     1       3.203   3.450  47.661  1.00  0.00     0.213 C 
HETATM    5  C4  UNL     1       4.619   3.496  48.242  1.00  0.00     0.020 C 
HETATM    6  C3  UNL     1       5.569   4.332  47.479  1.00  0.00     0.038 C 
HETATM    7  C5  UNL     1       4.498   4.023  49.653  1.00  0.00     0.013 C 
HETATM    8  C2  UNL     1       5.186   4.755  46.111  1.00  0.00     0.121 C 
HETATM    9  C1  UNL     1       6.132   4.203  45.034  1.00  0.00     0.040 C 
HETATM   10  O5  UNL     1       3.916   4.446  45.693  1.00  0.00    -0.347 OA
HETATM   11  C19 UNL     1       3.046   4.684  46.762  1.00  0.00     0.195 C 
HETATM   12  C20 UNL     1       1.666   4.828  46.227  1.00  0.00     0.103 C 
HETATM   13  O4  UNL     1       3.504   5.827  47.413  1.00  0.00    -0.352 OA
HETATM   14  C21 UNL     1       1.481   6.205  45.632  1.00  0.00     0.129 C 
HETATM   15  C22 UNL     1       1.666   7.219  46.716  1.00  0.00     0.034 C 
HETATM   16  C23 UNL     1       2.262   8.500  46.171  1.00  0.00     0.015 C 
HETATM   17  C24 UNL     1       2.455   6.637  47.837  1.00  0.00     0.178 C 
BRANCH  14  18
HETATM   18  O3  UNL     1       0.192   6.322  45.062  1.00  0.00    -0.395 OA
ATOM     19  H3  UNL     1       0.220   6.889  44.300  1.00  0.00     0.210 HD
ENDBRANCH  14  18
ENDBRANCH   3   4
ENDBRANCH   2   3
ENDBRANCH   1   2
BRANCH   1  20
HETATM   20  C8  UNL     1       1.035  -0.505  47.125  1.00  0.00     0.027 C 
HETATM   21  C9  UNL     1       0.535  -1.552  46.242  1.00  0.00     0.019 C 
HETATM   22  C10 UNL     1       1.461  -2.116  45.212  1.00  0.00     0.086 C 
HETATM   23  S1  UNL     1       2.421  -3.463  46.014  1.00  0.00    -0.098 SA
HETATM   24  S2  UNL     1       3.425  -2.521  47.657  1.00  0.00    -0.096 SA
HETATM   25  C11 UNL     1       2.138  -2.049  48.836  1.00  0.00     0.111 C 
HETATM   26  C12 UNL     1       1.396  -0.815  48.529  1.00  0.00     0.099 C 
BRANCH  26  27
HETATM   27  N2  UNL     1       0.224  -0.818  49.406  1.00  0.00    -0.355 N 
HETATM   28  C13 UNL     1      -0.161   0.320  50.151  1.00  0.00     0.218 C 
HETATM   29  O2  UNL     1       0.539   1.369  50.026  1.00  0.00    -0.274 OA
ATOM     30  H2  UNL     1      -0.332  -1.670  49.483  1.00  0.00     0.162 HD
BRANCH  28  31
HETATM   31  C14 UNL     1      -1.314   0.364  51.058  1.00  0.00     0.108 C 
BRANCH  31  32
HETATM   32  C15 UNL     1      -0.854   0.567  52.482  1.00  0.00     0.005 A 
HETATM   33  C16 UNL     1      -1.951   0.570  53.511  1.00  0.00     0.084 A 
HETATM   34  C17 UNL     1      -1.366  -0.674  54.121  1.00  0.00     0.244 A 
HETATM   35  F1  UNL     1      -1.036  -0.488  55.459  1.00  0.00    -0.206 F 
HETATM   36  F2  UNL     1      -2.157  -1.802  53.977  1.00  0.00    -0.206 F 
HETATM   37  C18 UNL     1      -0.208  -0.591  53.166  1.00  0.00     0.084 A 
ENDBRANCH  31  32
ENDBRANCH  28  31
ENDBRANCH  26  27
ENDBRANCH   1  20
TORSDOF 8
ENDMDL
