MODEL 1
REMARK VINA RESULT: -7.977128342      0.000      0.000
REMARK  12 active torsions:
REMARK  status: ('A' for Active; 'I' for Inactive)
REMARK    1  A    between atoms: O1_2  and  C2_3 
REMARK    2  A    between atoms: C4_5  and  C5_6 
REMARK    3  A    between atoms: C6_9  and  N2_10 
REMARK    4  A    between atoms: N2_10  and  C7_12 
REMARK    5  A    between atoms: C7_12  and  C9_14 
REMARK    6  A    between atoms: C15_24  and  C16_25 
REMARK    7  A    between atoms: C17_26  and  C18_27 
REMARK    8  A    between atoms: C18_27  and  O2_28 
REMARK    9  A    between atoms: C18_27  and  C19_30 
REMARK   10  A    between atoms: C19_30  and  O3_31 
REMARK   11  A    between atoms: C22_37  and  O4_38 
REMARK   12  A    between atoms: C24_40  and  O5_41 
ROOT
HETATM    1  C5  UNL     1       5.484  12.497  57.999  1.00  0.00     0.117 A 
HETATM    2  N1  UNL     1       4.336  12.687  57.349  1.00  0.00    -0.327 N 
ATOM      3  H1  UNL     1       4.220  12.286  56.418  1.00  0.00     0.169 HD
HETATM    4  C6  UNL     1       3.333  13.389  57.885  1.00  0.00     0.123 A 
HETATM    5  C15 UNL     1       3.502  13.933  59.156  1.00  0.00     0.077 A 
HETATM    6  C20 UNL     1       4.691  13.732  59.819  1.00  0.00     0.114 A 
HETATM    7  N4  UNL     1       5.662  13.013  59.219  1.00  0.00    -0.350 N 
ATOM      8  H4  UNL     1       6.545  12.860  59.704  1.00  0.00     0.166 HD
ENDROOT
BRANCH   4   9
HETATM    9  N2  UNL     1       2.200  13.608  57.309  1.00  0.00    -0.367 N 
ATOM     10  H2  UNL     1       1.450  14.107  57.788  1.00  0.00     0.161 HD
BRANCH   9  11
HETATM   11  C7  UNL     1       2.031  13.116  55.954  1.00  0.00     0.115 C 
HETATM   12  C8  UNL     1       2.185  14.261  55.024  1.00  0.00     0.037 C 
BRANCH  11  13
HETATM   13  C9  UNL     1       0.806  12.362  55.877  1.00  0.00     0.004 A 
HETATM   14  C10 UNL     1       0.747  11.109  55.317  1.00  0.00     0.038 A 
HETATM   15  C11 UNL     1      -0.445  10.391  55.248  1.00  0.00     0.057 A 
HETATM   16 CL1  UNL     1      -0.452   8.796  54.520  1.00  0.00    -0.082 Cl
HETATM   17  C12 UNL     1      -1.594  10.953  55.757  1.00  0.00     0.028 A 
HETATM   18  C13 UNL     1      -2.849  10.167  55.673  1.00  0.00     0.070 C 
HETATM   19  N3  UNL     1      -1.535  12.180  56.305  1.00  0.00    -0.349 N 
HETATM   20  C14 UNL     1      -0.366  12.885  56.372  1.00  0.00     0.112 A 
ATOM     21  H3  UNL     1      -2.387  12.595  56.682  1.00  0.00     0.166 HD
HETATM   22 CL2  UNL     1      -0.449  14.467  57.114  1.00  0.00    -0.064 Cl
ENDBRANCH  11  13
ENDBRANCH   9  11
ENDBRANCH   4   9
BRANCH   5  23
HETATM   23  C16 UNL     1       2.442  14.694  59.758  1.00  0.00    -0.059 C 
HETATM   24  C17 UNL     1       1.565  15.347  60.271  1.00  0.00    -0.067 C 
BRANCH  24  25
HETATM   25  C18 UNL     1       0.489  16.154  60.883  1.00  0.00     0.220 C 
BRANCH  25  26
HETATM   26  O2  UNL     1      -0.588  15.305  61.067  1.00  0.00    -0.381 OA
ATOM     27  H2  UNL     1      -1.370  15.843  61.015  1.00  0.00     0.211 HD
ENDBRANCH  25  26
BRANCH  25  28
HETATM   28  C19 UNL     1       0.939  16.749  62.197  1.00  0.00     0.208 C 
BRANCH  28  29
HETATM   29  O3  UNL     1       0.942  15.724  63.134  1.00  0.00    -0.397 OA
ATOM     30  H3  UNL     1       1.156  16.112  63.975  1.00  0.00     0.209 HD
ENDBRANCH  28  29
ENDBRANCH  25  28
ENDBRANCH  24  25
ENDBRANCH   5  23
BRANCH   1  31
HETATM   31  C4  UNL     1       6.530  11.710  57.327  1.00  0.00     0.013 A 
HETATM   32  C3  UNL     1       7.310  12.336  56.359  1.00  0.00     0.055 A 
HETATM   33  C2  UNL     1       8.317  11.709  55.662  1.00  0.00     0.105 A 
HETATM   34  C24 UNL     1       8.541  10.384  55.962  1.00  0.00     0.135 A 
HETATM   35  C22 UNL     1       7.783   9.718  56.924  1.00  0.00     0.105 A 
HETATM   36  C21 UNL     1       6.778  10.389  57.601  1.00  0.00     0.055 A 
BRANCH  33  37
HETATM   37  O1  UNL     1       9.083  12.354  54.701  1.00  0.00    -0.353 OA
HETATM   38  C1  UNL     1       8.834  13.732  54.491  1.00  0.00     0.210 C 
ENDBRANCH  33  37
BRANCH  34  39
HETATM   39  O5  UNL     1       9.539   9.699  55.296  1.00  0.00    -0.351 OA
HETATM   40  C25 UNL     1      10.841   9.671  55.830  1.00  0.00     0.210 C 
ENDBRANCH  34  39
BRANCH  35  41
HETATM   41  O4  UNL     1       8.040   8.382  57.197  1.00  0.00    -0.353 OA
HETATM   42  C23 UNL     1       7.394   7.356  56.500  1.00  0.00     0.210 C 
ENDBRANCH  35  41
ENDBRANCH   1  31
TORSDOF 12
ENDMDL
MODEL 2
REMARK VINA RESULT: -7.887445451      8.469     12.822
REMARK  12 active torsions:
REMARK  status: ('A' for Active; 'I' for Inactive)
REMARK    1  A    between atoms: O1_2  and  C2_3 
REMARK    2  A    between atoms: C4_5  and  C5_6 
REMARK    3  A    between atoms: C6_9  and  N2_10 
REMARK    4  A    between atoms: N2_10  and  C7_12 
REMARK    5  A    between atoms: C7_12  and  C9_14 
REMARK    6  A    between atoms: C15_24  and  C16_25 
REMARK    7  A    between atoms: C17_26  and  C18_27 
REMARK    8  A    between atoms: C18_27  and  O2_28 
REMARK    9  A    between atoms: C18_27  and  C19_30 
REMARK   10  A    between atoms: C19_30  and  O3_31 
REMARK   11  A    between atoms: C22_37  and  O4_38 
REMARK   12  A    between atoms: C24_40  and  O5_41 
ROOT
HETATM    1  C5  UNL     1       0.398   8.012  50.503  1.00  0.00     0.117 A 
HETATM    2  N1  UNL     1       1.663   7.761  50.170  1.00  0.00    -0.327 N 
ATOM      3  H1  UNL     1       2.403   7.956  50.845  1.00  0.00     0.169 HD
HETATM    4  C6  UNL     1       1.989   7.260  48.974  1.00  0.00     0.123 A 
HETATM    5  C15 UNL     1       0.971   6.997  48.060  1.00  0.00     0.077 A 
HETATM    6  C20 UNL     1      -0.333   7.260  48.414  1.00  0.00     0.114 A 
HETATM    7  N4  UNL     1      -0.590   7.766  49.637  1.00  0.00    -0.350 N 
ATOM      8  H4  UNL     1      -1.554   7.963  49.905  1.00  0.00     0.166 HD
ENDROOT
BRANCH   4   9
HETATM    9  N2  UNL     1       3.192   6.995  48.592  1.00  0.00    -0.367 N 
ATOM     10  H2  UNL     1       3.483   6.040  48.382  1.00  0.00     0.161 HD
BRANCH   9  11
HETATM   11  C7  UNL     1       4.117   8.107  48.473  1.00  0.00     0.115 C 
HETATM   12  C8  UNL     1       3.505   9.124  47.583  1.00  0.00     0.037 C 
BRANCH  11  13
HETATM   13  C9  UNL     1       5.414   7.601  48.104  1.00  0.00     0.004 A 
HETATM   14  C10 UNL     1       5.573   6.525  47.265  1.00  0.00     0.038 A 
HETATM   15  C11 UNL     1       6.834   6.045  46.916  1.00  0.00     0.057 A 
HETATM   16 CL1  UNL     1       6.967   4.667  45.840  1.00  0.00    -0.082 Cl
HETATM   17  C12 UNL     1       7.950   6.668  47.427  1.00  0.00     0.028 A 
HETATM   18  C13 UNL     1       9.281   6.138  47.040  1.00  0.00     0.070 C 
HETATM   19  N3  UNL     1       7.794   7.721  48.248  1.00  0.00    -0.349 N 
HETATM   20  C14 UNL     1       6.557   8.192  48.591  1.00  0.00     0.112 A 
ATOM     21  H3  UNL     1       8.621   8.181  48.626  1.00  0.00     0.166 HD
HETATM   22 CL2  UNL     1       6.515   9.569  49.668  1.00  0.00    -0.064 Cl
ENDBRANCH  11  13
ENDBRANCH   9  11
ENDBRANCH   4   9
BRANCH   5  23
HETATM   23  C16 UNL     1       1.290   6.460  46.766  1.00  0.00    -0.059 C 
HETATM   24  C17 UNL     1       1.555   6.027  45.670  1.00  0.00    -0.067 C 
BRANCH  24  25
HETATM   25  C18 UNL     1       1.895   5.499  44.332  1.00  0.00     0.220 C 
BRANCH  25  26
HETATM   26  O2  UNL     1       2.664   6.466  43.709  1.00  0.00    -0.381 OA
ATOM     27  H2  UNL     1       2.059   7.092  43.328  1.00  0.00     0.211 HD
ENDBRANCH  25  26
BRANCH  25  28
HETATM   28  C19 UNL     1       2.648   4.194  44.439  1.00  0.00     0.208 C 
BRANCH  28  29
HETATM   29  O3  UNL     1       3.956   4.440  44.043  1.00  0.00    -0.397 OA
ATOM     30  H3  UNL     1       4.371   3.596  43.902  1.00  0.00     0.209 HD
ENDBRANCH  28  29
ENDBRANCH  25  28
ENDBRANCH  24  25
ENDBRANCH   5  23
BRANCH   1  31
HETATM   31  C4  UNL     1       0.138   8.563  51.843  1.00  0.00     0.013 A 
HETATM   32  C3  UNL     1       0.247   7.714  52.941  1.00  0.00     0.055 A 
HETATM   33  C2  UNL     1       0.031   8.109  54.241  1.00  0.00     0.105 A 
HETATM   34  C24 UNL     1      -0.314   9.427  54.434  1.00  0.00     0.135 A 
HETATM   35  C22 UNL     1      -0.435  10.312  53.363  1.00  0.00     0.105 A 
HETATM   36  C21 UNL     1      -0.207   9.871  52.070  1.00  0.00     0.055 A 
BRANCH  33  37
HETATM   37  O1  UNL     1       0.146   7.244  55.319  1.00  0.00    -0.353 OA
HETATM   38  C1  UNL     1       1.452   6.852  55.701  1.00  0.00     0.210 C 
ENDBRANCH  33  37
BRANCH  34  39
HETATM   39  O5  UNL     1      -0.545   9.885  55.717  1.00  0.00    -0.351 OA
HETATM   40  C25 UNL     1      -1.862   9.941  56.211  1.00  0.00     0.210 C 
ENDBRANCH  34  39
BRANCH  35  41
HETATM   41  O4  UNL     1      -0.784  11.634  53.601  1.00  0.00    -0.353 OA
HETATM   42  C23 UNL     1       0.054  12.494  54.319  1.00  0.00     0.210 C 
ENDBRANCH  35  41
ENDBRANCH   1  31
TORSDOF 12
ENDMDL
MODEL 3
REMARK VINA RESULT: -7.870348919      0.167      2.119
REMARK  12 active torsions:
REMARK  status: ('A' for Active; 'I' for Inactive)
REMARK    1  A    between atoms: O1_2  and  C2_3 
REMARK    2  A    between atoms: C4_5  and  C5_6 
REMARK    3  A    between atoms: C6_9  and  N2_10 
REMARK    4  A    between atoms: N2_10  and  C7_12 
REMARK    5  A    between atoms: C7_12  and  C9_14 
REMARK    6  A    between atoms: C15_24  and  C16_25 
REMARK    7  A    between atoms: C17_26  and  C18_27 
REMARK    8  A    between atoms: C18_27  and  O2_28 
REMARK    9  A    between atoms: C18_27  and  C19_30 
REMARK   10  A    between atoms: C19_30  and  O3_31 
REMARK   11  A    between atoms: C22_37  and  O4_38 
REMARK   12  A    between atoms: C24_40  and  O5_41 
ROOT
HETATM    1  C5  UNL     1       5.521  12.550  57.934  1.00  0.00     0.117 A 
HETATM    2  N1  UNL     1       4.370  12.748  57.292  1.00  0.00    -0.327 N 
ATOM      3  H1  UNL     1       4.253  12.365  56.354  1.00  0.00     0.169 HD
HETATM    4  C6  UNL     1       3.365  13.435  57.844  1.00  0.00     0.123 A 
HETATM    5  C15 UNL     1       3.537  13.955  59.126  1.00  0.00     0.077 A 
HETATM    6  C20 UNL     1       4.729  13.746  59.781  1.00  0.00     0.114 A 
HETATM    7  N4  UNL     1       5.700  13.043  59.164  1.00  0.00    -0.350 N 
ATOM      8  H4  UNL     1       6.586  12.884  59.644  1.00  0.00     0.166 HD
ENDROOT
BRANCH   4   9
HETATM    9  N2  UNL     1       2.230  13.661  57.276  1.00  0.00    -0.367 N 
ATOM     10  H2  UNL     1       1.489  14.171  57.757  1.00  0.00     0.161 HD
BRANCH   9  11
HETATM   11  C7  UNL     1       2.045  13.159  55.927  1.00  0.00     0.115 C 
HETATM   12  C8  UNL     1       2.179  14.299  54.988  1.00  0.00     0.037 C 
BRANCH  11  13
HETATM   13  C9  UNL     1       0.823  12.398  55.872  1.00  0.00     0.004 A 
HETATM   14  C10 UNL     1       0.761  11.146  55.310  1.00  0.00     0.038 A 
HETATM   15  C11 UNL     1      -0.427  10.420  55.264  1.00  0.00     0.057 A 
HETATM   16 CL1  UNL     1      -0.439   8.827  54.531  1.00  0.00    -0.082 Cl
HETATM   17  C12 UNL     1      -1.569  10.973  55.796  1.00  0.00     0.028 A 
HETATM   18  C13 UNL     1      -2.821  10.180  55.735  1.00  0.00     0.070 C 
HETATM   19  N3  UNL     1      -1.508  12.199  56.347  1.00  0.00    -0.349 N 
HETATM   20  C14 UNL     1      -0.342  12.911  56.393  1.00  0.00     0.112 A 
ATOM     21  H3  UNL     1      -2.354  12.608  56.741  1.00  0.00     0.166 HD
HETATM   22 CL2  UNL     1      -0.420  14.491  57.140  1.00  0.00    -0.064 Cl
ENDBRANCH  11  13
ENDBRANCH   9  11
ENDBRANCH   4   9
BRANCH   5  23
HETATM   23  C16 UNL     1       2.475  14.699  59.746  1.00  0.00    -0.059 C 
HETATM   24  C17 UNL     1       1.595  15.342  60.267  1.00  0.00    -0.067 C 
BRANCH  24  25
HETATM   25  C18 UNL     1       0.511  16.131  60.888  1.00  0.00     0.220 C 
BRANCH  25  26
HETATM   26  O2  UNL     1      -0.551  15.265  61.077  1.00  0.00    -0.381 OA
ATOM     27  H2  UNL     1      -0.413  14.845  61.918  1.00  0.00     0.211 HD
ENDBRANCH  25  26
BRANCH  25  28
HETATM   28  C19 UNL     1       0.961  16.731  62.199  1.00  0.00     0.208 C 
BRANCH  28  29
HETATM   29  O3  UNL     1       0.931  15.716  63.148  1.00  0.00    -0.397 OA
ATOM     30  H3  UNL     1       1.718  15.800  63.675  1.00  0.00     0.209 HD
ENDBRANCH  28  29
ENDBRANCH  25  28
ENDBRANCH  24  25
ENDBRANCH   5  23
BRANCH   1  31
HETATM   31  C4  UNL     1       6.568  11.781  57.244  1.00  0.00     0.013 A 
HETATM   32  C3  UNL     1       6.749  10.446  57.595  1.00  0.00     0.055 A 
HETATM   33  C2  UNL     1       7.692   9.623  57.023  1.00  0.00     0.105 A 
HETATM   34  C24 UNL     1       8.489  10.183  56.051  1.00  0.00     0.135 A 
HETATM   35  C22 UNL     1       8.342  11.516  55.668  1.00  0.00     0.105 A 
HETATM   36  C21 UNL     1       7.378  12.308  56.271  1.00  0.00     0.055 A 
BRANCH  33  37
HETATM   37  O1  UNL     1       7.853   8.295  57.390  1.00  0.00    -0.353 OA
HETATM   38  C1  UNL     1       7.322   7.312  56.520  1.00  0.00     0.210 C 
ENDBRANCH  33  37
BRANCH  34  39
HETATM   39  O5  UNL     1       9.455   9.408  55.439  1.00  0.00    -0.351 OA
HETATM   40  C25 UNL     1      10.726   9.284  56.030  1.00  0.00     0.210 C 
ENDBRANCH  34  39
BRANCH  35  41
HETATM   41  O4  UNL     1       9.164  12.042  54.683  1.00  0.00    -0.353 OA
HETATM   42  C23 UNL     1       9.262  13.422  54.472  1.00  0.00     0.210 C 
ENDBRANCH  35  41
ENDBRANCH   1  31
TORSDOF 12
ENDMDL
MODEL 4
REMARK VINA RESULT: -7.829861357      3.232      7.751
REMARK  12 active torsions:
REMARK  status: ('A' for Active; 'I' for Inactive)
REMARK    1  A    between atoms: O1_2  and  C2_3 
REMARK    2  A    between atoms: C4_5  and  C5_6 
REMARK    3  A    between atoms: C6_9  and  N2_10 
REMARK    4  A    between atoms: N2_10  and  C7_12 
REMARK    5  A    between atoms: C7_12  and  C9_14 
REMARK    6  A    between atoms: C15_24  and  C16_25 
REMARK    7  A    between atoms: C17_26  and  C18_27 
REMARK    8  A    between atoms: C18_27  and  O2_28 
REMARK    9  A    between atoms: C18_27  and  C19_30 
REMARK   10  A    between atoms: C19_30  and  O3_31 
REMARK   11  A    between atoms: C22_37  and  O4_38 
REMARK   12  A    between atoms: C24_40  and  O5_41 
ROOT
HETATM    1  C5  UNL     1       3.033  10.485  56.467  1.00  0.00     0.117 A 
HETATM    2  N1  UNL     1       3.703  11.635  56.530  1.00  0.00    -0.327 N 
ATOM      3  H1  UNL     1       3.251  12.491  56.210  1.00  0.00     0.169 HD
HETATM    4  C6  UNL     1       4.953  11.695  57.002  1.00  0.00     0.123 A 
HETATM    5  C15 UNL     1       5.561  10.519  57.435  1.00  0.00     0.077 A 
HETATM    6  C20 UNL     1       4.860   9.336  57.366  1.00  0.00     0.114 A 
HETATM    7  N4  UNL     1       3.603   9.348  56.879  1.00  0.00    -0.350 N 
ATOM      8  H4  UNL     1       3.079   8.475  56.824  1.00  0.00     0.166 HD
ENDROOT
BRANCH   4   9
HETATM    9  N2  UNL     1       5.654  12.774  57.089  1.00  0.00    -0.367 N 
ATOM     10  H2  UNL     1       6.520  12.801  57.627  1.00  0.00     0.161 HD
BRANCH   9  11
HETATM   11  C7  UNL     1       5.162  13.950  56.394  1.00  0.00     0.115 C 
HETATM   12  C8  UNL     1       6.331  14.756  55.966  1.00  0.00     0.037 C 
BRANCH  11  13
HETATM   13  C9  UNL     1       4.175  14.602  57.216  1.00  0.00     0.004 A 
HETATM   14  C10 UNL     1       4.429  14.981  58.512  1.00  0.00     0.038 A 
HETATM   15  C11 UNL     1       3.465  15.611  59.296  1.00  0.00     0.057 A 
HETATM   16 CL1  UNL     1       3.855  16.068  60.943  1.00  0.00    -0.082 Cl
HETATM   17  C12 UNL     1       2.224  15.859  58.756  1.00  0.00     0.028 A 
HETATM   18  C13 UNL     1       1.215  16.532  59.612  1.00  0.00     0.070 C 
HETATM   19  N3  UNL     1       1.975  15.489  57.488  1.00  0.00    -0.349 N 
HETATM   20  C14 UNL     1       2.921  14.870  56.718  1.00  0.00     0.112 A 
ATOM     21  H3  UNL     1       1.055  15.674  57.089  1.00  0.00     0.166 HD
HETATM   22 CL2  UNL     1       2.449  14.448  55.088  1.00  0.00    -0.064 Cl
ENDBRANCH  11  13
ENDBRANCH   9  11
ENDBRANCH   4   9
BRANCH   5  23
HETATM   23  C16 UNL     1       6.904  10.552  57.946  1.00  0.00    -0.059 C 
HETATM   24  C17 UNL     1       8.026  10.586  58.394  1.00  0.00    -0.067 C 
BRANCH  24  25
HETATM   25  C18 UNL     1       9.396  10.611  58.945  1.00  0.00     0.220 C 
BRANCH  25  26
HETATM   26  O2  UNL     1       9.526  11.806  59.631  1.00  0.00    -0.381 OA
ATOM     27  H2  UNL     1       9.918  12.426  59.027  1.00  0.00     0.211 HD
ENDBRANCH  25  26
BRANCH  25  28
HETATM   28  C19 UNL     1       9.634   9.433  59.859  1.00  0.00     0.208 C 
BRANCH  28  29
HETATM   29  O3  UNL     1       8.765   9.563  60.934  1.00  0.00    -0.397 OA
ATOM     30  H3  UNL     1       7.883   9.448  60.599  1.00  0.00     0.209 HD
ENDBRANCH  28  29
ENDBRANCH  25  28
ENDBRANCH  24  25
ENDBRANCH   5  23
BRANCH   1  31
HETATM   31  C4  UNL     1       1.662  10.519  55.933  1.00  0.00     0.013 A 
HETATM   32  C3  UNL     1       0.932  11.697  56.059  1.00  0.00     0.055 A 
HETATM   33  C2  UNL     1      -0.356  11.855  55.601  1.00  0.00     0.105 A 
HETATM   34  C24 UNL     1      -0.928  10.764  54.987  1.00  0.00     0.135 A 
HETATM   35  C22 UNL     1      -0.233   9.564  54.839  1.00  0.00     0.105 A 
HETATM   36  C21 UNL     1       1.063   9.451  55.316  1.00  0.00     0.055 A 
BRANCH  33  37
HETATM   37  O1  UNL     1      -1.064  13.040  55.738  1.00  0.00    -0.353 OA
HETATM   38  C1  UNL     1      -1.433  13.428  57.049  1.00  0.00     0.210 C 
ENDBRANCH  33  37
BRANCH  34  39
HETATM   39  O5  UNL     1      -2.220  10.859  54.505  1.00  0.00    -0.351 OA
HETATM   40  C25 UNL     1      -3.299  10.476  55.324  1.00  0.00     0.210 C 
ENDBRANCH  34  39
BRANCH  35  41
HETATM   41  O4  UNL     1      -0.845   8.488  54.214  1.00  0.00    -0.353 OA
HETATM   42  C23 UNL     1      -0.179   7.728  53.246  1.00  0.00     0.210 C 
ENDBRANCH  35  41
ENDBRANCH   1  31
TORSDOF 12
ENDMDL
MODEL 5
REMARK VINA RESULT: -7.819073095      3.330      8.114
REMARK  12 active torsions:
REMARK  status: ('A' for Active; 'I' for Inactive)
REMARK    1  A    between atoms: O1_2  and  C2_3 
REMARK    2  A    between atoms: C4_5  and  C5_6 
REMARK    3  A    between atoms: C6_9  and  N2_10 
REMARK    4  A    between atoms: N2_10  and  C7_12 
REMARK    5  A    between atoms: C7_12  and  C9_14 
REMARK    6  A    between atoms: C15_24  and  C16_25 
REMARK    7  A    between atoms: C17_26  and  C18_27 
REMARK    8  A    between atoms: C18_27  and  O2_28 
REMARK    9  A    between atoms: C18_27  and  C19_30 
REMARK   10  A    between atoms: C19_30  and  O3_31 
REMARK   11  A    between atoms: C22_37  and  O4_38 
REMARK   12  A    between atoms: C24_40  and  O5_41 
ROOT
HETATM    1  C5  UNL     1       3.106  10.861  56.565  1.00  0.00     0.117 A 
HETATM    2  N1  UNL     1       3.746  12.008  56.789  1.00  0.00    -0.327 N 
ATOM      3  H1  UNL     1       3.270  12.889  56.597  1.00  0.00     0.169 HD
HETATM    4  C6  UNL     1       4.997  12.034  57.261  1.00  0.00     0.123 A 
HETATM    5  C15 UNL     1       5.639  10.825  57.520  1.00  0.00     0.077 A 
HETATM    6  C20 UNL     1       4.969   9.646  57.285  1.00  0.00     0.114 A 
HETATM    7  N4  UNL     1       3.708   9.693  56.809  1.00  0.00    -0.350 N 
ATOM      8  H4  UNL     1       3.207   8.823  56.631  1.00  0.00     0.166 HD
ENDROOT
BRANCH   4   9
HETATM    9  N2  UNL     1       5.670  13.108  57.500  1.00  0.00    -0.367 N 
ATOM     10  H2  UNL     1       6.662  13.070  57.735  1.00  0.00     0.161 HD
BRANCH   9  11
HETATM   11  C7  UNL     1       4.962  14.373  57.421  1.00  0.00     0.115 C 
HETATM   12  C8  UNL     1       5.873  15.376  56.821  1.00  0.00     0.037 C 
BRANCH  11  13
HETATM   13  C9  UNL     1       4.402  14.678  58.714  1.00  0.00     0.004 A 
HETATM   14  C10 UNL     1       5.143  14.620  59.869  1.00  0.00     0.038 A 
HETATM   15  C11 UNL     1       4.589  14.917  61.112  1.00  0.00     0.057 A 
HETATM   16 CL1  UNL     1       5.589  14.823  62.549  1.00  0.00    -0.082 Cl
HETATM   17  C12 UNL     1       3.263  15.279  61.183  1.00  0.00     0.028 A 
HETATM   18  C13 UNL     1       2.698  15.591  62.519  1.00  0.00     0.070 C 
HETATM   19  N3  UNL     1       2.538  15.336  60.052  1.00  0.00    -0.349 N 
HETATM   20  C14 UNL     1       3.082  15.044  58.831  1.00  0.00     0.112 A 
ATOM     21  H3  UNL     1       1.556  15.604  60.105  1.00  0.00     0.166 HD
HETATM   22 CL2  UNL     1       2.013  15.162  57.452  1.00  0.00    -0.064 Cl
ENDBRANCH  11  13
ENDBRANCH   9  11
ENDBRANCH   4   9
BRANCH   5  23
HETATM   23  C16 UNL     1       6.984  10.820  58.026  1.00  0.00    -0.059 C 
HETATM   24  C17 UNL     1       8.107  10.823  58.471  1.00  0.00    -0.067 C 
BRANCH  24  25
HETATM   25  C18 UNL     1       9.480  10.808  59.016  1.00  0.00     0.220 C 
BRANCH  25  26
HETATM   26  O2  UNL     1       9.621  11.962  59.766  1.00  0.00    -0.381 OA
ATOM     27  H2  UNL     1      10.504  12.279  59.614  1.00  0.00     0.211 HD
ENDBRANCH  25  26
BRANCH  25  28
HETATM   28  C19 UNL     1       9.713   9.580  59.864  1.00  0.00     0.208 C 
BRANCH  28  29
HETATM   29  O3  UNL     1       8.773   9.599  60.885  1.00  0.00    -0.397 OA
ATOM     30  H3  UNL     1       8.288   8.783  60.838  1.00  0.00     0.209 HD
ENDBRANCH  28  29
ENDBRANCH  25  28
ENDBRANCH  24  25
ENDBRANCH   5  23
BRANCH   1  31
HETATM   31  C4  UNL     1       1.731  10.934  56.045  1.00  0.00     0.013 A 
HETATM   32  C3  UNL     1       1.197   9.808  55.425  1.00  0.00     0.055 A 
HETATM   33  C2  UNL     1      -0.074   9.751  54.901  1.00  0.00     0.105 A 
HETATM   34  C24 UNL     1      -0.836  10.892  55.009  1.00  0.00     0.135 A 
HETATM   35  C22 UNL     1      -0.341  12.043  55.622  1.00  0.00     0.105 A 
HETATM   36  C21 UNL     1       0.946  12.055  56.137  1.00  0.00     0.055 A 
BRANCH  33  37
HETATM   37  O1  UNL     1      -0.584   8.616  54.287  1.00  0.00    -0.353 OA
HETATM   38  C1  UNL     1       0.266   7.488  54.198  1.00  0.00     0.210 C 
ENDBRANCH  33  37
BRANCH  34  39
HETATM   39  O5  UNL     1      -2.121  10.898  54.501  1.00  0.00    -0.351 OA
HETATM   40  C25 UNL     1      -3.197  10.512  55.323  1.00  0.00     0.210 C 
ENDBRANCH  34  39
BRANCH  35  41
HETATM   41  O4  UNL     1      -1.141  13.172  55.712  1.00  0.00    -0.353 OA
HETATM   42  C23 UNL     1      -1.669  13.599  56.935  1.00  0.00     0.210 C 
ENDBRANCH  35  41
ENDBRANCH   1  31
TORSDOF 12
ENDMDL
