MODEL 1
REMARK VINA RESULT: -8.771117433      0.000      0.000
REMARK  8 active torsions:
REMARK  status: ('A' for Active; 'I' for Inactive)
REMARK    1  A    between atoms: C4_6  and  S1_7 
REMARK    2  A    between atoms: S1_7  and  C5_8 
REMARK    3  A    between atoms: C5_8  and  C6_9 
REMARK    4  A    between atoms: C6_9  and  O1_10 
REMARK    5  A    between atoms: O1_10  and  C7_11 
REMARK    6  A    between atoms: N4_19  and  N5_21 
REMARK    7  A    between atoms: C11_23  and  C12_24 
REMARK    8  A    between atoms: C17_31  and  O2_32 
ROOT
HETATM    1  C7  UNL     1       0.170   9.024  54.155  1.00  0.00     0.239 A 
HETATM    2  N2  UNL     1       0.958   8.508  55.108  1.00  0.00    -0.311 N 
ATOM      3  H2  UNL     1       1.414   9.162  55.744  1.00  0.00     0.170 HD
HETATM    4  C8  UNL     1       1.194   7.204  55.292  1.00  0.00     0.096 A 
HETATM    5  C9  UNL     1       2.067   6.640  56.348  1.00  0.00     0.089 C 
HETATM    6  N3  UNL     1       0.586   6.359  54.449  1.00  0.00    -0.179 N 
ATOM      7  H3  UNL     1       0.743   5.357  54.560  1.00  0.00     0.185 HD
HETATM    8  C10 UNL     1      -0.220   6.782  53.463  1.00  0.00     0.701 A 
HETATM    9  N4  UNL     1      -0.822   6.032  52.641  1.00  0.00    -0.132 N 
ATOM     10  H4  UNL     1      -1.390   6.540  51.964  1.00  0.00     0.205 HD
HETATM   11  N6  UNL     1      -0.414   8.105  53.335  1.00  0.00    -0.153 N 
ATOM     12  H6  UNL     1      -1.025   8.437  52.589  1.00  0.00     0.188 HD
ENDROOT
BRANCH   9  13
HETATM   13  N5  UNL     1      -0.862   4.693  52.483  1.00  0.00    -0.297 N 
HETATM   14  C11 UNL     1      -1.747   3.828  52.742  1.00  0.00     0.122 C 
ATOM     15  H5  UNL     1      -0.012   4.303  52.075  1.00  0.00     0.186 HD
BRANCH  14  16
HETATM   16  C12 UNL     1      -1.468   2.428  52.443  1.00  0.00     0.017 A 
HETATM   17  C13 UNL     1      -0.815   2.038  51.294  1.00  0.00     0.034 A 
HETATM   18  C14 UNL     1      -0.539   0.721  50.991  1.00  0.00     0.013 A 
HETATM   19 BR1  UNL     1       0.378   0.256  49.368  1.00  0.00    -0.051 Br
HETATM   20  C15 UNL     1      -0.926  -0.281  51.862  1.00  0.00     0.041 A 
HETATM   21  C16 UNL     1      -1.579   0.094  53.012  1.00  0.00     0.046 A 
HETATM   22 BR2  UNL     1      -2.126  -1.258  54.233  1.00  0.00    -0.048 Br
HETATM   23  C17 UNL     1      -1.856   1.410  53.319  1.00  0.00     0.094 A 
BRANCH  23  24
HETATM   24  O2  UNL     1      -2.517   1.787  54.480  1.00  0.00    -0.358 OA
ATOM     25  H2  UNL     1      -3.441   1.574  54.544  1.00  0.00     0.217 HD
ENDBRANCH  23  24
ENDBRANCH  14  16
ENDBRANCH   9  13
BRANCH   1  26
HETATM   26  O1  UNL     1      -0.066  10.373  53.976  1.00  0.00    -0.321 OA
BRANCH  26  27
HETATM   27  C6  UNL     1      -1.138  11.040  54.546  1.00  0.00     0.189 C 
BRANCH  27  28
HETATM   28  C5  UNL     1      -0.772  12.062  55.592  1.00  0.00     0.109 C 
BRANCH  28  29
HETATM   29  S1  UNL     1       0.668  13.048  55.017  1.00  0.00    -0.092 SA
BRANCH  29  30
HETATM   30  C4  UNL     1       2.169  12.381  55.714  1.00  0.00     0.144 A 
HETATM   31  N1  UNL     1       3.338  13.023  55.876  1.00  0.00    -0.345 N 
HETATM   32  C3  UNL     1       4.244  12.178  56.442  1.00  0.00     0.114 A 
ATOM     33  H1  UNL     1       3.519  13.992  55.615  1.00  0.00     0.167 HD
HETATM   34  C2  UNL     1       3.591  10.971  56.631  1.00  0.00     0.022 A 
HETATM   35  C1  UNL     1       4.198   9.731  57.230  1.00  0.00     0.069 C 
HETATM   36  N7  UNL     1       2.339  11.131  56.179  1.00  0.00    -0.339 N 
ATOM     37  H7  UNL     1       1.619  10.409  56.187  1.00  0.00     0.168 HD
ENDBRANCH  29  30
ENDBRANCH  28  29
ENDBRANCH  27  28
ENDBRANCH  26  27
ENDBRANCH   1  26
TORSDOF 8
ENDMDL
MODEL 2
REMARK VINA RESULT: -8.702619265      1.851      2.362
REMARK  8 active torsions:
REMARK  status: ('A' for Active; 'I' for Inactive)
REMARK    1  A    between atoms: C4_6  and  S1_7 
REMARK    2  A    between atoms: S1_7  and  C5_8 
REMARK    3  A    between atoms: C5_8  and  C6_9 
REMARK    4  A    between atoms: C6_9  and  O1_10 
REMARK    5  A    between atoms: O1_10  and  C7_11 
REMARK    6  A    between atoms: N4_19  and  N5_21 
REMARK    7  A    between atoms: C11_23  and  C12_24 
REMARK    8  A    between atoms: C17_31  and  O2_32 
ROOT
HETATM    1  C7  UNL     1       0.153   9.030  54.192  1.00  0.00     0.239 A 
HETATM    2  N2  UNL     1       0.959   8.512  55.129  1.00  0.00    -0.311 N 
ATOM      3  H2  UNL     1       1.418   9.164  55.765  1.00  0.00     0.170 HD
HETATM    4  C8  UNL     1       1.209   7.208  55.297  1.00  0.00     0.096 A 
HETATM    5  C9  UNL     1       2.102   6.642  56.336  1.00  0.00     0.089 C 
HETATM    6  N3  UNL     1       0.597   6.366  54.454  1.00  0.00    -0.179 N 
ATOM      7  H3  UNL     1       0.764   5.364  54.554  1.00  0.00     0.185 HD
HETATM    8  C10 UNL     1      -0.226   6.791  53.484  1.00  0.00     0.701 A 
HETATM    9  N4  UNL     1      -0.833   6.043  52.663  1.00  0.00    -0.132 N 
ATOM     10  H4  UNL     1      -1.415   6.553  51.998  1.00  0.00     0.205 HD
HETATM   11  N6  UNL     1      -0.433   8.113  53.370  1.00  0.00    -0.153 N 
ATOM     12  H6  UNL     1      -1.057   8.447  52.636  1.00  0.00     0.188 HD
ENDROOT
BRANCH   9  13
HETATM   13  N5  UNL     1      -0.863   4.706  52.492  1.00  0.00    -0.297 N 
HETATM   14  C11 UNL     1      -1.736   3.830  52.757  1.00  0.00     0.122 C 
ATOM     15  H5  UNL     1      -0.016   4.327  52.067  1.00  0.00     0.186 HD
BRANCH  14  16
HETATM   16  C12 UNL     1      -1.449   2.436  52.440  1.00  0.00     0.017 A 
HETATM   17  C13 UNL     1      -0.792   2.064  51.286  1.00  0.00     0.034 A 
HETATM   18  C14 UNL     1      -0.509   0.753  50.967  1.00  0.00     0.013 A 
HETATM   19 BR1  UNL     1       0.412   0.314  49.339  1.00  0.00    -0.051 Br
HETATM   20  C15 UNL     1      -0.891  -0.263  51.824  1.00  0.00     0.041 A 
HETATM   21  C16 UNL     1      -1.547   0.094  52.978  1.00  0.00     0.046 A 
HETATM   22 BR2  UNL     1      -2.088  -1.277  54.181  1.00  0.00    -0.048 Br
HETATM   23  C17 UNL     1      -1.831   1.404  53.302  1.00  0.00     0.094 A 
BRANCH  23  24
HETATM   24  O2  UNL     1      -2.496   1.762  54.468  1.00  0.00    -0.358 OA
ATOM     25  H2  UNL     1      -1.963   1.951  55.232  1.00  0.00     0.217 HD
ENDBRANCH  23  24
ENDBRANCH  14  16
ENDBRANCH   9  13
BRANCH   1  26
HETATM   26  O1  UNL     1      -0.097  10.378  54.029  1.00  0.00    -0.321 OA
BRANCH  26  27
HETATM   27  C6  UNL     1      -1.283  10.983  54.410  1.00  0.00     0.189 C 
BRANCH  27  28
HETATM   28  C5  UNL     1      -1.806  10.571  55.763  1.00  0.00     0.109 C 
BRANCH  28  29
HETATM   29  S1  UNL     1      -2.629  12.002  56.571  1.00  0.00    -0.092 SA
BRANCH  29  30
HETATM   30  C4  UNL     1      -1.398  13.078  57.285  1.00  0.00     0.144 A 
HETATM   31  N1  UNL     1      -1.421  13.629  58.510  1.00  0.00    -0.345 N 
HETATM   32  C3  UNL     1      -0.303  14.388  58.686  1.00  0.00     0.114 A 
ATOM     33  H1  UNL     1      -2.160  13.499  59.201  1.00  0.00     0.167 HD
HETATM   34  C2  UNL     1       0.427  14.290  57.514  1.00  0.00     0.022 A 
HETATM   35  C1  UNL     1       1.745  14.965  57.243  1.00  0.00     0.069 C 
HETATM   36  N7  UNL     1      -0.265  13.491  56.689  1.00  0.00    -0.339 N 
ATOM     37  H7  UNL     1       0.026  13.232  55.746  1.00  0.00     0.168 HD
ENDBRANCH  29  30
ENDBRANCH  28  29
ENDBRANCH  27  28
ENDBRANCH  26  27
ENDBRANCH   1  26
TORSDOF 8
ENDMDL
MODEL 3
REMARK VINA RESULT: -8.669771596      0.880      1.938
REMARK  8 active torsions:
REMARK  status: ('A' for Active; 'I' for Inactive)
REMARK    1  A    between atoms: C4_6  and  S1_7 
REMARK    2  A    between atoms: S1_7  and  C5_8 
REMARK    3  A    between atoms: C5_8  and  C6_9 
REMARK    4  A    between atoms: C6_9  and  O1_10 
REMARK    5  A    between atoms: O1_10  and  C7_11 
REMARK    6  A    between atoms: N4_19  and  N5_21 
REMARK    7  A    between atoms: C11_23  and  C12_24 
REMARK    8  A    between atoms: C17_31  and  O2_32 
ROOT
HETATM    1  C7  UNL     1       0.229   9.001  54.120  1.00  0.00     0.239 A 
HETATM    2  N2  UNL     1       1.009   8.527  55.101  1.00  0.00    -0.311 N 
ATOM      3  H2  UNL     1       1.473   9.208  55.702  1.00  0.00     0.170 HD
HETATM    4  C8  UNL     1       1.229   7.231  55.355  1.00  0.00     0.096 A 
HETATM    5  C9  UNL     1       2.095   6.714  56.440  1.00  0.00     0.089 C 
HETATM    6  N3  UNL     1       0.613   6.351  54.556  1.00  0.00    -0.179 N 
ATOM      7  H3  UNL     1       0.757   5.354  54.721  1.00  0.00     0.185 HD
HETATM    8  C10 UNL     1      -0.188   6.730  53.548  1.00  0.00     0.701 A 
HETATM    9  N4  UNL     1      -0.798   5.944  52.766  1.00  0.00    -0.132 N 
ATOM     10  H4  UNL     1      -1.359   6.423  52.062  1.00  0.00     0.205 HD
HETATM   11  N6  UNL     1      -0.365   8.046  53.349  1.00  0.00    -0.153 N 
ATOM     12  H6  UNL     1      -0.971   8.345  52.586  1.00  0.00     0.188 HD
ENDROOT
BRANCH   9  13
HETATM   13  N5  UNL     1      -0.854   4.600  52.680  1.00  0.00    -0.297 N 
HETATM   14  C11 UNL     1      -1.805   3.775  52.797  1.00  0.00     0.122 C 
ATOM     15  H5  UNL     1       0.047   4.164  52.480  1.00  0.00     0.186 HD
BRANCH  14  16
HETATM   16  C12 UNL     1      -1.522   2.353  52.643  1.00  0.00     0.017 A 
HETATM   17  C13 UNL     1      -1.950   1.414  53.557  1.00  0.00     0.034 A 
HETATM   18  C14 UNL     1      -1.696   0.065  53.431  1.00  0.00     0.013 A 
HETATM   19 BR1  UNL     1      -2.328  -1.182  54.749  1.00  0.00    -0.051 Br
HETATM   20  C15 UNL     1      -0.977  -0.402  52.346  1.00  0.00     0.041 A 
HETATM   21  C16 UNL     1      -0.544   0.523  51.426  1.00  0.00     0.046 A 
HETATM   22 BR2  UNL     1       0.448  -0.083  49.920  1.00  0.00    -0.048 Br
HETATM   23  C17 UNL     1      -0.797   1.873  51.548  1.00  0.00     0.094 A 
BRANCH  23  24
HETATM   24  O2  UNL     1      -0.357   2.807  50.618  1.00  0.00    -0.358 OA
ATOM     25  H2  UNL     1      -0.343   2.540  49.706  1.00  0.00     0.217 HD
ENDBRANCH  23  24
ENDBRANCH  14  16
ENDBRANCH   9  13
BRANCH   1  26
HETATM   26  O1  UNL     1       0.010  10.341  53.870  1.00  0.00    -0.321 OA
BRANCH  26  27
HETATM   27  C6  UNL     1      -1.077  11.041  54.368  1.00  0.00     0.189 C 
BRANCH  27  28
HETATM   28  C5  UNL     1      -0.761  12.002  55.485  1.00  0.00     0.109 C 
BRANCH  28  29
HETATM   29  S1  UNL     1       0.658  13.066  55.004  1.00  0.00    -0.092 SA
BRANCH  29  30
HETATM   30  C4  UNL     1       2.163  12.412  55.704  1.00  0.00     0.144 A 
HETATM   31  N1  UNL     1       3.326  13.065  55.869  1.00  0.00    -0.345 N 
HETATM   32  C3  UNL     1       4.238  12.227  56.437  1.00  0.00     0.114 A 
ATOM     33  H1  UNL     1       3.499  14.035  55.609  1.00  0.00     0.167 HD
HETATM   34  C2  UNL     1       3.596  11.015  56.624  1.00  0.00     0.022 A 
HETATM   35  C1  UNL     1       4.212   9.780  57.224  1.00  0.00     0.069 C 
HETATM   36  N7  UNL     1       2.343  11.163  56.169  1.00  0.00    -0.339 N 
ATOM     37  H7  UNL     1       1.630  10.434  56.174  1.00  0.00     0.168 HD
ENDBRANCH  29  30
ENDBRANCH  28  29
ENDBRANCH  27  28
ENDBRANCH  26  27
ENDBRANCH   1  26
TORSDOF 8
ENDMDL
MODEL 4
REMARK VINA RESULT: -8.597451591      2.027      3.041
REMARK  8 active torsions:
REMARK  status: ('A' for Active; 'I' for Inactive)
REMARK    1  A    between atoms: C4_6  and  S1_7 
REMARK    2  A    between atoms: S1_7  and  C5_8 
REMARK    3  A    between atoms: C5_8  and  C6_9 
REMARK    4  A    between atoms: C6_9  and  O1_10 
REMARK    5  A    between atoms: O1_10  and  C7_11 
REMARK    6  A    between atoms: N4_19  and  N5_21 
REMARK    7  A    between atoms: C11_23  and  C12_24 
REMARK    8  A    between atoms: C17_31  and  O2_32 
ROOT
HETATM    1  C7  UNL     1       0.200   9.018  54.177  1.00  0.00     0.239 A 
HETATM    2  N2  UNL     1       1.016   8.541  55.127  1.00  0.00    -0.311 N 
ATOM      3  H2  UNL     1       1.488   9.220  55.725  1.00  0.00     0.170 HD
HETATM    4  C8  UNL     1       1.263   7.245  55.353  1.00  0.00     0.096 A 
HETATM    5  C9  UNL     1       2.168   6.724  56.405  1.00  0.00     0.089 C 
HETATM    6  N3  UNL     1       0.636   6.368  54.559  1.00  0.00    -0.179 N 
ATOM      7  H3  UNL     1       0.799   5.371  54.704  1.00  0.00     0.185 HD
HETATM    8  C10 UNL     1      -0.200   6.751  53.581  1.00  0.00     0.701 A 
HETATM    9  N4  UNL     1      -0.821   5.968  52.805  1.00  0.00    -0.132 N 
ATOM     10  H4  UNL     1      -1.410   6.449  52.125  1.00  0.00     0.205 HD
HETATM   11  N6  UNL     1      -0.402   8.067  53.408  1.00  0.00    -0.153 N 
ATOM     12  H6  UNL     1      -1.035   8.369  52.668  1.00  0.00     0.188 HD
ENDROOT
BRANCH   9  13
HETATM   13  N5  UNL     1      -0.859   4.625  52.698  1.00  0.00    -0.297 N 
HETATM   14  C11 UNL     1      -1.801   3.786  52.798  1.00  0.00     0.122 C 
ATOM     15  H5  UNL     1       0.048   4.203  52.497  1.00  0.00     0.186 HD
BRANCH  14  16
HETATM   16  C12 UNL     1      -1.500   2.370  52.624  1.00  0.00     0.017 A 
HETATM   17  C13 UNL     1      -1.910   1.415  53.529  1.00  0.00     0.034 A 
HETATM   18  C14 UNL     1      -1.638   0.070  53.385  1.00  0.00     0.013 A 
HETATM   19 BR1  UNL     1      -2.245  -1.201  54.690  1.00  0.00    -0.051 Br
HETATM   20  C15 UNL     1      -0.919  -0.373  52.290  1.00  0.00     0.041 A 
HETATM   21  C16 UNL     1      -0.503   0.570  51.380  1.00  0.00     0.046 A 
HETATM   22 BR2  UNL     1       0.489  -0.004  49.861  1.00  0.00    -0.048 Br
HETATM   23  C17 UNL     1      -0.774   1.914  51.520  1.00  0.00     0.094 A 
BRANCH  23  24
HETATM   24  O2  UNL     1      -0.351   2.865  50.599  1.00  0.00    -0.358 OA
ATOM     25  H2  UNL     1      -0.766   3.720  50.635  1.00  0.00     0.217 HD
ENDBRANCH  23  24
ENDBRANCH  14  16
ENDBRANCH   9  13
BRANCH   1  26
HETATM   26  O1  UNL     1      -0.046  10.359  53.955  1.00  0.00    -0.321 OA
BRANCH  26  27
HETATM   27  C6  UNL     1      -1.197  11.002  54.379  1.00  0.00     0.189 C 
BRANCH  27  28
HETATM   28  C5  UNL     1      -1.696  10.587  55.740  1.00  0.00     0.109 C 
BRANCH  28  29
HETATM   29  S1  UNL     1      -2.544  12.004  56.547  1.00  0.00    -0.092 SA
BRANCH  29  30
HETATM   30  C4  UNL     1      -1.334  13.084  57.289  1.00  0.00     0.144 A 
HETATM   31  N1  UNL     1      -1.392  13.644  58.509  1.00  0.00    -0.345 N 
HETATM   32  C3  UNL     1      -0.280  14.404  58.713  1.00  0.00     0.114 A 
ATOM     33  H1  UNL     1      -2.152  13.520  59.178  1.00  0.00     0.167 HD
HETATM   34  C2  UNL     1       0.485  14.296  57.563  1.00  0.00     0.022 A 
HETATM   35  C1  UNL     1       1.810  14.968  57.326  1.00  0.00     0.069 C 
HETATM   36  N7  UNL     1      -0.184  13.491  56.724  1.00  0.00    -0.339 N 
ATOM     37  H7  UNL     1       0.135  13.226  55.792  1.00  0.00     0.168 HD
ENDBRANCH  29  30
ENDBRANCH  28  29
ENDBRANCH  27  28
ENDBRANCH  26  27
ENDBRANCH   1  26
TORSDOF 8
ENDMDL
MODEL 5
REMARK VINA RESULT: -8.505126787      2.470      3.641
REMARK  8 active torsions:
REMARK  status: ('A' for Active; 'I' for Inactive)
REMARK    1  A    between atoms: C4_6  and  S1_7 
REMARK    2  A    between atoms: S1_7  and  C5_8 
REMARK    3  A    between atoms: C5_8  and  C6_9 
REMARK    4  A    between atoms: C6_9  and  O1_10 
REMARK    5  A    between atoms: O1_10  and  C7_11 
REMARK    6  A    between atoms: N4_19  and  N5_21 
REMARK    7  A    between atoms: C11_23  and  C12_24 
REMARK    8  A    between atoms: C17_31  and  O2_32 
ROOT
HETATM    1  C7  UNL     1       0.122   9.089  51.730  1.00  0.00     0.239 A 
HETATM    2  N2  UNL     1       0.481   8.757  50.483  1.00  0.00    -0.311 N 
ATOM      3  H2  UNL     1       0.771   9.511  49.861  1.00  0.00     0.170 HD
HETATM    4  C8  UNL     1       0.490   7.513  49.988  1.00  0.00     0.096 A 
HETATM    5  C9  UNL     1       0.887   7.152  48.607  1.00  0.00     0.089 C 
HETATM    6  N3  UNL     1       0.107   6.534  50.818  1.00  0.00    -0.179 N 
ATOM      7  H3  UNL     1       0.102   5.574  50.474  1.00  0.00     0.185 HD
HETATM    8  C10 UNL     1      -0.270   6.770  52.084  1.00  0.00     0.701 A 
HETATM    9  N4  UNL     1      -0.637   5.887  52.912  1.00  0.00    -0.132 N 
ATOM     10  H4  UNL     1      -0.886   6.263  53.827  1.00  0.00     0.205 HD
HETATM   11  N6  UNL     1      -0.256   8.042  52.516  1.00  0.00    -0.153 N 
ATOM     12  H6  UNL     1      -0.540   8.232  53.477  1.00  0.00     0.188 HD
ENDROOT
BRANCH   9  13
HETATM   13  N5  UNL     1      -0.764   4.548  52.825  1.00  0.00    -0.297 N 
HETATM   14  C11 UNL     1      -1.762   3.776  52.917  1.00  0.00     0.122 C 
ATOM     15  H5  UNL     1       0.117   4.062  52.652  1.00  0.00     0.186 HD
BRANCH  14  16
HETATM   16  C12 UNL     1      -1.554   2.340  52.772  1.00  0.00     0.017 A 
HETATM   17  C13 UNL     1      -2.015   1.433  53.702  1.00  0.00     0.034 A 
HETATM   18  C14 UNL     1      -1.831   0.071  53.586  1.00  0.00     0.013 A 
HETATM   19 BR1  UNL     1      -2.505  -1.130  54.925  1.00  0.00    -0.051 Br
HETATM   20  C15 UNL     1      -1.152  -0.441  52.496  1.00  0.00     0.041 A 
HETATM   21  C16 UNL     1      -0.686   0.453  51.561  1.00  0.00     0.046 A 
HETATM   22 BR2  UNL     1       0.252  -0.217  50.047  1.00  0.00    -0.048 Br
HETATM   23  C17 UNL     1      -0.869   1.815  51.672  1.00  0.00     0.094 A 
BRANCH  23  24
HETATM   24  O2  UNL     1      -0.397   2.716  50.727  1.00  0.00    -0.358 OA
ATOM     25  H2  UNL     1       0.546   2.817  50.655  1.00  0.00     0.217 HD
ENDBRANCH  23  24
ENDBRANCH  14  16
ENDBRANCH   9  13
BRANCH   1  26
HETATM   26  O1  UNL     1       0.118  10.378  52.228  1.00  0.00    -0.321 OA
BRANCH  26  27
HETATM   27  C6  UNL     1      -0.104  10.676  53.563  1.00  0.00     0.189 C 
BRANCH  27  28
HETATM   28  C5  UNL     1      -1.447  11.291  53.865  1.00  0.00     0.109 C 
BRANCH  28  29
HETATM   29  S1  UNL     1      -1.730  11.297  55.681  1.00  0.00    -0.092 SA
BRANCH  29  30
HETATM   30  C4  UNL     1      -0.921  12.710  56.410  1.00  0.00     0.144 A 
HETATM   31  N1  UNL     1      -1.485  13.652  57.185  1.00  0.00    -0.345 N 
HETATM   32  C3  UNL     1      -0.541  14.565  57.547  1.00  0.00     0.114 A 
ATOM     33  H1  UNL     1      -2.467  13.679  57.458  1.00  0.00     0.167 HD
HETATM   34  C2  UNL     1       0.646  14.155  56.965  1.00  0.00     0.022 A 
HETATM   35  C1  UNL     1       1.971  14.858  57.087  1.00  0.00     0.069 C 
HETATM   36  N7  UNL     1       0.379  13.030  56.285  1.00  0.00    -0.339 N 
ATOM     37  H7  UNL     1       1.063  12.495  55.750  1.00  0.00     0.168 HD
ENDBRANCH  29  30
ENDBRANCH  28  29
ENDBRANCH  27  28
ENDBRANCH  26  27
ENDBRANCH   1  26
TORSDOF 8
ENDMDL
