MODEL 1
REMARK VINA RESULT: -7.608889412      0.000      0.000
REMARK  13 active torsions:
REMARK  status: ('A' for Active; 'I' for Inactive)
REMARK    1  A    between atoms: C2_2  and  O1_3 
REMARK    2  A    between atoms: O1_3  and  C3_4 
REMARK       I    between atoms: C3_4  and  N1_6 
REMARK    3  A    between atoms: N1_6  and  C4_8 
REMARK    4  A    between atoms: C4_8  and  C5_9 
REMARK    5  A    between atoms: C5_9  and  O4_11 
REMARK    6  A    between atoms: O4_11  and  C6_12 
REMARK    7  A    between atoms: C6_12  and  C7_13 
REMARK    8  A    between atoms: C12_18  and  O5_19 
REMARK    9  A    between atoms: C12_18  and  C13_21 
REMARK   10  A    between atoms: C16_24  and  O6_25 
REMARK   11  A    between atoms: O6_25  and  C17_26 
REMARK   12  A    between atoms: C17_26  and  C18_28 
REMARK   13  A    between atoms: C18_28  and  O8_31 
ROOT
HETATM    1  C7  UNL     1       3.104   5.943  47.609  1.00  0.00    -0.004 C 
HETATM    2  C8  UNL     1       2.410   4.554  47.639  1.00  0.00     0.019 C 
HETATM    3  C9  UNL     1       4.532   5.693  47.648  1.00  0.00     0.058 C 
HETATM    4  C10 UNL     1       5.259   5.763  46.358  1.00  0.00    -0.072 C 
HETATM    5  C11 UNL     1       6.543   5.789  46.652  1.00  0.00     0.017 C 
HETATM    6  C12 UNL     1       6.724   5.740  48.156  1.00  0.00     0.106 C 
HETATM    7  C16 UNL     1       5.439   6.553  48.483  1.00  0.00     0.179 C 
HETATM    8  C21 UNL     1       4.510   5.802  45.096  1.00  0.00     0.055 C 
HETATM    9  C22 UNL     1       3.307   6.682  45.185  1.00  0.00     0.095 C 
HETATM   10 CL1  UNL     1       2.330   6.405  43.709  1.00  0.00    -0.124 Cl
HETATM   11  C23 UNL     1       2.519   6.659  46.436  1.00  0.00    -0.021 C 
HETATM   12  C24 UNL     1       1.200   5.975  46.011  1.00  0.00     0.017 C 
HETATM   13  C25 UNL     1       2.089   8.076  46.774  1.00  0.00     0.017 C 
ENDROOT
BRANCH   1  14
HETATM   14  C6  UNL     1       2.669   6.529  48.943  1.00  0.00     0.189 C 
BRANCH  14  15
HETATM   15  O4  UNL     1       1.444   5.989  49.383  1.00  0.00    -0.319 OA
BRANCH  15  16
HETATM   16  C5  UNL     1       0.427   6.767  49.915  1.00  0.00     0.276 C 
HETATM   17  O3  UNL     1       0.433   8.000  49.701  1.00  0.00    -0.263 OA
BRANCH  16  18
HETATM   18  C4  UNL     1      -0.616   6.081  50.715  1.00  0.00     0.235 C 
BRANCH  18  19
HETATM   19  N1  UNL     1      -0.380   4.687  50.861  1.00  0.00    -0.328 N 
HETATM   20  C3  UNL     1      -0.863   3.999  52.000  1.00  0.00     0.360 C 
HETATM   21  O2  UNL     1      -1.506   4.607  52.897  1.00  0.00    -0.239 OA
ATOM     22  H1  UNL     1       0.140   4.181  50.143  1.00  0.00     0.165 HD
BRANCH  20  23
HETATM   23  O1  UNL     1      -0.663   2.639  52.198  1.00  0.00    -0.304 OA
BRANCH  23  24
HETATM   24  C2  UNL     1      -1.752   1.768  52.473  1.00  0.00     0.176 C 
HETATM   25  C1  UNL     1      -1.687   0.632  51.475  1.00  0.00     0.034 C 
ENDBRANCH  23  24
ENDBRANCH  20  23
ENDBRANCH  18  19
ENDBRANCH  16  18
ENDBRANCH  15  16
ENDBRANCH  14  15
ENDBRANCH   1  14
BRANCH   7  26
HETATM   26  O6  UNL     1       5.677   7.791  47.856  1.00  0.00    -0.309 OA
BRANCH  26  27
HETATM   27  C17 UNL     1       5.805   9.005  48.458  1.00  0.00     0.293 C 
HETATM   28  O7  UNL     1       6.947   9.278  48.939  1.00  0.00    -0.262 OA
BRANCH  27  29
HETATM   29  C18 UNL     1       4.751  10.034  48.608  1.00  0.00     0.138 C 
HETATM   30  C19 UNL     1       3.848   9.822  49.786  1.00  0.00     0.056 C 
HETATM   31  C20 UNL     1       3.848  10.027  47.371  1.00  0.00     0.056 C 
BRANCH  29  32
HETATM   32  O8  UNL     1       5.319  11.312  48.770  1.00  0.00    -0.380 OA
ATOM     33  H8  UNL     1       5.625  11.434  49.661  1.00  0.00     0.211 HD
ENDBRANCH  29  32
ENDBRANCH  27  29
ENDBRANCH  26  27
ENDBRANCH   7  26
BRANCH   6  34
HETATM   34  O5  UNL     1       6.644   4.442  48.559  1.00  0.00    -0.383 OA
ATOM     35  H5  UNL     1       6.985   4.379  49.444  1.00  0.00     0.211 HD
ENDBRANCH   6  34
BRANCH   6  36
HETATM   36  C13 UNL     1       7.954   6.414  48.590  1.00  0.00     0.018 C 
HETATM   37  C14 UNL     1       8.693   5.599  49.612  1.00  0.00     0.013 C 
HETATM   38  C15 UNL     1       8.866   6.540  47.377  1.00  0.00     0.013 C 
ENDBRANCH   6  36
TORSDOF 13
ENDMDL
MODEL 2
REMARK VINA RESULT: -7.559181452     10.313     13.570
REMARK  13 active torsions:
REMARK  status: ('A' for Active; 'I' for Inactive)
REMARK    1  A    between atoms: C2_2  and  O1_3 
REMARK    2  A    between atoms: O1_3  and  C3_4 
REMARK       I    between atoms: C3_4  and  N1_6 
REMARK    3  A    between atoms: N1_6  and  C4_8 
REMARK    4  A    between atoms: C4_8  and  C5_9 
REMARK    5  A    between atoms: C5_9  and  O4_11 
REMARK    6  A    between atoms: O4_11  and  C6_12 
REMARK    7  A    between atoms: C6_12  and  C7_13 
REMARK    8  A    between atoms: C12_18  and  O5_19 
REMARK    9  A    between atoms: C12_18  and  C13_21 
REMARK   10  A    between atoms: C16_24  and  O6_25 
REMARK   11  A    between atoms: O6_25  and  C17_26 
REMARK   12  A    between atoms: C17_26  and  C18_28 
REMARK   13  A    between atoms: C18_28  and  O8_31 
ROOT
HETATM    1  C7  UNL     1       2.479  14.090  56.560  1.00  0.00    -0.004 C 
HETATM    2  C8  UNL     1       2.323  14.736  55.156  1.00  0.00     0.019 C 
HETATM    3  C9  UNL     1       2.067  15.091  57.524  1.00  0.00     0.058 C 
HETATM    4  C10 UNL     1       0.696  14.964  58.075  1.00  0.00    -0.072 C 
HETATM    5  C11 UNL     1       0.632  15.776  59.111  1.00  0.00     0.017 C 
HETATM    6  C12 UNL     1       1.963  16.477  59.294  1.00  0.00     0.106 C 
HETATM    7  C16 UNL     1       2.827  15.278  58.808  1.00  0.00     0.179 C 
HETATM    8  C21 UNL     1      -0.261  14.042  57.453  1.00  0.00     0.055 C 
HETATM    9  C22 UNL     1       0.378  12.751  57.061  1.00  0.00     0.095 C 
HETATM   10 CL1  UNL     1      -0.802  11.854  56.053  1.00  0.00    -0.124 Cl
HETATM   11  C23 UNL     1       1.740  12.793  56.490  1.00  0.00    -0.021 C 
HETATM   12  C24 UNL     1       1.518  12.399  55.012  1.00  0.00     0.017 C 
HETATM   13  C25 UNL     1       2.546  11.633  57.047  1.00  0.00     0.017 C 
ENDROOT
BRANCH   1  14
HETATM   14  C6  UNL     1       3.987  13.913  56.646  1.00  0.00     0.189 C 
BRANCH  14  15
HETATM   15  O4  UNL     1       4.601  13.985  55.380  1.00  0.00    -0.319 OA
BRANCH  15  16
HETATM   16  C5  UNL     1       5.976  13.945  55.207  1.00  0.00     0.276 C 
HETATM   17  O3  UNL     1       6.454  14.219  54.083  1.00  0.00    -0.263 OA
BRANCH  16  18
HETATM   18  C4  UNL     1       6.805  13.574  56.379  1.00  0.00     0.235 C 
BRANCH  18  19
HETATM   19  N1  UNL     1       7.506  12.349  56.201  1.00  0.00    -0.328 N 
HETATM   20  C3  UNL     1       7.060  11.173  56.849  1.00  0.00     0.360 C 
HETATM   21  O2  UNL     1       6.042  11.191  57.590  1.00  0.00    -0.239 OA
ATOM     22  H1  UNL     1       8.334  12.319  55.604  1.00  0.00     0.165 HD
BRANCH  20  23
HETATM   23  O1  UNL     1       7.704   9.951  56.713  1.00  0.00    -0.304 OA
BRANCH  23  24
HETATM   24  C2  UNL     1       7.246   8.797  57.406  1.00  0.00     0.176 C 
HETATM   25  C1  UNL     1       7.558   7.595  56.541  1.00  0.00     0.034 C 
ENDBRANCH  23  24
ENDBRANCH  20  23
ENDBRANCH  18  19
ENDBRANCH  16  18
ENDBRANCH  15  16
ENDBRANCH  14  15
ENDBRANCH   1  14
BRANCH   7  26
HETATM   26  O6  UNL     1       2.512  14.264  59.731  1.00  0.00    -0.309 OA
BRANCH  26  27
HETATM   27  C17 UNL     1       3.382  13.424  60.356  1.00  0.00     0.293 C 
HETATM   28  O7  UNL     1       3.485  12.256  59.871  1.00  0.00    -0.262 OA
BRANCH  27  29
HETATM   29  C18 UNL     1       4.215  13.734  61.541  1.00  0.00     0.138 C 
HETATM   30  C19 UNL     1       3.494  14.484  62.621  1.00  0.00     0.056 C 
HETATM   31  C20 UNL     1       5.394  14.617  61.121  1.00  0.00     0.056 C 
BRANCH  29  32
HETATM   32  O8  UNL     1       4.699  12.553  62.135  1.00  0.00    -0.380 OA
ATOM     33  H8  UNL     1       4.646  12.606  63.082  1.00  0.00     0.211 HD
ENDBRANCH  29  32
ENDBRANCH  27  29
ENDBRANCH  26  27
ENDBRANCH   7  26
BRANCH   6  34
HETATM   34  O5  UNL     1       2.013  17.541  58.446  1.00  0.00    -0.383 OA
ATOM     35  H5  UNL     1       2.886  17.594  58.078  1.00  0.00     0.211 HD
ENDBRANCH   6  34
BRANCH   6  36
HETATM   36  C13 UNL     1       2.216  16.834  60.696  1.00  0.00     0.018 C 
HETATM   37  C14 UNL     1       3.321  17.843  60.813  1.00  0.00     0.013 C 
HETATM   38  C15 UNL     1       0.954  17.488  61.242  1.00  0.00     0.013 C 
ENDBRANCH   6  36
TORSDOF 13
ENDMDL
MODEL 3
REMARK VINA RESULT: -7.465267562      2.961      6.757
REMARK  13 active torsions:
REMARK  status: ('A' for Active; 'I' for Inactive)
REMARK    1  A    between atoms: C2_2  and  O1_3 
REMARK    2  A    between atoms: O1_3  and  C3_4 
REMARK       I    between atoms: C3_4  and  N1_6 
REMARK    3  A    between atoms: N1_6  and  C4_8 
REMARK    4  A    between atoms: C4_8  and  C5_9 
REMARK    5  A    between atoms: C5_9  and  O4_11 
REMARK    6  A    between atoms: O4_11  and  C6_12 
REMARK    7  A    between atoms: C6_12  and  C7_13 
REMARK    8  A    between atoms: C12_18  and  O5_19 
REMARK    9  A    between atoms: C12_18  and  C13_21 
REMARK   10  A    between atoms: C16_24  and  O6_25 
REMARK   11  A    between atoms: O6_25  and  C17_26 
REMARK   12  A    between atoms: C17_26  and  C18_28 
REMARK   13  A    between atoms: C18_28  and  O8_31 
ROOT
HETATM    1  C7  UNL     1       4.935   4.500  46.058  1.00  0.00    -0.004 C 
HETATM    2  C8  UNL     1       6.113   4.281  45.069  1.00  0.00     0.019 C 
HETATM    3  C9  UNL     1       4.223   5.676  45.599  1.00  0.00     0.058 C 
HETATM    4  C10 UNL     1       2.982   5.446  44.821  1.00  0.00    -0.072 C 
HETATM    5  C11 UNL     1       2.361   6.607  44.754  1.00  0.00     0.017 C 
HETATM    6  C12 UNL     1       3.165   7.660  45.490  1.00  0.00     0.106 C 
HETATM    7  C16 UNL     1       3.707   6.692  46.581  1.00  0.00     0.179 C 
HETATM    8  C21 UNL     1       2.673   4.104  44.316  1.00  0.00     0.055 C 
HETATM    9  C22 UNL     1       2.989   3.041  45.316  1.00  0.00     0.095 C 
HETATM   10 CL1  UNL     1       2.859   1.462  44.480  1.00  0.00    -0.124 Cl
HETATM   11  C23 UNL     1       4.218   3.191  46.124  1.00  0.00    -0.021 C 
HETATM   12  C24 UNL     1       5.133   2.067  45.588  1.00  0.00     0.017 C 
HETATM   13  C25 UNL     1       3.928   2.758  47.550  1.00  0.00     0.017 C 
ENDROOT
BRANCH   1  14
HETATM   14  C6  UNL     1       5.676   4.840  47.341  1.00  0.00     0.189 C 
BRANCH  14  15
HETATM   15  O4  UNL     1       7.069   4.669  47.209  1.00  0.00    -0.319 OA
BRANCH  15  16
HETATM   16  C5  UNL     1       7.891   4.341  48.276  1.00  0.00     0.276 C 
HETATM   17  O3  UNL     1       7.870   3.170  48.718  1.00  0.00    -0.263 OA
BRANCH  16  18
HETATM   18  C4  UNL     1       8.753   5.409  48.834  1.00  0.00     0.235 C 
BRANCH  18  19
HETATM   19  N1  UNL     1       8.020   6.548  49.269  1.00  0.00    -0.328 N 
HETATM   20  C3  UNL     1       8.089   7.759  48.541  1.00  0.00     0.360 C 
HETATM   21  O2  UNL     1       8.798   7.849  47.503  1.00  0.00    -0.239 OA
ATOM     22  H1  UNL     1       7.442   6.490  50.108  1.00  0.00     0.165 HD
BRANCH  20  23
HETATM   23  O1  UNL     1       7.397   8.902  48.917  1.00  0.00    -0.304 OA
BRANCH  23  24
HETATM   24  C2  UNL     1       6.008   9.043  48.649  1.00  0.00     0.176 C 
HETATM   25  C1  UNL     1       5.438   9.984  49.689  1.00  0.00     0.034 C 
ENDBRANCH  23  24
ENDBRANCH  20  23
ENDBRANCH  18  19
ENDBRANCH  16  18
ENDBRANCH  15  16
ENDBRANCH  14  15
ENDBRANCH   1  14
BRANCH   7  26
HETATM   26  O6  UNL     1       2.536   6.233  47.211  1.00  0.00    -0.309 OA
BRANCH  26  27
HETATM   27  C17 UNL     1       2.282   6.199  48.548  1.00  0.00     0.293 C 
HETATM   28  O7  UNL     1       3.214   5.759  49.288  1.00  0.00    -0.262 OA
BRANCH  27  29
HETATM   29  C18 UNL     1       1.032   6.621  49.222  1.00  0.00     0.138 C 
HETATM   30  C19 UNL     1      -0.031   7.123  48.290  1.00  0.00     0.056 C 
HETATM   31  C20 UNL     1       1.335   7.773  50.186  1.00  0.00     0.056 C 
BRANCH  29  32
HETATM   32  O8  UNL     1       0.461   5.549  49.933  1.00  0.00    -0.380 OA
ATOM     33  H8  UNL     1       0.260   5.805  50.826  1.00  0.00     0.211 HD
ENDBRANCH  29  32
ENDBRANCH  27  29
ENDBRANCH  26  27
ENDBRANCH   7  26
BRANCH   6  34
HETATM   34  O5  UNL     1       4.141   8.119  44.660  1.00  0.00    -0.383 OA
ATOM     35  H5  UNL     1       4.847   8.471  45.189  1.00  0.00     0.211 HD
ENDBRANCH   6  34
BRANCH   6  36
HETATM   36  C13 UNL     1       2.315   8.723  46.041  1.00  0.00     0.018 C 
HETATM   37  C14 UNL     1       2.997   9.439  47.171  1.00  0.00     0.013 C 
HETATM   38  C15 UNL     1       2.084   9.748  44.939  1.00  0.00     0.013 C 
ENDBRANCH   6  36
TORSDOF 13
ENDMDL
MODEL 4
REMARK VINA RESULT: -7.458404290      2.151      3.285
REMARK  13 active torsions:
REMARK  status: ('A' for Active; 'I' for Inactive)
REMARK    1  A    between atoms: C2_2  and  O1_3 
REMARK    2  A    between atoms: O1_3  and  C3_4 
REMARK       I    between atoms: C3_4  and  N1_6 
REMARK    3  A    between atoms: N1_6  and  C4_8 
REMARK    4  A    between atoms: C4_8  and  C5_9 
REMARK    5  A    between atoms: C5_9  and  O4_11 
REMARK    6  A    between atoms: O4_11  and  C6_12 
REMARK    7  A    between atoms: C6_12  and  C7_13 
REMARK    8  A    between atoms: C12_18  and  O5_19 
REMARK    9  A    between atoms: C12_18  and  C13_21 
REMARK   10  A    between atoms: C16_24  and  O6_25 
REMARK   11  A    between atoms: O6_25  and  C17_26 
REMARK   12  A    between atoms: C17_26  and  C18_28 
REMARK   13  A    between atoms: C18_28  and  O8_31 
ROOT
HETATM    1  C7  UNL     1       3.141   5.997  47.601  1.00  0.00    -0.004 C 
HETATM    2  C8  UNL     1       2.563   4.556  47.599  1.00  0.00     0.019 C 
HETATM    3  C9  UNL     1       4.584   5.862  47.639  1.00  0.00     0.058 C 
HETATM    4  C10 UNL     1       5.305   6.020  46.352  1.00  0.00    -0.072 C 
HETATM    5  C11 UNL     1       6.582   6.144  46.651  1.00  0.00     0.017 C 
HETATM    6  C12 UNL     1       6.765   6.077  48.154  1.00  0.00     0.106 C 
HETATM    7  C16 UNL     1       5.418   6.776  48.495  1.00  0.00     0.179 C 
HETATM    8  C21 UNL     1       4.557   6.025  45.090  1.00  0.00     0.055 C 
HETATM    9  C22 UNL     1       3.286   6.802  45.194  1.00  0.00     0.095 C 
HETATM   10 CL1  UNL     1       2.337   6.477  43.709  1.00  0.00    -0.124 Cl
HETATM   11  C23 UNL     1       2.501   6.688  46.441  1.00  0.00    -0.021 C 
HETATM   12  C24 UNL     1       1.243   5.908  45.998  1.00  0.00     0.017 C 
HETATM   13  C25 UNL     1       1.956   8.057  46.808  1.00  0.00     0.017 C 
ENDROOT
BRANCH   1  14
HETATM   14  C6  UNL     1       2.658   6.516  48.946  1.00  0.00     0.189 C 
BRANCH  14  15
HETATM   15  O4  UNL     1       1.427   5.943  49.323  1.00  0.00    -0.319 OA
BRANCH  15  16
HETATM   16  C5  UNL     1       0.336   6.700  49.722  1.00  0.00     0.276 C 
HETATM   17  O3  UNL     1      -0.570   6.941  48.892  1.00  0.00    -0.263 OA
BRANCH  16  18
HETATM   18  C4  UNL     1       0.310   7.183  51.123  1.00  0.00     0.235 C 
BRANCH  18  19
HETATM   19  N1  UNL     1       0.156   8.593  51.224  1.00  0.00    -0.328 N 
HETATM   20  C3  UNL     1      -0.097   9.193  52.480  1.00  0.00     0.360 C 
HETATM   21  O2  UNL     1      -0.190   8.493  53.523  1.00  0.00    -0.239 OA
ATOM     22  H1  UNL     1       0.228   9.174  50.387  1.00  0.00     0.165 HD
BRANCH  20  23
HETATM   23  O1  UNL     1      -0.257  10.563  52.640  1.00  0.00    -0.304 OA
BRANCH  23  24
HETATM   24  C2  UNL     1      -0.657  11.117  53.887  1.00  0.00     0.176 C 
HETATM   25  C1  UNL     1       0.483  11.978  54.387  1.00  0.00     0.034 C 
ENDBRANCH  23  24
ENDBRANCH  20  23
ENDBRANCH  18  19
ENDBRANCH  16  18
ENDBRANCH  15  16
ENDBRANCH  14  15
ENDBRANCH   1  14
BRANCH   7  26
HETATM   26  O6  UNL     1       5.554   8.042  47.895  1.00  0.00    -0.309 OA
BRANCH  26  27
HETATM   27  C17 UNL     1       5.507   9.253  48.514  1.00  0.00     0.293 C 
HETATM   28  O7  UNL     1       6.594   9.673  49.015  1.00  0.00    -0.262 OA
BRANCH  27  29
HETATM   29  C18 UNL     1       4.319  10.126  48.662  1.00  0.00     0.138 C 
HETATM   30  C19 UNL     1       4.611  11.462  49.277  1.00  0.00     0.056 C 
HETATM   31  C20 UNL     1       3.296   9.448  49.578  1.00  0.00     0.056 C 
BRANCH  29  32
HETATM   32  O8  UNL     1       3.731  10.387  47.410  1.00  0.00    -0.380 OA
ATOM     33  H8  UNL     1       2.862  10.006  47.359  1.00  0.00     0.211 HD
ENDBRANCH  29  32
ENDBRANCH  27  29
ENDBRANCH  26  27
ENDBRANCH   7  26
BRANCH   6  34
HETATM   34  O5  UNL     1       6.791   4.769  48.530  1.00  0.00    -0.383 OA
ATOM     35  H5  UNL     1       6.292   4.675  49.332  1.00  0.00     0.211 HD
ENDBRANCH   6  34
BRANCH   6  36
HETATM   36  C13 UNL     1       7.935   6.840  48.606  1.00  0.00     0.018 C 
HETATM   37  C14 UNL     1       8.731   6.070  49.620  1.00  0.00     0.013 C 
HETATM   38  C15 UNL     1       8.840   7.057  47.401  1.00  0.00     0.013 C 
ENDBRANCH   6  36
TORSDOF 13
ENDMDL
MODEL 5
REMARK VINA RESULT: -7.340183247     11.029     13.881
REMARK  13 active torsions:
REMARK  status: ('A' for Active; 'I' for Inactive)
REMARK    1  A    between atoms: C2_2  and  O1_3 
REMARK    2  A    between atoms: O1_3  and  C3_4 
REMARK       I    between atoms: C3_4  and  N1_6 
REMARK    3  A    between atoms: N1_6  and  C4_8 
REMARK    4  A    between atoms: C4_8  and  C5_9 
REMARK    5  A    between atoms: C5_9  and  O4_11 
REMARK    6  A    between atoms: O4_11  and  C6_12 
REMARK    7  A    between atoms: C6_12  and  C7_13 
REMARK    8  A    between atoms: C12_18  and  O5_19 
REMARK    9  A    between atoms: C12_18  and  C13_21 
REMARK   10  A    between atoms: C16_24  and  O6_25 
REMARK   11  A    between atoms: O6_25  and  C17_26 
REMARK   12  A    between atoms: C17_26  and  C18_28 
REMARK   13  A    between atoms: C18_28  and  O8_31 
ROOT
HETATM    1  C7  UNL     1       4.126  15.722  60.340  1.00  0.00    -0.004 C 
HETATM    2  C8  UNL     1       4.001  17.254  60.559  1.00  0.00     0.019 C 
HETATM    3  C9  UNL     1       4.877  15.540  59.114  1.00  0.00     0.058 C 
HETATM    4  C10 UNL     1       6.317  15.219  59.253  1.00  0.00    -0.072 C 
HETATM    5  C11 UNL     1       6.729  14.823  58.065  1.00  0.00     0.017 C 
HETATM    6  C12 UNL     1       5.575  14.861  57.084  1.00  0.00     0.106 C 
HETATM    7  C16 UNL     1       4.486  14.475  58.126  1.00  0.00     0.179 C 
HETATM    8  C21 UNL     1       6.978  15.366  60.555  1.00  0.00     0.055 C 
HETATM    9  C22 UNL     1       6.119  14.884  61.677  1.00  0.00     0.095 C 
HETATM   10 CL1  UNL     1       6.901  15.394  63.207  1.00  0.00    -0.124 Cl
HETATM   11  C23 UNL     1       4.672  15.176  61.620  1.00  0.00    -0.021 C 
HETATM   12  C24 UNL     1       4.473  16.208  62.753  1.00  0.00     0.017 C 
HETATM   13  C25 UNL     1       3.903  13.962  62.109  1.00  0.00     0.017 C 
ENDROOT
BRANCH   1  14
HETATM   14  C6  UNL     1       2.677  15.332  60.095  1.00  0.00     0.189 C 
BRANCH  14  15
HETATM   15  O4  UNL     1       2.006  16.271  59.286  1.00  0.00    -0.319 OA
BRANCH  15  16
HETATM   16  C5  UNL     1       0.628  16.420  59.292  1.00  0.00     0.276 C 
HETATM   17  O3  UNL     1       0.144  17.562  59.467  1.00  0.00    -0.263 OA
BRANCH  16  18
HETATM   18  C4  UNL     1      -0.197  15.205  59.090  1.00  0.00     0.235 C 
BRANCH  18  19
HETATM   19  N1  UNL     1      -0.128  14.700  57.763  1.00  0.00    -0.328 N 
HETATM   20  C3  UNL     1      -1.085  13.761  57.308  1.00  0.00     0.360 C 
HETATM   21  O2  UNL     1      -2.007  13.361  58.068  1.00  0.00    -0.239 OA
ATOM     22  H1  UNL     1       0.613  15.014  57.136  1.00  0.00     0.165 HD
BRANCH  20  23
HETATM   23  O1  UNL     1      -1.069  13.233  56.025  1.00  0.00    -0.304 OA
BRANCH  23  24
HETATM   24  C2  UNL     1      -0.092  12.276  55.635  1.00  0.00     0.176 C 
HETATM   25  C1  UNL     1       0.856  12.960  54.675  1.00  0.00     0.034 C 
ENDBRANCH  23  24
ENDBRANCH  20  23
ENDBRANCH  18  19
ENDBRANCH  16  18
ENDBRANCH  15  16
ENDBRANCH  14  15
ENDBRANCH   1  14
BRANCH   7  26
HETATM   26  O6  UNL     1       4.903  13.204  58.566  1.00  0.00    -0.309 OA
BRANCH  26  27
HETATM   27  C17 UNL     1       4.173  12.055  58.566  1.00  0.00     0.293 C 
HETATM   28  O7  UNL     1       3.209  11.999  59.389  1.00  0.00    -0.262 OA
BRANCH  27  29
HETATM   29  C18 UNL     1       4.391  10.869  57.706  1.00  0.00     0.138 C 
HETATM   30  C19 UNL     1       5.761  10.791  57.100  1.00  0.00     0.056 C 
HETATM   31  C20 UNL     1       3.407  10.899  56.533  1.00  0.00     0.056 C 
BRANCH  29  32
HETATM   32  O8  UNL     1       4.214   9.681  58.439  1.00  0.00    -0.380 OA
ATOM     33  H8  UNL     1       4.375   8.920  57.892  1.00  0.00     0.211 HD
ENDBRANCH  29  32
ENDBRANCH  27  29
ENDBRANCH  26  27
ENDBRANCH   7  26
BRANCH   6  34
HETATM   34  O5  UNL     1       5.438  16.136  56.626  1.00  0.00    -0.383 OA
ATOM     35  H5  UNL     1       5.686  16.155  55.710  1.00  0.00     0.211 HD
ENDBRANCH   6  34
BRANCH   6  36
HETATM   36  C13 UNL     1       5.721  13.866  56.014  1.00  0.00     0.018 C 
HETATM   37  C14 UNL     1       4.500  13.818  55.142  1.00  0.00     0.013 C 
HETATM   38  C15 UNL     1       6.883  14.303  55.132  1.00  0.00     0.013 C 
ENDBRANCH   6  36
TORSDOF 13
ENDMDL
