MODEL 1
REMARK VINA RESULT: -6.840950486      0.000      0.000
REMARK  15 active torsions:
REMARK  status: ('A' for Active; 'I' for Inactive)
REMARK    1  A    between atoms: N1_1  and  C1_4 
REMARK    2  A    between atoms: C1_4  and  O1_5 
REMARK    3  A    between atoms: C1_4  and  N6_12 
REMARK    4  A    between atoms: O1_5  and  N2_6 
REMARK    5  A    between atoms: N2_6  and  N3_7 
REMARK    6  A    between atoms: N3_7  and  N4_8 
REMARK    7  A    between atoms: N4_8  and  N5_9 
REMARK    8  A    between atoms: N6_12  and  C2_13 
REMARK    9  A    between atoms: N6_12  and  C6_25 
REMARK   10  A    between atoms: C2_13  and  C3_14 
REMARK   11  A    between atoms: C3_14  and  O2_15 
REMARK   12  A    between atoms: C3_14  and  C4_17 
REMARK   13  A    between atoms: C7_28  and  N11_29 
REMARK   14  A    between atoms: C8_34  and  N13_35 
REMARK   15  A    between atoms: C9_38  and  N14_39 
ROOT
HETATM    1  N6  UNL     1      24.052 -15.709  44.238  1.00  0.00    -0.271 N 
ENDROOT
BRANCH   1   2
HETATM    2  C1  UNL     1      23.111 -14.738  43.689  1.00  0.00     0.246 C 
BRANCH   2   3
HETATM    3  N1  UNL     1      23.548 -13.536  43.602  1.00  0.00    -0.364 N 
ATOM      4  H12 UNL     1      23.568 -13.145  42.661  1.00  0.00     0.159 HD
ATOM      5  H11 UNL     1      23.852 -13.012  44.423  1.00  0.00     0.159 HD
ENDBRANCH   2   3
BRANCH   2   6
HETATM    6  O1  UNL     1      21.858 -15.074  43.295  1.00  0.00    -0.189 OA
BRANCH   6   7
HETATM    7  N2  UNL     1      21.688 -16.032  42.327  1.00  0.00     0.041 NA
BRANCH   7   8
HETATM    8  N3  UNL     1      22.404 -15.575  41.204  1.00  0.00     0.012 NA
BRANCH   8   9
HETATM    9  N4  UNL     1      22.559 -16.561  40.255  1.00  0.00    -0.018 NA
BRANCH   9  10
HETATM   10  N5  UNL     1      21.803 -16.194  39.131  1.00  0.00    -0.331 N 
ATOM     11  H52 UNL     1      21.430 -16.839  38.434  1.00  0.00     0.173 HD
ATOM     12  H51 UNL     1      21.701 -15.179  39.143  1.00  0.00     0.173 HD
ENDBRANCH   9  10
ENDBRANCH   8   9
ENDBRANCH   7   8
ENDBRANCH   6   7
ENDBRANCH   2   6
ENDBRANCH   1   2
BRANCH   1  13
HETATM   13  C2  UNL     1      23.649 -16.208  45.477  1.00  0.00     0.114 C 
BRANCH  13  14
HETATM   14  C3  UNL     1      24.066 -17.643  45.758  1.00  0.00     0.215 C 
BRANCH  14  15
HETATM   15  O2  UNL     1      23.073 -18.448  46.238  1.00  0.00    -0.384 OA
ATOM     16  H2  UNL     1      22.969 -19.274  45.779  1.00  0.00     0.211 HD
ENDBRANCH  14  15
BRANCH  14  17
HETATM   17  C4  UNL     1      25.087 -17.537  46.872  1.00  0.00     0.103 A 
HETATM   18  N7  UNL     1      26.273 -18.131  46.953  1.00  0.00    -0.293 N 
HETATM   19  N8  UNL     1      27.008 -17.928  47.958  1.00  0.00    -0.281 N 
ATOM     20  H7  UNL     1      26.588 -18.749  46.206  1.00  0.00     0.187 HD
HETATM   21  C5  UNL     1      26.591 -17.121  48.929  1.00  0.00     0.174 A 
ATOM     22  H8  UNL     1      27.919 -18.382  48.026  1.00  0.00     0.188 HD
HETATM   23  N9  UNL     1      27.289 -16.774  50.148  1.00  0.00    -0.073 NA
HETATM   24  S1  UNL     1      25.060 -16.649  48.332  1.00  0.00    -0.038 SA
ENDBRANCH  14  17
ENDBRANCH  13  14
ENDBRANCH   1  13
BRANCH   1  25
HETATM   25  C6  UNL     1      25.162 -15.939  43.406  1.00  0.00     0.167 A 
HETATM   26  N10 UNL     1      25.004 -16.513  42.169  1.00  0.00    -0.174 N 
HETATM   27  C7  UNL     1      25.984 -16.795  41.320  1.00  0.00     0.679 A 
ATOM     28  H10 UNL     1      24.054 -16.741  41.877  1.00  0.00     0.186 HD
HETATM   29  N12 UNL     1      27.256 -16.529  41.625  1.00  0.00    -0.175 N 
HETATM   30  C8  UNL     1      27.486 -15.965  42.821  1.00  0.00     0.152 A 
ATOM     31  H12 UNL     1      28.017 -16.744  40.980  1.00  0.00     0.186 HD
HETATM   32  C9  UNL     1      26.466 -15.657  43.732  1.00  0.00     0.191 A 
BRANCH  27  33
HETATM   33  N11 UNL     1      25.743 -17.339  40.159  1.00  0.00    -0.234 N 
ATOM     34 2H11 UNL     1      25.029 -18.066  40.118  1.00  0.00     0.174 HD
ATOM     35 1H11 UNL     1      26.251 -17.052  39.322  1.00  0.00     0.174 HD
ENDBRANCH  27  33
BRANCH  30  36
HETATM   36  N13 UNL     1      28.709 -15.686  43.175  1.00  0.00    -0.383 N 
ATOM     37 2H13 UNL     1      29.460 -16.197  42.709  1.00  0.00     0.157 HD
ATOM     38 1H13 UNL     1      28.876 -14.978  43.889  1.00  0.00     0.157 HD
ENDBRANCH  30  36
BRANCH  32  39
HETATM   39  N14 UNL     1      26.891 -15.075  44.945  1.00  0.00    -0.108 N 
HETATM   40  O3  UNL     1      26.581 -13.893  45.169  1.00  0.00    -0.531 OA
HETATM   41  O4  UNL     1      27.679 -15.714  45.881  1.00  0.00    -0.531 OA
ENDBRANCH  32  39
ENDBRANCH   1  25
TORSDOF 15
ENDMDL
MODEL 2
REMARK VINA RESULT: -6.828610030      2.973      4.553
REMARK  15 active torsions:
REMARK  status: ('A' for Active; 'I' for Inactive)
REMARK    1  A    between atoms: N1_1  and  C1_4 
REMARK    2  A    between atoms: C1_4  and  O1_5 
REMARK    3  A    between atoms: C1_4  and  N6_12 
REMARK    4  A    between atoms: O1_5  and  N2_6 
REMARK    5  A    between atoms: N2_6  and  N3_7 
REMARK    6  A    between atoms: N3_7  and  N4_8 
REMARK    7  A    between atoms: N4_8  and  N5_9 
REMARK    8  A    between atoms: N6_12  and  C2_13 
REMARK    9  A    between atoms: N6_12  and  C6_25 
REMARK   10  A    between atoms: C2_13  and  C3_14 
REMARK   11  A    between atoms: C3_14  and  O2_15 
REMARK   12  A    between atoms: C3_14  and  C4_17 
REMARK   13  A    between atoms: C7_28  and  N11_29 
REMARK   14  A    between atoms: C8_34  and  N13_35 
REMARK   15  A    between atoms: C9_38  and  N14_39 
ROOT
HETATM    1  N6  UNL     1      24.053 -16.152  45.370  1.00  0.00    -0.271 N 
ENDROOT
BRANCH   1   2
HETATM    2  C1  UNL     1      22.942 -16.903  45.946  1.00  0.00     0.246 C 
BRANCH   2   3
HETATM    3  N1  UNL     1      23.022 -18.177  45.833  1.00  0.00    -0.364 N 
ATOM      4  H12 UNL     1      23.964 -18.564  45.882  1.00  0.00     0.159 HD
ATOM      5  H11 UNL     1      22.194 -18.759  45.706  1.00  0.00     0.159 HD
ENDBRANCH   2   3
BRANCH   2   6
HETATM    6  O1  UNL     1      21.894 -16.303  46.562  1.00  0.00    -0.189 OA
BRANCH   6   7
HETATM    7  N2  UNL     1      20.614 -16.669  46.227  1.00  0.00     0.041 NA
BRANCH   7   8
HETATM    8  N3  UNL     1      19.801 -16.250  47.297  1.00  0.00     0.012 NA
BRANCH   8   9
HETATM    9  N4  UNL     1      20.497 -15.485  48.206  1.00  0.00    -0.018 NA
BRANCH   9  10
HETATM   10  N5  UNL     1      19.610 -15.131  49.234  1.00  0.00    -0.331 N 
ATOM     11  H52 UNL     1      18.768 -15.646  49.491  1.00  0.00     0.173 HD
ATOM     12  H51 UNL     1      19.962 -14.277  49.666  1.00  0.00     0.173 HD
ENDBRANCH   9  10
ENDBRANCH   8   9
ENDBRANCH   7   8
ENDBRANCH   6   7
ENDBRANCH   2   6
ENDBRANCH   1   2
BRANCH   1  13
HETATM   13  C2  UNL     1      24.633 -15.266  46.279  1.00  0.00     0.114 C 
BRANCH  13  14
HETATM   14  C3  UNL     1      25.571 -15.907  47.290  1.00  0.00     0.215 C 
BRANCH  14  15
HETATM   15  O2  UNL     1      25.895 -17.209  47.031  1.00  0.00    -0.384 OA
ATOM     16  H2  UNL     1      26.412 -17.635  47.705  1.00  0.00     0.211 HD
ENDBRANCH  14  15
BRANCH  14  17
HETATM   17  C4  UNL     1      24.787 -15.925  48.586  1.00  0.00     0.103 A 
HETATM   18  N7  UNL     1      23.754 -15.162  48.928  1.00  0.00    -0.293 N 
HETATM   19  N8  UNL     1      23.210 -15.313  50.055  1.00  0.00    -0.281 N 
ATOM     20  H7  UNL     1      23.403 -14.456  48.281  1.00  0.00     0.187 HD
HETATM   21  C5  UNL     1      23.673 -16.235  50.894  1.00  0.00     0.174 A 
ATOM     22  H8  UNL     1      22.416 -14.730  50.323  1.00  0.00     0.188 HD
HETATM   23  N9  UNL     1      23.182 -16.549  52.219  1.00  0.00    -0.073 NA
HETATM   24  S1  UNL     1      24.957 -16.898  49.981  1.00  0.00    -0.038 SA
ENDBRANCH  14  17
ENDBRANCH  13  14
ENDBRANCH   1  13
BRANCH   1  25
HETATM   25  C6  UNL     1      24.306 -16.477  44.025  1.00  0.00     0.167 A 
HETATM   26  N10 UNL     1      25.459 -17.130  43.667  1.00  0.00    -0.174 N 
HETATM   27  C7  UNL     1      25.805 -17.458  42.429  1.00  0.00     0.679 A 
ATOM     28  H10 UNL     1      26.104 -17.383  44.415  1.00  0.00     0.186 HD
HETATM   29  N12 UNL     1      25.017 -17.163  41.392  1.00  0.00    -0.175 N 
HETATM   30  C8  UNL     1      23.869 -16.524  41.669  1.00  0.00     0.152 A 
ATOM     31  H12 UNL     1      25.275 -17.410  40.437  1.00  0.00     0.186 HD
HETATM   32  C9  UNL     1      23.484 -16.168  42.969  1.00  0.00     0.191 A 
BRANCH  27  33
HETATM   33  N11 UNL     1      26.922 -18.084  42.178  1.00  0.00    -0.234 N 
ATOM     34 2H11 UNL     1      27.705 -17.530  41.830  1.00  0.00     0.174 HD
ATOM     35 1H11 UNL     1      27.011 -19.091  42.321  1.00  0.00     0.174 HD
ENDBRANCH  27  33
BRANCH  30  36
HETATM   36  N13 UNL     1      23.062 -16.205  40.697  1.00  0.00    -0.383 N 
ATOM     37 2H13 UNL     1      22.705 -15.249  40.679  1.00  0.00     0.157 HD
ATOM     38 1H13 UNL     1      22.821 -16.904  39.994  1.00  0.00     0.157 HD
ENDBRANCH  30  36
BRANCH  32  39
HETATM   39  N14 UNL     1      22.250 -15.494  43.072  1.00  0.00    -0.108 N 
HETATM   40  O3  UNL     1      21.206 -16.154  42.932  1.00  0.00    -0.531 OA
HETATM   41  O4  UNL     1      22.118 -14.133  43.264  1.00  0.00    -0.531 OA
ENDBRANCH  32  39
ENDBRANCH   1  25
TORSDOF 15
ENDMDL
MODEL 3
REMARK VINA RESULT: -6.827223828      2.554      3.927
REMARK  15 active torsions:
REMARK  status: ('A' for Active; 'I' for Inactive)
REMARK    1  A    between atoms: N1_1  and  C1_4 
REMARK    2  A    between atoms: C1_4  and  O1_5 
REMARK    3  A    between atoms: C1_4  and  N6_12 
REMARK    4  A    between atoms: O1_5  and  N2_6 
REMARK    5  A    between atoms: N2_6  and  N3_7 
REMARK    6  A    between atoms: N3_7  and  N4_8 
REMARK    7  A    between atoms: N4_8  and  N5_9 
REMARK    8  A    between atoms: N6_12  and  C2_13 
REMARK    9  A    between atoms: N6_12  and  C6_25 
REMARK   10  A    between atoms: C2_13  and  C3_14 
REMARK   11  A    between atoms: C3_14  and  O2_15 
REMARK   12  A    between atoms: C3_14  and  C4_17 
REMARK   13  A    between atoms: C7_28  and  N11_29 
REMARK   14  A    between atoms: C8_34  and  N13_35 
REMARK   15  A    between atoms: C9_38  and  N14_39 
ROOT
HETATM    1  N6  UNL     1      24.173 -16.511  44.423  1.00  0.00    -0.271 N 
ENDROOT
BRANCH   1   2
HETATM    2  C1  UNL     1      23.148 -15.595  43.936  1.00  0.00     0.246 C 
BRANCH   2   3
HETATM    3  N1  UNL     1      22.084 -16.148  43.485  1.00  0.00    -0.364 N 
ATOM      4  H12 UNL     1      21.259 -16.060  44.077  1.00  0.00     0.159 HD
ATOM      5  H11 UNL     1      22.070 -16.639  42.591  1.00  0.00     0.159 HD
ENDBRANCH   2   3
BRANCH   2   6
HETATM    6  O1  UNL     1      23.301 -14.247  43.957  1.00  0.00    -0.189 OA
BRANCH   6   7
HETATM    7  N2  UNL     1      23.222 -13.577  45.152  1.00  0.00     0.041 NA
BRANCH   7   8
HETATM    8  N3  UNL     1      21.991 -13.951  45.724  1.00  0.00     0.012 NA
BRANCH   8   9
HETATM    9  N4  UNL     1      21.548 -13.028  46.643  1.00  0.00    -0.018 NA
BRANCH   9  10
HETATM   10  N5  UNL     1      20.623 -13.670  47.481  1.00  0.00    -0.331 N 
ATOM     11  H52 UNL     1      19.649 -13.863  47.247  1.00  0.00     0.173 HD
ATOM     12  H51 UNL     1      21.101 -13.902  48.351  1.00  0.00     0.173 HD
ENDBRANCH   9  10
ENDBRANCH   8   9
ENDBRANCH   7   8
ENDBRANCH   6   7
ENDBRANCH   2   6
ENDBRANCH   1   2
BRANCH   1  13
HETATM   13  C2  UNL     1      23.738 -17.282  45.502  1.00  0.00     0.114 C 
BRANCH  13  14
HETATM   14  C3  UNL     1      24.726 -17.393  46.652  1.00  0.00     0.215 C 
BRANCH  14  15
HETATM   15  O2  UNL     1      24.339 -18.221  47.667  1.00  0.00    -0.384 OA
ATOM     16  H2  UNL     1      25.027 -18.773  48.019  1.00  0.00     0.211 HD
ENDBRANCH  14  15
BRANCH  14  17
HETATM   17  C4  UNL     1      24.779 -16.002  47.251  1.00  0.00     0.103 A 
HETATM   18  N7  UNL     1      23.769 -15.266  47.702  1.00  0.00    -0.293 N 
HETATM   19  N8  UNL     1      23.991 -14.120  48.178  1.00  0.00    -0.281 N 
ATOM     20  H7  UNL     1      22.816 -15.628  47.664  1.00  0.00     0.187 HD
HETATM   21  C5  UNL     1      25.236 -13.655  48.224  1.00  0.00     0.174 A 
ATOM     22  H8  UNL     1      23.219 -13.551  48.526  1.00  0.00     0.188 HD
HETATM   23  N9  UNL     1      25.681 -12.373  48.729  1.00  0.00    -0.073 NA
HETATM   24  S1  UNL     1      26.103 -14.960  47.541  1.00  0.00    -0.038 SA
ENDBRANCH  14  17
ENDBRANCH  13  14
ENDBRANCH   1  13
BRANCH   1  25
HETATM   25  C6  UNL     1      25.380 -16.429  43.706  1.00  0.00     0.167 A 
HETATM   26  N10 UNL     1      26.326 -15.488  44.030  1.00  0.00    -0.174 N 
HETATM   27  C7  UNL     1      27.481 -15.310  43.404  1.00  0.00     0.679 A 
ATOM     28  H10 UNL     1      26.122 -14.874  44.819  1.00  0.00     0.186 HD
HETATM   29  N12 UNL     1      27.824 -16.071  42.362  1.00  0.00    -0.175 N 
HETATM   30  C8  UNL     1      26.946 -17.015  41.989  1.00  0.00     0.152 A 
ATOM     31  H12 UNL     1      28.710 -15.941  41.872  1.00  0.00     0.186 HD
HETATM   32  C9  UNL     1      25.720 -17.221  42.637  1.00  0.00     0.191 A 
BRANCH  27  33
HETATM   33  N11 UNL     1      28.326 -14.391  43.783  1.00  0.00    -0.234 N 
ATOM     34 2H11 UNL     1      28.042 -13.774  44.544  1.00  0.00     0.174 HD
ATOM     35 1H11 UNL     1      29.237 -14.288  43.334  1.00  0.00     0.174 HD
ENDBRANCH  27  33
BRANCH  30  36
HETATM   36  N13 UNL     1      27.224 -17.785  40.975  1.00  0.00    -0.383 N 
ATOM     37 2H13 UNL     1      27.869 -17.422  40.273  1.00  0.00     0.157 HD
ATOM     38 1H13 UNL     1      26.801 -18.712  40.916  1.00  0.00     0.157 HD
ENDBRANCH  30  36
BRANCH  32  39
HETATM   39  N14 UNL     1      24.918 -18.253  42.104  1.00  0.00    -0.108 N 
HETATM   40  O3  UNL     1      23.990 -17.940  41.339  1.00  0.00    -0.531 OA
HETATM   41  O4  UNL     1      25.059 -19.589  42.419  1.00  0.00    -0.531 OA
ENDBRANCH  32  39
ENDBRANCH   1  25
TORSDOF 15
ENDMDL
MODEL 4
REMARK VINA RESULT: -6.821491633      2.792      4.071
REMARK  15 active torsions:
REMARK  status: ('A' for Active; 'I' for Inactive)
REMARK    1  A    between atoms: N1_1  and  C1_4 
REMARK    2  A    between atoms: C1_4  and  O1_5 
REMARK    3  A    between atoms: C1_4  and  N6_12 
REMARK    4  A    between atoms: O1_5  and  N2_6 
REMARK    5  A    between atoms: N2_6  and  N3_7 
REMARK    6  A    between atoms: N3_7  and  N4_8 
REMARK    7  A    between atoms: N4_8  and  N5_9 
REMARK    8  A    between atoms: N6_12  and  C2_13 
REMARK    9  A    between atoms: N6_12  and  C6_25 
REMARK   10  A    between atoms: C2_13  and  C3_14 
REMARK   11  A    between atoms: C3_14  and  O2_15 
REMARK   12  A    between atoms: C3_14  and  C4_17 
REMARK   13  A    between atoms: C7_28  and  N11_29 
REMARK   14  A    between atoms: C8_34  and  N13_35 
REMARK   15  A    between atoms: C9_38  and  N14_39 
ROOT
HETATM    1  N6  UNL     1      22.890 -15.408  43.996  1.00  0.00    -0.271 N 
ENDROOT
BRANCH   1   2
HETATM    2  C1  UNL     1      22.192 -16.452  44.740  1.00  0.00     0.246 C 
BRANCH   2   3
HETATM    3  N1  UNL     1      22.935 -17.390  45.201  1.00  0.00    -0.364 N 
ATOM      4  H12 UNL     1      22.539 -17.921  45.975  1.00  0.00     0.159 HD
ATOM      5  H11 UNL     1      23.857 -17.586  44.812  1.00  0.00     0.159 HD
ENDBRANCH   2   3
BRANCH   2   6
HETATM    6  O1  UNL     1      20.851 -16.439  44.937  1.00  0.00    -0.189 OA
BRANCH   6   7
HETATM    7  N2  UNL     1      20.331 -16.992  46.080  1.00  0.00     0.041 NA
BRANCH   7   8
HETATM    8  N3  UNL     1      20.643 -16.095  47.119  1.00  0.00     0.012 NA
BRANCH   8   9
HETATM    9  N4  UNL     1      19.513 -15.599  47.729  1.00  0.00    -0.018 NA
BRANCH   9  10
HETATM   10  N5  UNL     1      19.901 -14.511  48.527  1.00  0.00    -0.331 N 
ATOM     11  H52 UNL     1      20.697 -13.901  48.346  1.00  0.00     0.173 HD
ATOM     12  H51 UNL     1      19.246 -14.449  49.306  1.00  0.00     0.173 HD
ENDBRANCH   9  10
ENDBRANCH   8   9
ENDBRANCH   7   8
ENDBRANCH   6   7
ENDBRANCH   2   6
ENDBRANCH   1   2
BRANCH   1  13
HETATM   13  C2  UNL     1      22.944 -14.198  44.689  1.00  0.00     0.114 C 
BRANCH  13  14
HETATM   14  C3  UNL     1      22.957 -14.326  46.204  1.00  0.00     0.215 C 
BRANCH  14  15
HETATM   15  O2  UNL     1      22.320 -13.319  46.872  1.00  0.00    -0.384 OA
ATOM     16  H2  UNL     1      22.514 -13.268  47.801  1.00  0.00     0.211 HD
ENDBRANCH  14  15
BRANCH  14  17
HETATM   17  C4  UNL     1      24.419 -14.217  46.588  1.00  0.00     0.103 A 
HETATM   18  N7  UNL     1      25.445 -13.880  45.813  1.00  0.00    -0.293 N 
HETATM   19  N8  UNL     1      26.607 -13.833  46.299  1.00  0.00    -0.281 N 
ATOM     20  H7  UNL     1      25.292 -13.659  44.829  1.00  0.00     0.187 HD
HETATM   21  C5  UNL     1      26.799 -14.121  47.583  1.00  0.00     0.174 A 
ATOM     22  H8  UNL     1      27.399 -13.574  45.709  1.00  0.00     0.188 HD
HETATM   23  N9  UNL     1      28.050 -14.123  48.309  1.00  0.00    -0.073 NA
HETATM   24  S1  UNL     1      25.203 -14.473  48.085  1.00  0.00    -0.038 SA
ENDBRANCH  14  17
ENDBRANCH  13  14
ENDBRANCH   1  13
BRANCH   1  25
HETATM   25  C6  UNL     1      23.361 -15.838  42.742  1.00  0.00     0.167 A 
HETATM   26  N10 UNL     1      22.522 -15.887  41.657  1.00  0.00    -0.174 N 
HETATM   27  C7  UNL     1      22.858 -16.299  40.442  1.00  0.00     0.679 A 
ATOM     28  H10 UNL     1      21.559 -15.581  41.797  1.00  0.00     0.186 HD
HETATM   29  N12 UNL     1      24.098 -16.716  40.175  1.00  0.00    -0.175 N 
HETATM   30  C8  UNL     1      24.974 -16.694  41.191  1.00  0.00     0.152 A 
ATOM     31  H12 UNL     1      24.366 -17.037  39.244  1.00  0.00     0.186 HD
HETATM   32  C9  UNL     1      24.641 -16.262  42.482  1.00  0.00     0.191 A 
BRANCH  27  33
HETATM   33  N11 UNL     1      21.995 -16.309  39.463  1.00  0.00    -0.234 N 
ATOM     34 2H11 UNL     1      21.157 -16.879  39.580  1.00  0.00     0.174 HD
ATOM     35 1H11 UNL     1      22.151 -15.770  38.611  1.00  0.00     0.174 HD
ENDBRANCH  27  33
BRANCH  30  36
HETATM   36  N13 UNL     1      26.198 -17.095  40.991  1.00  0.00    -0.383 N 
ATOM     37 2H13 UNL     1      26.566 -17.023  40.042  1.00  0.00     0.157 HD
ATOM     38 1H13 UNL     1      26.743 -17.456  41.775  1.00  0.00     0.157 HD
ENDBRANCH  30  36
BRANCH  32  39
HETATM   39  N14 UNL     1      25.686 -16.315  43.428  1.00  0.00    -0.108 N 
HETATM   40  O3  UNL     1      26.435 -15.330  43.532  1.00  0.00    -0.531 OA
HETATM   41  O4  UNL     1      25.971 -17.414  44.214  1.00  0.00    -0.531 OA
ENDBRANCH  32  39
ENDBRANCH   1  25
TORSDOF 15
ENDMDL
MODEL 5
REMARK VINA RESULT: -6.805151170      2.915      5.524
REMARK  15 active torsions:
REMARK  status: ('A' for Active; 'I' for Inactive)
REMARK    1  A    between atoms: N1_1  and  C1_4 
REMARK    2  A    between atoms: C1_4  and  O1_5 
REMARK    3  A    between atoms: C1_4  and  N6_12 
REMARK    4  A    between atoms: O1_5  and  N2_6 
REMARK    5  A    between atoms: N2_6  and  N3_7 
REMARK    6  A    between atoms: N3_7  and  N4_8 
REMARK    7  A    between atoms: N4_8  and  N5_9 
REMARK    8  A    between atoms: N6_12  and  C2_13 
REMARK    9  A    between atoms: N6_12  and  C6_25 
REMARK   10  A    between atoms: C2_13  and  C3_14 
REMARK   11  A    between atoms: C3_14  and  O2_15 
REMARK   12  A    between atoms: C3_14  and  C4_17 
REMARK   13  A    between atoms: C7_28  and  N11_29 
REMARK   14  A    between atoms: C8_34  and  N13_35 
REMARK   15  A    between atoms: C9_38  and  N14_39 
ROOT
HETATM    1  N6  UNL     1      25.174 -15.352  43.567  1.00  0.00    -0.271 N 
ENDROOT
BRANCH   1   2
HETATM    2  C1  UNL     1      23.878 -14.702  43.398  1.00  0.00     0.246 C 
BRANCH   2   3
HETATM    3  N1  UNL     1      23.903 -13.571  42.797  1.00  0.00    -0.364 N 
ATOM      4  H12 UNL     1      24.828 -13.163  42.669  1.00  0.00     0.159 HD
ATOM      5  H11 UNL     1      23.051 -13.116  42.469  1.00  0.00     0.159 HD
ENDBRANCH   2   3
BRANCH   2   6
HETATM    6  O1  UNL     1      22.720 -15.251  43.843  1.00  0.00    -0.189 OA
BRANCH   6   7
HETATM    7  N2  UNL     1      22.312 -15.014  45.132  1.00  0.00     0.041 NA
BRANCH   7   8
HETATM    8  N3  UNL     1      22.243 -13.614  45.263  1.00  0.00     0.012 NA
BRANCH   8   9
HETATM    9  N4  UNL     1      21.848 -13.232  46.525  1.00  0.00    -0.018 NA
BRANCH   9  10
HETATM   10  N5  UNL     1      21.842 -14.378  47.336  1.00  0.00    -0.331 N 
ATOM     11  H52 UNL     1      21.357 -15.249  47.123  1.00  0.00     0.173 HD
ATOM     12  H51 UNL     1      22.406 -14.177  48.161  1.00  0.00     0.173 HD
ENDBRANCH   9  10
ENDBRANCH   8   9
ENDBRANCH   7   8
ENDBRANCH   6   7
ENDBRANCH   2   6
ENDBRANCH   1   2
BRANCH   1  13
HETATM   13  C2  UNL     1      26.242 -14.464  43.433  1.00  0.00     0.114 C 
BRANCH  13  14
HETATM   14  C3  UNL     1      27.492 -14.842  44.212  1.00  0.00     0.215 C 
BRANCH  14  15
HETATM   15  O2  UNL     1      27.803 -14.003  45.245  1.00  0.00    -0.384 OA
ATOM     16  H2  UNL     1      28.680 -13.639  45.216  1.00  0.00     0.211 HD
ENDBRANCH  14  15
BRANCH  14  17
HETATM   17  C4  UNL     1      28.624 -14.707  43.215  1.00  0.00     0.103 A 
HETATM   18  N7  UNL     1      28.730 -15.273  42.017  1.00  0.00    -0.293 N 
HETATM   19  N8  UNL     1      29.747 -15.048  41.306  1.00  0.00    -0.281 N 
ATOM     20  H7  UNL     1      27.991 -15.886  41.673  1.00  0.00     0.187 HD
HETATM   21  C5  UNL     1      30.707 -14.247  41.759  1.00  0.00     0.174 A 
ATOM     22  H8  UNL     1      29.833 -15.480  40.385  1.00  0.00     0.188 HD
HETATM   23  N9  UNL     1      31.936 -13.877  41.092  1.00  0.00    -0.073 NA
HETATM   24  S1  UNL     1      30.079 -13.813  43.289  1.00  0.00    -0.038 SA
ENDBRANCH  14  17
ENDBRANCH  13  14
ENDBRANCH   1  13
BRANCH   1  25
HETATM   25  C6  UNL     1      25.076 -16.730  43.830  1.00  0.00     0.167 A 
HETATM   26  N10 UNL     1      24.802 -17.185  45.095  1.00  0.00    -0.174 N 
HETATM   27  C7  UNL     1      24.713 -18.460  45.452  1.00  0.00     0.679 A 
ATOM     28  H10 UNL     1      24.653 -16.485  45.821  1.00  0.00     0.186 HD
HETATM   29  N12 UNL     1      24.894 -19.438  44.563  1.00  0.00    -0.175 N 
HETATM   30  C8  UNL     1      25.165 -19.066  43.302  1.00  0.00     0.152 A 
ATOM     31  H12 UNL     1      24.830 -20.421  44.829  1.00  0.00     0.186 HD
HETATM   32  C9  UNL     1      25.262 -17.726  42.902  1.00  0.00     0.191 A 
BRANCH  27  33
HETATM   33  N11 UNL     1      24.444 -18.804  46.682  1.00  0.00    -0.234 N 
ATOM     34 2H11 UNL     1      25.164 -18.640  47.386  1.00  0.00     0.174 HD
ATOM     35 1H11 UNL     1      23.548 -19.225  46.932  1.00  0.00     0.174 HD
ENDBRANCH  27  33
BRANCH  30  36
HETATM   36  N13 UNL     1      25.357 -19.978  42.391  1.00  0.00    -0.383 N 
ATOM     37 2H13 UNL     1      26.320 -20.169  42.115  1.00  0.00     0.157 HD
ATOM     38 1H13 UNL     1      24.555 -20.467  41.993  1.00  0.00     0.157 HD
ENDBRANCH  30  36
BRANCH  32  39
HETATM   39  N14 UNL     1      25.562 -17.520  41.540  1.00  0.00    -0.108 N 
HETATM   40  O3  UNL     1      26.745 -17.305  41.224  1.00  0.00    -0.531 OA
HETATM   41  O4  UNL     1      24.620 -17.484  40.531  1.00  0.00    -0.531 OA
ENDBRANCH  32  39
ENDBRANCH   1  25
TORSDOF 15
ENDMDL
