MODEL 1
REMARK VINA RESULT: -6.763280467      0.000      0.000
REMARK  14 active torsions:
REMARK  status: ('A' for Active; 'I' for Inactive)
REMARK    1  A    between atoms: C3_4  and  N1_5 
REMARK    2  A    between atoms: N1_5  and  C4_7 
REMARK    3  A    between atoms: C5_8  and  C6_9 
REMARK    4  A    between atoms: C6_9  and  N2_10 
REMARK    5  A    between atoms: C6_9  and  N3_14 
REMARK    6  A    between atoms: N6_22  and  N7_23 
REMARK    7  A    between atoms: N7_23  and  N8_25 
REMARK    8  A    between atoms: N8_25  and  C7_27 
REMARK    9  A    between atoms: N8_25  and  N10_33 
REMARK   10  A    between atoms: C7_27  and  C8_28 
REMARK   11  A    between atoms: C8_28  and  N9_29 
REMARK   12  A    between atoms: N10_33  and  N11_34 
REMARK   13  A    between atoms: C9_39  and  O2_40 
REMARK   14  A    between atoms: C9_39  and  C10_42 
ROOT
HETATM    1  C4  UNL     1      26.798 -17.641  46.752  1.00  0.00     0.179 A 
HETATM    2  C5  UNL     1      28.192 -17.811  46.838  1.00  0.00     0.132 A 
HETATM    3  N4  UNL     1      28.517 -17.853  48.131  1.00  0.00    -0.281 N 
ATOM      4  H4  UNL     1      29.463 -17.968  48.493  1.00  0.00     0.188 HD
HETATM    5  N5  UNL     1      27.458 -17.726  48.853  1.00  0.00    -0.218 N 
ATOM      6  H5  UNL     1      27.423 -17.723  49.873  1.00  0.00     0.210 HD
HETATM    7  N6  UNL     1      26.406 -17.596  48.024  1.00  0.00    -0.135 N 
ENDROOT
BRANCH   1   8
HETATM    8  N1  UNL     1      26.144 -17.580  45.517  1.00  0.00    -0.319 N 
ATOM      9  H1  UNL     1      26.078 -18.466  45.016  1.00  0.00     0.169 HD
BRANCH   8  10
HETATM   10  C3  UNL     1      25.555 -16.459  44.853  1.00  0.00     0.145 C 
HETATM   11  S1  UNL     1      26.182 -15.704  43.326  1.00  0.00    -0.084 SA
HETATM   12  C2  UNL     1      24.715 -14.658  43.026  1.00  0.00     0.116 C 
HETATM   13  C1  UNL     1      23.839 -15.209  41.952  1.00  0.00     0.027 C 
HETATM   14  C9  UNL     1      24.133 -14.674  44.406  1.00  0.00     0.227 C 
HETATM   15  N12 UNL     1      24.559 -15.764  45.160  1.00  0.00    -0.331 N 
ATOM     16  H12 UNL     1      24.036 -16.008  46.002  1.00  0.00     0.165 HD
BRANCH  14  17
HETATM   17  O2  UNL     1      24.521 -13.436  44.984  1.00  0.00    -0.362 OA
ATOM     18  H2  UNL     1      24.975 -13.671  45.785  1.00  0.00     0.213 HD
ENDBRANCH  14  17
BRANCH  14  19
HETATM   19  C10 UNL     1      22.647 -14.689  44.324  1.00  0.00     0.288 C 
HETATM   20  N13 UNL     1      21.970 -15.898  44.629  1.00  0.00    -0.058 NA
HETATM   21  O3  UNL     1      21.950 -13.694  44.000  1.00  0.00    -0.271 OA
ENDBRANCH  14  19
ENDBRANCH   8  10
ENDBRANCH   1   8
BRANCH   2  22
HETATM   22  C6  UNL     1      29.196 -17.909  45.764  1.00  0.00     0.432 C 
BRANCH  22  23
HETATM   23  N2  UNL     1      29.781 -16.679  45.346  1.00  0.00    -0.045 N 
ATOM     24  H23 UNL     1      30.421 -16.845  44.570  1.00  0.00     0.277 HD
ATOM     25  H22 UNL     1      29.079 -16.100  44.884  1.00  0.00     0.277 HD
ATOM     26  H21 UNL     1      30.250 -16.140  46.075  1.00  0.00     0.277 HD
ENDBRANCH  22  23
BRANCH  22  27
HETATM   27  N3  UNL     1      30.265 -18.812  46.150  1.00  0.00    -0.045 N 
ATOM     28  H33 UNL     1      31.185 -18.408  45.970  1.00  0.00     0.277 HD
ATOM     29  H32 UNL     1      30.336 -18.905  47.163  1.00  0.00     0.277 HD
ATOM     30  H31 UNL     1      30.152 -19.717  45.692  1.00  0.00     0.277 HD
ENDBRANCH  22  27
ENDBRANCH   2  22
BRANCH   7  31
HETATM   31  N7  UNL     1      25.077 -17.436  48.461  1.00  0.00    -0.057 N 
ATOM     32  H7  UNL     1      24.378 -18.142  48.233  1.00  0.00     0.229 HD
BRANCH  31  33
HETATM   33  N8  UNL     1      24.707 -16.292  49.220  1.00  0.00     0.268 N 
HETATM   34  O1  UNL     1      25.792 -15.442  49.070  1.00  0.00    -0.016 OA
BRANCH  33  35
HETATM   35  C7  UNL     1      24.578 -16.512  50.596  1.00  0.00     0.334 C 
BRANCH  35  36
HETATM   36  C8  UNL     1      23.265 -16.443  51.256  1.00  0.00     0.295 C 
BRANCH  36  37
HETATM   37  N9  UNL     1      22.674 -15.157  51.409  1.00  0.00    -0.074 N 
ATOM     38  H93 UNL     1      22.449 -15.004  52.393  1.00  0.00     0.274 HD
ATOM     39  H92 UNL     1      23.383 -14.439  51.261  1.00  0.00     0.274 HD
ATOM     40  H91 UNL     1      21.855 -14.945  50.840  1.00  0.00     0.274 HD
ENDBRANCH  36  37
ENDBRANCH  35  36
ENDBRANCH  33  35
BRANCH  33  41
HETATM   41  N10 UNL     1      23.689 -15.648  48.556  1.00  0.00     0.159 NA
BRANCH  41  42
HETATM   42  N11 UNL     1      24.096 -14.352  48.134  1.00  0.00    -0.313 N 
ATOM     43 2H11 UNL     1      24.071 -14.039  47.163  1.00  0.00     0.174 HD
ATOM     44 1H11 UNL     1      24.409 -13.791  48.925  1.00  0.00     0.174 HD
ENDBRANCH  41  42
ENDBRANCH  33  41
ENDBRANCH  31  33
ENDBRANCH   7  31
TORSDOF 14
ENDMDL
MODEL 2
REMARK VINA RESULT: -6.581430410      3.168      5.537
REMARK  14 active torsions:
REMARK  status: ('A' for Active; 'I' for Inactive)
REMARK    1  A    between atoms: C3_4  and  N1_5 
REMARK    2  A    between atoms: N1_5  and  C4_7 
REMARK    3  A    between atoms: C5_8  and  C6_9 
REMARK    4  A    between atoms: C6_9  and  N2_10 
REMARK    5  A    between atoms: C6_9  and  N3_14 
REMARK    6  A    between atoms: N6_22  and  N7_23 
REMARK    7  A    between atoms: N7_23  and  N8_25 
REMARK    8  A    between atoms: N8_25  and  C7_27 
REMARK    9  A    between atoms: N8_25  and  N10_33 
REMARK   10  A    between atoms: C7_27  and  C8_28 
REMARK   11  A    between atoms: C8_28  and  N9_29 
REMARK   12  A    between atoms: N10_33  and  N11_34 
REMARK   13  A    between atoms: C9_39  and  O2_40 
REMARK   14  A    between atoms: C9_39  and  C10_42 
ROOT
HETATM    1  C4  UNL     1      25.377 -17.418  43.161  1.00  0.00     0.179 A 
HETATM    2  C5  UNL     1      25.163 -17.047  41.822  1.00  0.00     0.132 A 
HETATM    3  N4  UNL     1      26.356 -16.871  41.253  1.00  0.00    -0.281 N 
ATOM      4  H4  UNL     1      26.508 -16.597  40.282  1.00  0.00     0.188 HD
HETATM    5  N5  UNL     1      27.289 -17.098  42.112  1.00  0.00    -0.218 N 
ATOM      6  H5  UNL     1      28.293 -17.036  41.939  1.00  0.00     0.210 HD
HETATM    7  N6  UNL     1      26.704 -17.432  43.277  1.00  0.00    -0.135 N 
ENDROOT
BRANCH   1   8
HETATM    8  N1  UNL     1      24.311 -17.695  44.022  1.00  0.00    -0.319 N 
ATOM      9  H1  UNL     1      23.851 -18.592  43.869  1.00  0.00     0.169 HD
BRANCH   8  10
HETATM   10  C3  UNL     1      23.770 -16.907  45.086  1.00  0.00     0.145 C 
HETATM   11  S1  UNL     1      24.312 -16.979  46.817  1.00  0.00    -0.084 SA
HETATM   12  C2  UNL     1      23.404 -15.487  47.353  1.00  0.00     0.116 C 
HETATM   13  C1  UNL     1      24.303 -14.308  47.511  1.00  0.00     0.027 C 
HETATM   14  C9  UNL     1      22.417 -15.402  46.230  1.00  0.00     0.227 C 
HETATM   15  N12 UNL     1      22.842 -16.066  45.083  1.00  0.00    -0.331 N 
ATOM     16  H12 UNL     1      22.377 -15.858  44.200  1.00  0.00     0.165 HD
BRANCH  14  17
HETATM   17  O2  UNL     1      21.216 -15.950  46.755  1.00  0.00    -0.362 OA
ATOM     18  H2  UNL     1      21.073 -15.490  47.573  1.00  0.00     0.213 HD
ENDBRANCH  14  17
BRANCH  14  19
HETATM   19  C10 UNL     1      22.155 -13.975  45.899  1.00  0.00     0.288 C 
HETATM   20  N13 UNL     1      22.540 -13.502  44.618  1.00  0.00    -0.058 NA
HETATM   21  O3  UNL     1      21.614 -13.158  46.686  1.00  0.00    -0.271 OA
ENDBRANCH  14  19
ENDBRANCH   8  10
ENDBRANCH   1   8
BRANCH   2  22
HETATM   22  C6  UNL     1      23.899 -16.839  41.094  1.00  0.00     0.432 C 
BRANCH  22  23
HETATM   23  N2  UNL     1      23.079 -15.773  41.565  1.00  0.00    -0.045 N 
ATOM     24  H23 UNL     1      22.976 -15.835  42.577  1.00  0.00     0.277 HD
ATOM     25  H22 UNL     1      23.582 -14.888  41.486  1.00  0.00     0.277 HD
ATOM     26  H21 UNL     1      22.161 -15.690  41.127  1.00  0.00     0.277 HD
ENDBRANCH  22  23
BRANCH  22  27
HETATM   27  N3  UNL     1      24.155 -16.624  39.681  1.00  0.00    -0.045 N 
ATOM     28  H33 UNL     1      24.989 -17.121  39.367  1.00  0.00     0.277 HD
ATOM     29  H32 UNL     1      23.467 -17.096  39.094  1.00  0.00     0.277 HD
ATOM     30  H31 UNL     1      24.208 -15.626  39.476  1.00  0.00     0.277 HD
ENDBRANCH  22  27
ENDBRANCH   2  22
BRANCH   7  31
HETATM   31  N7  UNL     1      27.416 -17.750  44.450  1.00  0.00    -0.057 N 
ATOM     32  H7  UNL     1      27.465 -18.717  44.769  1.00  0.00     0.229 HD
BRANCH  31  33
HETATM   33  N8  UNL     1      28.067 -16.726  45.191  1.00  0.00     0.268 N 
HETATM   34  O1  UNL     1      29.224 -16.489  44.465  1.00  0.00    -0.016 OA
BRANCH  33  35
HETATM   35  C7  UNL     1      28.486 -17.100  46.473  1.00  0.00     0.334 C 
BRANCH  35  36
HETATM   36  C8  UNL     1      29.856 -17.580  46.714  1.00  0.00     0.295 C 
BRANCH  36  37
HETATM   37  N9  UNL     1      30.235 -18.812  46.109  1.00  0.00    -0.074 N 
ATOM     38  H93 UNL     1      29.573 -19.539  46.380  1.00  0.00     0.274 HD
ATOM     39  H92 UNL     1      30.065 -18.761  45.105  1.00  0.00     0.274 HD
ATOM     40  H91 UNL     1      31.185 -19.143  46.274  1.00  0.00     0.274 HD
ENDBRANCH  36  37
ENDBRANCH  35  36
ENDBRANCH  33  35
BRANCH  33  41
HETATM   41  N10 UNL     1      27.343 -15.566  45.045  1.00  0.00     0.159 NA
BRANCH  41  42
HETATM   42  N11 UNL     1      28.177 -14.494  44.620  1.00  0.00    -0.313 N 
ATOM     43 2H11 UNL     1      29.139 -14.617  44.305  1.00  0.00     0.174 HD
ATOM     44 1H11 UNL     1      27.684 -13.603  44.675  1.00  0.00     0.174 HD
ENDBRANCH  41  42
ENDBRANCH  33  41
ENDBRANCH  31  33
ENDBRANCH   7  31
TORSDOF 14
ENDMDL
MODEL 3
REMARK VINA RESULT: -6.572100527      3.435      6.041
REMARK  14 active torsions:
REMARK  status: ('A' for Active; 'I' for Inactive)
REMARK    1  A    between atoms: C3_4  and  N1_5 
REMARK    2  A    between atoms: N1_5  and  C4_7 
REMARK    3  A    between atoms: C5_8  and  C6_9 
REMARK    4  A    between atoms: C6_9  and  N2_10 
REMARK    5  A    between atoms: C6_9  and  N3_14 
REMARK    6  A    between atoms: N6_22  and  N7_23 
REMARK    7  A    between atoms: N7_23  and  N8_25 
REMARK    8  A    between atoms: N8_25  and  C7_27 
REMARK    9  A    between atoms: N8_25  and  N10_33 
REMARK   10  A    between atoms: C7_27  and  C8_28 
REMARK   11  A    between atoms: C8_28  and  N9_29 
REMARK   12  A    between atoms: N10_33  and  N11_34 
REMARK   13  A    between atoms: C9_39  and  O2_40 
REMARK   14  A    between atoms: C9_39  and  C10_42 
ROOT
HETATM    1  C4  UNL     1      26.675 -15.365  43.355  1.00  0.00     0.179 A 
HETATM    2  C5  UNL     1      28.072 -15.525  43.372  1.00  0.00     0.132 A 
HETATM    3  N4  UNL     1      28.426 -16.130  42.238  1.00  0.00    -0.281 N 
ATOM      4  H4  UNL     1      29.381 -16.374  41.978  1.00  0.00     0.188 HD
HETATM    5  N5  UNL     1      27.381 -16.359  41.520  1.00  0.00    -0.218 N 
ATOM      6  H5  UNL     1      27.369 -16.811  40.605  1.00  0.00     0.210 HD
HETATM    7  N6  UNL     1      26.310 -15.898  42.191  1.00  0.00    -0.135 N 
ENDROOT
BRANCH   1   8
HETATM    8  N1  UNL     1      25.998 -14.739  44.407  1.00  0.00    -0.319 N 
ATOM      9  H1  UNL     1      26.300 -13.788  44.613  1.00  0.00     0.169 HD
BRANCH   8  10
HETATM   10  C3  UNL     1      24.944 -15.237  45.237  1.00  0.00     0.145 C 
HETATM   11  S1  UNL     1      24.631 -14.717  46.947  1.00  0.00    -0.084 SA
HETATM   12  C2  UNL     1      23.000 -15.528  47.087  1.00  0.00     0.116 C 
HETATM   13  C1  UNL     1      21.876 -14.554  46.980  1.00  0.00     0.027 C 
HETATM   14  C9  UNL     1      23.125 -16.497  45.951  1.00  0.00     0.227 C 
HETATM   15  N12 UNL     1      24.072 -16.106  45.008  1.00  0.00    -0.331 N 
ATOM     16  H12 UNL     1      24.054 -16.548  44.089  1.00  0.00     0.165 HD
BRANCH  14  17
HETATM   17  O2  UNL     1      23.455 -17.736  46.561  1.00  0.00    -0.362 OA
ATOM     18  H2  UNL     1      23.933 -18.217  45.896  1.00  0.00     0.213 HD
ENDBRANCH  14  17
BRANCH  14  19
HETATM   19  C10 UNL     1      21.807 -16.659  45.281  1.00  0.00     0.288 C 
HETATM   20  N13 UNL     1      20.857 -17.532  45.872  1.00  0.00    -0.058 NA
HETATM   21  O3  UNL     1      21.479 -16.070  44.221  1.00  0.00    -0.271 OA
ENDBRANCH  14  19
ENDBRANCH   8  10
ENDBRANCH   1   8
BRANCH   2  22
HETATM   22  C6  UNL     1      29.049 -15.152  44.411  1.00  0.00     0.432 C 
BRANCH  22  23
HETATM   23  N2  UNL     1      29.896 -16.202  44.872  1.00  0.00    -0.045 N 
ATOM     24  H23 UNL     1      29.356 -16.865  45.427  1.00  0.00     0.277 HD
ATOM     25  H22 UNL     1      30.168 -16.797  44.090  1.00  0.00     0.277 HD
ATOM     26  H21 UNL     1      30.725 -15.909  45.390  1.00  0.00     0.277 HD
ENDBRANCH  22  23
BRANCH  22  27
HETATM   27  N3  UNL     1      29.889 -14.062  43.950  1.00  0.00    -0.045 N 
ATOM     28  H33 UNL     1      30.129 -14.159  42.963  1.00  0.00     0.277 HD
ATOM     29  H32 UNL     1      29.374 -13.183  43.895  1.00  0.00     0.277 HD
ATOM     30  H31 UNL     1      30.720 -13.979  44.536  1.00  0.00     0.277 HD
ENDBRANCH  22  27
ENDBRANCH   2  22
BRANCH   7  31
HETATM   31  N7  UNL     1      24.989 -15.976  41.709  1.00  0.00    -0.057 N 
ATOM     32  H7  UNL     1      24.466 -15.122  41.515  1.00  0.00     0.229 HD
BRANCH  31  33
HETATM   33  N8  UNL     1      24.381 -17.243  41.493  1.00  0.00     0.268 N 
HETATM   34  O1  UNL     1      25.083 -17.757  40.415  1.00  0.00    -0.016 OA
BRANCH  33  35
HETATM   35  C7  UNL     1      23.041 -17.195  41.092  1.00  0.00     0.334 C 
BRANCH  35  36
HETATM   36  C8  UNL     1      22.504 -16.029  40.373  1.00  0.00     0.295 C 
BRANCH  36  37
HETATM   37  N9  UNL     1      21.837 -16.269  39.139  1.00  0.00    -0.074 N 
ATOM     38  H93 UNL     1      21.303 -17.135  39.207  1.00  0.00     0.274 HD
ATOM     39  H92 UNL     1      21.086 -15.589  39.023  1.00  0.00     0.274 HD
ATOM     40  H91 UNL     1      22.406 -16.290  38.293  1.00  0.00     0.274 HD
ENDBRANCH  36  37
ENDBRANCH  35  36
ENDBRANCH  33  35
BRANCH  33  41
HETATM   41  N10 UNL     1      24.729 -18.068  42.537  1.00  0.00     0.159 NA
BRANCH  41  42
HETATM   42  N11 UNL     1      25.297 -19.282  42.059  1.00  0.00    -0.313 N 
ATOM     43 2H11 UNL     1      24.841 -19.892  41.381  1.00  0.00     0.174 HD
ATOM     44 1H11 UNL     1      26.209 -19.451  42.484  1.00  0.00     0.174 HD
ENDBRANCH  41  42
ENDBRANCH  33  41
ENDBRANCH  31  33
ENDBRANCH   7  31
TORSDOF 14
ENDMDL
MODEL 4
REMARK VINA RESULT: -6.498123425      3.167      5.438
REMARK  14 active torsions:
REMARK  status: ('A' for Active; 'I' for Inactive)
REMARK    1  A    between atoms: C3_4  and  N1_5 
REMARK    2  A    between atoms: N1_5  and  C4_7 
REMARK    3  A    between atoms: C5_8  and  C6_9 
REMARK    4  A    between atoms: C6_9  and  N2_10 
REMARK    5  A    between atoms: C6_9  and  N3_14 
REMARK    6  A    between atoms: N6_22  and  N7_23 
REMARK    7  A    between atoms: N7_23  and  N8_25 
REMARK    8  A    between atoms: N8_25  and  C7_27 
REMARK    9  A    between atoms: N8_25  and  N10_33 
REMARK   10  A    between atoms: C7_27  and  C8_28 
REMARK   11  A    between atoms: C8_28  and  N9_29 
REMARK   12  A    between atoms: N10_33  and  N11_34 
REMARK   13  A    between atoms: C9_39  and  O2_40 
REMARK   14  A    between atoms: C9_39  and  C10_42 
ROOT
HETATM    1  C4  UNL     1      27.607 -16.703  44.820  1.00  0.00     0.179 A 
HETATM    2  C5  UNL     1      28.981 -16.606  45.107  1.00  0.00     0.132 A 
HETATM    3  N4  UNL     1      29.571 -16.008  44.072  1.00  0.00    -0.281 N 
ATOM      4  H4  UNL     1      30.568 -15.805  44.003  1.00  0.00     0.188 HD
HETATM    5  N5  UNL     1      28.695 -15.725  43.171  1.00  0.00    -0.218 N 
ATOM      6  H5  UNL     1      28.877 -15.265  42.279  1.00  0.00     0.210 HD
HETATM    7  N6  UNL     1      27.496 -16.144  43.616  1.00  0.00    -0.135 N 
ENDROOT
BRANCH   1   8
HETATM    8  N1  UNL     1      26.709 -17.270  45.729  1.00  0.00    -0.319 N 
ATOM      9  H1  UNL     1      27.086 -18.027  46.298  1.00  0.00     0.169 HD
BRANCH   8  10
HETATM   10  C3  UNL     1      25.338 -16.944  45.980  1.00  0.00     0.145 C 
HETATM   11  S1  UNL     1      24.700 -16.243  47.527  1.00  0.00    -0.084 SA
HETATM   12  C2  UNL     1      23.043 -15.840  46.873  1.00  0.00     0.116 C 
HETATM   13  C1  UNL     1      22.889 -14.385  46.586  1.00  0.00     0.027 C 
HETATM   14  C9  UNL     1      23.042 -16.739  45.675  1.00  0.00     0.227 C 
HETATM   15  N12 UNL     1      24.325 -17.085  45.258  1.00  0.00    -0.331 N 
ATOM     16  H12 UNL     1      24.444 -17.472  44.322  1.00  0.00     0.165 HD
BRANCH  14  17
HETATM   17  O2  UNL     1      22.280 -17.871  46.065  1.00  0.00    -0.362 OA
ATOM     18  H2  UNL     1      22.244 -18.421  45.291  1.00  0.00     0.213 HD
ENDBRANCH  14  17
BRANCH  14  19
HETATM   19  C10 UNL     1      22.327 -16.077  44.551  1.00  0.00     0.288 C 
HETATM   20  N13 UNL     1      23.079 -15.270  43.658  1.00  0.00    -0.058 NA
HETATM   21  O3  UNL     1      21.093 -16.187  44.340  1.00  0.00    -0.271 OA
ENDBRANCH  14  19
ENDBRANCH   8  10
ENDBRANCH   1   8
BRANCH   2  22
HETATM   22  C6  UNL     1      29.730 -17.069  46.288  1.00  0.00     0.432 C 
BRANCH  22  23
HETATM   23  N2  UNL     1      30.037 -18.460  46.323  1.00  0.00    -0.045 N 
ATOM     24  H23 UNL     1      30.015 -18.797  47.285  1.00  0.00     0.277 HD
ATOM     25  H22 UNL     1      29.265 -18.996  45.924  1.00  0.00     0.277 HD
ATOM     26  H21 UNL     1      30.914 -18.733  45.879  1.00  0.00     0.277 HD
ENDBRANCH  22  23
BRANCH  22  27
HETATM   27  N3  UNL     1      30.971 -16.328  46.426  1.00  0.00    -0.045 N 
ATOM     28  H33 UNL     1      31.785 -16.916  46.249  1.00  0.00     0.277 HD
ATOM     29  H32 UNL     1      31.099 -15.659  45.666  1.00  0.00     0.277 HD
ATOM     30  H31 UNL     1      31.018 -15.878  47.341  1.00  0.00     0.277 HD
ENDBRANCH  22  27
ENDBRANCH   2  22
BRANCH   7  31
HETATM   31  N7  UNL     1      26.296 -16.001  42.893  1.00  0.00    -0.057 N 
ATOM     32  H7  UNL     1      25.707 -15.181  43.040  1.00  0.00     0.229 HD
BRANCH  31  33
HETATM   33  N8  UNL     1      25.903 -16.996  41.957  1.00  0.00     0.268 N 
HETATM   34  O1  UNL     1      27.091 -17.643  41.657  1.00  0.00    -0.016 OA
BRANCH  33  35
HETATM   35  C7  UNL     1      25.415 -16.504  40.740  1.00  0.00     0.334 C 
BRANCH  35  36
HETATM   36  C8  UNL     1      24.059 -16.836  40.276  1.00  0.00     0.295 C 
BRANCH  36  37
HETATM   37  N9  UNL     1      22.969 -16.171  40.904  1.00  0.00    -0.074 N 
ATOM     38  H93 UNL     1      23.303 -15.311  41.338  1.00  0.00     0.274 HD
ATOM     39  H92 UNL     1      22.345 -15.796  40.189  1.00  0.00     0.274 HD
ATOM     40  H91 UNL     1      22.424 -16.701  41.583  1.00  0.00     0.274 HD
ENDBRANCH  36  37
ENDBRANCH  35  36
ENDBRANCH  33  35
BRANCH  33  41
HETATM   41  N10 UNL     1      25.169 -17.947  42.626  1.00  0.00     0.159 NA
BRANCH  41  42
HETATM   42  N11 UNL     1      25.674 -19.253  42.373  1.00  0.00    -0.313 N 
ATOM     43 2H11 UNL     1      26.458 -19.445  41.749  1.00  0.00     0.174 HD
ATOM     44 1H11 UNL     1      25.151 -19.955  42.894  1.00  0.00     0.174 HD
ENDBRANCH  41  42
ENDBRANCH  33  41
ENDBRANCH  31  33
ENDBRANCH   7  31
TORSDOF 14
ENDMDL
MODEL 5
REMARK VINA RESULT: -6.450043186      1.939      2.486
REMARK  14 active torsions:
REMARK  status: ('A' for Active; 'I' for Inactive)
REMARK    1  A    between atoms: C3_4  and  N1_5 
REMARK    2  A    between atoms: N1_5  and  C4_7 
REMARK    3  A    between atoms: C5_8  and  C6_9 
REMARK    4  A    between atoms: C6_9  and  N2_10 
REMARK    5  A    between atoms: C6_9  and  N3_14 
REMARK    6  A    between atoms: N6_22  and  N7_23 
REMARK    7  A    between atoms: N7_23  and  N8_25 
REMARK    8  A    between atoms: N8_25  and  C7_27 
REMARK    9  A    between atoms: N8_25  and  N10_33 
REMARK   10  A    between atoms: C7_27  and  C8_28 
REMARK   11  A    between atoms: C8_28  and  N9_29 
REMARK   12  A    between atoms: N10_33  and  N11_34 
REMARK   13  A    between atoms: C9_39  and  O2_40 
REMARK   14  A    between atoms: C9_39  and  C10_42 
ROOT
HETATM    1  C4  UNL     1      25.411 -17.387  46.303  1.00  0.00     0.179 A 
HETATM    2  C5  UNL     1      26.550 -17.214  45.496  1.00  0.00     0.132 A 
HETATM    3  N4  UNL     1      27.618 -17.223  46.294  1.00  0.00    -0.281 N 
ATOM      4  H4  UNL     1      28.583 -17.117  45.982  1.00  0.00     0.188 HD
HETATM    5  N5  UNL     1      27.250 -17.385  47.517  1.00  0.00    -0.218 N 
ATOM      6  H5  UNL     1      27.866 -17.429  48.329  1.00  0.00     0.210 HD
HETATM    7  N6  UNL     1      25.908 -17.486  47.535  1.00  0.00    -0.135 N 
ENDROOT
BRANCH   1   8
HETATM    8  N1  UNL     1      24.126 -17.442  45.753  1.00  0.00    -0.319 N 
ATOM      9  H1  UNL     1      23.531 -18.187  46.113  1.00  0.00     0.169 HD
BRANCH   8  10
HETATM   10  C3  UNL     1      23.524 -16.608  44.759  1.00  0.00     0.145 C 
HETATM   11  S1  UNL     1      22.968 -14.901  45.028  1.00  0.00    -0.084 SA
HETATM   12  C2  UNL     1      22.694 -14.520  43.262  1.00  0.00     0.116 C 
HETATM   13  C1  UNL     1      23.785 -13.679  42.691  1.00  0.00     0.027 C 
HETATM   14  C9  UNL     1      22.612 -15.919  42.734  1.00  0.00     0.227 C 
HETATM   15  N12 UNL     1      23.230 -16.848  43.565  1.00  0.00    -0.331 N 
ATOM     16  H12 UNL     1      23.454 -17.768  43.185  1.00  0.00     0.165 HD
BRANCH  14  17
HETATM   17  O2  UNL     1      21.223 -16.174  42.582  1.00  0.00    -0.362 OA
ATOM     18  H2  UNL     1      20.930 -16.452  43.442  1.00  0.00     0.213 HD
ENDBRANCH  14  17
BRANCH  14  19
HETATM   19  C10 UNL     1      23.234 -15.983  41.384  1.00  0.00     0.288 C 
HETATM   20  N13 UNL     1      24.600 -16.357  41.291  1.00  0.00    -0.058 NA
HETATM   21  O3  UNL     1      22.625 -15.725  40.315  1.00  0.00    -0.271 OA
ENDBRANCH  14  19
ENDBRANCH   8  10
ENDBRANCH   1   8
BRANCH   2  22
HETATM   22  C6  UNL     1      26.649 -17.024  44.038  1.00  0.00     0.432 C 
BRANCH  22  23
HETATM   23  N2  UNL     1      27.827 -16.368  43.577  1.00  0.00    -0.045 N 
ATOM     24  H23 UNL     1      28.185 -15.745  44.302  1.00  0.00     0.277 HD
ATOM     25  H22 UNL     1      28.595 -17.036  43.515  1.00  0.00     0.277 HD
ATOM     26  H21 UNL     1      27.737 -15.860  42.696  1.00  0.00     0.277 HD
ENDBRANCH  22  23
BRANCH  22  27
HETATM   27  N3  UNL     1      26.543 -18.299  43.352  1.00  0.00    -0.045 N 
ATOM     28  H33 UNL     1      26.718 -18.207  42.352  1.00  0.00     0.277 HD
ATOM     29  H32 UNL     1      27.318 -18.921  43.585  1.00  0.00     0.277 HD
ATOM     30  H31 UNL     1      25.639 -18.732  43.542  1.00  0.00     0.277 HD
ENDBRANCH  22  27
ENDBRANCH   2  22
BRANCH   7  31
HETATM   31  N7  UNL     1      25.150 -17.672  48.707  1.00  0.00    -0.057 N 
ATOM     32  H7  UNL     1      24.924 -18.615  49.023  1.00  0.00     0.229 HD
BRANCH  31  33
HETATM   33  N8  UNL     1      24.697 -16.549  49.451  1.00  0.00     0.268 N 
HETATM   34  O1  UNL     1      25.728 -15.634  49.311  1.00  0.00    -0.016 OA
BRANCH  33  35
HETATM   35  C7  UNL     1      24.560 -16.767  50.827  1.00  0.00     0.334 C 
BRANCH  35  36
HETATM   36  C8  UNL     1      23.258 -16.609  51.494  1.00  0.00     0.295 C 
BRANCH  36  37
HETATM   37  N9  UNL     1      22.697 -15.301  51.538  1.00  0.00    -0.074 N 
ATOM     38  H93 UNL     1      22.880 -14.886  52.451  1.00  0.00     0.274 HD
ATOM     39  H92 UNL     1      23.237 -14.682  50.934  1.00  0.00     0.274 HD
ATOM     40  H91 UNL     1      21.706 -15.208  51.317  1.00  0.00     0.274 HD
ENDBRANCH  36  37
ENDBRANCH  35  36
ENDBRANCH  33  35
BRANCH  33  41
HETATM   41  N10 UNL     1      23.651 -15.974  48.766  1.00  0.00     0.159 NA
BRANCH  41  42
HETATM   42  N11 UNL     1      23.935 -14.617  48.447  1.00  0.00    -0.313 N 
ATOM     43 2H11 UNL     1      23.900 -14.239  47.501  1.00  0.00     0.174 HD
ATOM     44 1H11 UNL     1      24.174 -14.087  49.285  1.00  0.00     0.174 HD
ENDBRANCH  41  42
ENDBRANCH  33  41
ENDBRANCH  31  33
ENDBRANCH   7  31
TORSDOF 14
ENDMDL
