MODEL 1
REMARK VINA RESULT: -7.730574379      0.000      0.000
REMARK  11 active torsions:
REMARK  status: ('A' for Active; 'I' for Inactive)
REMARK    1  A    between atoms: N1_1  and  C1_4 
REMARK    2  A    between atoms: C2_7  and  C3_8 
REMARK    3  A    between atoms: C4_11  and  C5_12 
REMARK    4  A    between atoms: C5_12  and  O1_13 
REMARK    5  A    between atoms: C5_12  and  C6_15 
REMARK    6  A    between atoms: C6_15  and  N4_16 
REMARK    7  A    between atoms: N4_16  and  C7_17 
REMARK    8  A    between atoms: N4_16  and  C9_21 
REMARK    9  A    between atoms: C7_17  and  C8_18 
REMARK   10  A    between atoms: N11_36  and  O4_37 
REMARK   11  A    between atoms: C11_41  and  N13_42 
ROOT
HETATM    1  C3  UNL     1      23.610 -16.481  43.818  1.00  0.00     0.198 A 
HETATM    2  N3  UNL     1      24.791 -16.778  44.454  1.00  0.00    -0.324 N 
ATOM      3  H3  UNL     1      25.615 -17.003  43.897  1.00  0.00     0.169 HD
HETATM    4  C4  UNL     1      24.879 -16.777  45.759  1.00  0.00     0.129 A 
HETATM    5  N9  UNL     1      23.782 -16.477  46.486  1.00  0.00    -0.176 N 
ATOM      6  H9  UNL     1      23.845 -16.476  47.504  1.00  0.00     0.185 HD
HETATM    7  C10 UNL     1      22.615 -16.183  45.906  1.00  0.00     0.705 A 
HETATM    8  N10 UNL     1      21.563 -15.892  46.627  1.00  0.00    -0.232 N 
ATOM      9 1H10 UNL     1      20.673 -15.668  46.183  1.00  0.00     0.174 HD
ATOM     10 2H10 UNL     1      21.616 -15.887  47.646  1.00  0.00     0.174 HD
HETATM   11  N11 UNL     1      22.546 -16.190  44.557  1.00  0.00    -0.032 N 
ENDROOT
BRANCH   4  12
HETATM   12  C5  UNL     1      26.150 -17.086  46.500  1.00  0.00     0.204 C 
BRANCH  12  13
HETATM   13  O1  UNL     1      25.920 -17.894  47.575  1.00  0.00    -0.386 OA
ATOM     14  H1  UNL     1      26.309 -18.752  47.458  1.00  0.00     0.210 HD
ENDBRANCH  12  13
BRANCH  12  15
HETATM   15  C6  UNL     1      27.156 -17.545  45.508  1.00  0.00     0.181 C 
BRANCH  15  16
HETATM   16  N4  UNL     1      28.327 -16.706  45.371  1.00  0.00    -0.202 N 
BRANCH  16  17
HETATM   17  C7  UNL     1      28.223 -15.468  44.665  1.00  0.00     0.254 C 
BRANCH  17  18
HETATM   18  C8  UNL     1      27.606 -15.541  43.333  1.00  0.00     0.192 C 
HETATM   19  O2  UNL     1      27.906 -16.321  42.408  1.00  0.00    -0.647 OA
HETATM   20  O3  UNL     1      26.576 -14.636  43.085  1.00  0.00    -0.647 OA
ENDBRANCH  17  18
ENDBRANCH  16  17
BRANCH  16  21
HETATM   21  C9  UNL     1      29.545 -17.187  45.956  1.00  0.00     0.712 A 
HETATM   22  N5  UNL     1      30.625 -16.510  46.380  1.00  0.00    -0.115 N 
HETATM   23  N6  UNL     1      31.527 -17.345  46.864  1.00  0.00    -0.213 N 
ATOM     24  H5  UNL     1      30.733 -15.497  46.335  1.00  0.00     0.207 HD
HETATM   25  N7  UNL     1      31.019 -18.556  46.746  1.00  0.00    -0.213 N 
ATOM     26  H6  UNL     1      32.439 -17.101  47.253  1.00  0.00     0.210 HD
HETATM   27  N8  UNL     1      29.795 -18.498  46.188  1.00  0.00    -0.115 N 
ATOM     28  H7  UNL     1      31.487 -19.415  47.036  1.00  0.00     0.210 HD
ATOM     29  H8  UNL     1      29.179 -19.285  45.983  1.00  0.00     0.207 HD
ENDBRANCH  16  21
ENDBRANCH  15  16
ENDBRANCH  12  15
ENDBRANCH   4  12
BRANCH   1  30
HETATM   30  C2  UNL     1      23.609 -16.509  42.356  1.00  0.00     0.183 A 
HETATM   31  N2  UNL     1      24.807 -16.777  41.736  1.00  0.00    -0.172 N 
HETATM   32  C1  UNL     1      24.959 -16.838  40.419  1.00  0.00     0.692 A 
ATOM     33  H2  UNL     1      25.626 -16.938  42.322  1.00  0.00     0.186 HD
HETATM   34  N14 UNL     1      23.903 -16.631  39.610  1.00  0.00    -0.023 N 
HETATM   35  C11 UNL     1      22.723 -16.369  40.173  1.00  0.00     0.692 A 
ATOM     36  H14 UNL     1      24.004 -16.673  38.596  1.00  0.00     0.203 HD
HETATM   37  N12 UNL     1      22.597 -16.312  41.532  1.00  0.00    -0.172 N 
ATOM     38  H12 UNL     1      21.679 -16.109  41.928  1.00  0.00     0.186 HD
BRANCH  32  39
HETATM   39  N1  UNL     1      26.105 -17.091  39.909  1.00  0.00    -0.234 N 
ATOM     40  H12 UNL     1      26.889 -16.465  40.095  1.00  0.00     0.174 HD
ATOM     41  H11 UNL     1      26.238 -17.915  39.322  1.00  0.00     0.174 HD
ENDBRANCH  32  39
BRANCH  35  42
HETATM   42  N13 UNL     1      21.704 -16.171  39.420  1.00  0.00    -0.234 N 
ATOM     43 2H13 UNL     1      21.085 -15.386  39.620  1.00  0.00     0.174 HD
ATOM     44 1H13 UNL     1      21.518 -16.791  38.632  1.00  0.00     0.174 HD
ENDBRANCH  35  42
ENDBRANCH   1  30
BRANCH  11  45
HETATM   45  O4  UNL     1      21.316 -15.876  44.008  1.00  0.00    -0.268 OA
ATOM     46  H4  UNL     1      20.996 -16.268  43.204  1.00  0.00     0.246 HD
ENDBRANCH  11  45
TORSDOF 11
ENDMDL
MODEL 2
REMARK VINA RESULT: -7.657427696      1.776      1.931
REMARK  11 active torsions:
REMARK  status: ('A' for Active; 'I' for Inactive)
REMARK    1  A    between atoms: N1_1  and  C1_4 
REMARK    2  A    between atoms: C2_7  and  C3_8 
REMARK    3  A    between atoms: C4_11  and  C5_12 
REMARK    4  A    between atoms: C5_12  and  O1_13 
REMARK    5  A    between atoms: C5_12  and  C6_15 
REMARK    6  A    between atoms: C6_15  and  N4_16 
REMARK    7  A    between atoms: N4_16  and  C7_17 
REMARK    8  A    between atoms: N4_16  and  C9_21 
REMARK    9  A    between atoms: C7_17  and  C8_18 
REMARK   10  A    between atoms: N11_36  and  O4_37 
REMARK   11  A    between atoms: C11_41  and  N13_42 
ROOT
HETATM    1  C3  UNL     1      24.434 -15.212  44.234  1.00  0.00     0.198 A 
HETATM    2  N3  UNL     1      25.699 -14.901  44.670  1.00  0.00    -0.324 N 
ATOM      3  H3  UNL     1      26.499 -15.104  44.069  1.00  0.00     0.169 HD
HETATM    4  C4  UNL     1      25.899 -14.349  45.839  1.00  0.00     0.129 A 
HETATM    5  N9  UNL     1      24.834 -14.085  46.626  1.00  0.00    -0.176 N 
ATOM      6  H9  UNL     1      24.984 -13.656  47.538  1.00  0.00     0.185 HD
HETATM    7  C10 UNL     1      23.589 -14.372  46.239  1.00  0.00     0.705 A 
HETATM    8  N10 UNL     1      22.568 -14.106  47.013  1.00  0.00    -0.232 N 
ATOM      9 1H10 UNL     1      21.617 -14.325  46.717  1.00  0.00     0.174 HD
ATOM     10 2H10 UNL     1      22.707 -13.676  47.928  1.00  0.00     0.174 HD
HETATM   11  N11 UNL     1      23.404 -14.942  45.028  1.00  0.00    -0.032 N 
ENDROOT
BRANCH   4  12
HETATM   12  C5  UNL     1      27.262 -13.983  46.356  1.00  0.00     0.204 C 
BRANCH  12  13
HETATM   13  O1  UNL     1      27.191 -13.025  47.324  1.00  0.00    -0.386 OA
ATOM     14  H1  UNL     1      27.983 -12.502  47.358  1.00  0.00     0.210 HD
ENDBRANCH  12  13
BRANCH  12  15
HETATM   15  C6  UNL     1      27.974 -15.242  46.696  1.00  0.00     0.181 C 
BRANCH  15  16
HETATM   16  N4  UNL     1      29.085 -15.585  45.835  1.00  0.00    -0.202 N 
BRANCH  16  17
HETATM   17  C7  UNL     1      29.429 -14.713  44.757  1.00  0.00     0.254 C 
BRANCH  17  18
HETATM   18  C8  UNL     1      29.336 -15.294  43.410  1.00  0.00     0.192 C 
HETATM   19  O2  UNL     1      30.144 -15.149  42.472  1.00  0.00    -0.647 OA
HETATM   20  O3  UNL     1      28.220 -16.092  43.163  1.00  0.00    -0.647 OA
ENDBRANCH  17  18
ENDBRANCH  16  17
BRANCH  16  21
HETATM   21  C9  UNL     1      29.776 -16.808  46.119  1.00  0.00     0.712 A 
HETATM   22  N5  UNL     1      30.855 -17.032  46.888  1.00  0.00    -0.115 N 
HETATM   23  N6  UNL     1      31.163 -18.317  46.882  1.00  0.00    -0.213 N 
ATOM     24  H5  UNL     1      31.364 -16.313  47.402  1.00  0.00     0.207 HD
HETATM   25  N7  UNL     1      30.277 -18.911  46.108  1.00  0.00    -0.213 N 
ATOM     26  H6  UNL     1      31.934 -18.762  47.380  1.00  0.00     0.210 HD
HETATM   27  N8  UNL     1      29.404 -18.011  45.618  1.00  0.00    -0.115 N 
ATOM     28  H7  UNL     1      30.255 -19.911  45.907  1.00  0.00     0.210 HD
ATOM     29  H8  UNL     1      28.619 -18.197  44.994  1.00  0.00     0.207 HD
ENDBRANCH  16  21
ENDBRANCH  15  16
ENDBRANCH  12  15
ENDBRANCH   4  12
BRANCH   1  30
HETATM   30  C2  UNL     1      24.311 -15.828  42.914  1.00  0.00     0.183 A 
HETATM   31  N2  UNL     1      25.368 -16.595  42.481  1.00  0.00    -0.172 N 
HETATM   32  C1  UNL     1      25.397 -17.216  41.309  1.00  0.00     0.692 A 
ATOM     33  H2  UNL     1      26.175 -16.692  43.097  1.00  0.00     0.186 HD
HETATM   34  N14 UNL     1      24.353 -17.113  40.467  1.00  0.00    -0.023 N 
HETATM   35  C11 UNL     1      23.308 -16.378  40.849  1.00  0.00     0.692 A 
ATOM     36  H14 UNL     1      24.361 -17.584  39.562  1.00  0.00     0.203 HD
HETATM   37  N12 UNL     1      23.305 -15.749  42.062  1.00  0.00    -0.172 N 
ATOM     38  H12 UNL     1      22.489 -15.195  42.322  1.00  0.00     0.186 HD
BRANCH  32  39
HETATM   39  N1  UNL     1      26.415 -17.915  40.971  1.00  0.00    -0.234 N 
ATOM     40  H12 UNL     1      27.238 -17.930  41.574  1.00  0.00     0.174 HD
ATOM     41  H11 UNL     1      26.406 -18.455  40.106  1.00  0.00     0.174 HD
ENDBRANCH  32  39
BRANCH  35  42
HETATM   42  N13 UNL     1      22.302 -16.269  40.062  1.00  0.00    -0.234 N 
ATOM     43 2H13 UNL     1      22.365 -15.641  39.261  1.00  0.00     0.174 HD
ATOM     44 1H13 UNL     1      21.451 -16.805  40.237  1.00  0.00     0.174 HD
ENDBRANCH  35  42
ENDBRANCH   1  30
BRANCH  11  45
HETATM   45  O4  UNL     1      22.095 -15.215  44.675  1.00  0.00    -0.268 OA
ATOM     46  H4  UNL     1      21.706 -16.077  44.771  1.00  0.00     0.246 HD
ENDBRANCH  11  45
TORSDOF 11
ENDMDL
MODEL 3
REMARK VINA RESULT: -7.614073912      2.469      7.643
REMARK  11 active torsions:
REMARK  status: ('A' for Active; 'I' for Inactive)
REMARK    1  A    between atoms: N1_1  and  C1_4 
REMARK    2  A    between atoms: C2_7  and  C3_8 
REMARK    3  A    between atoms: C4_11  and  C5_12 
REMARK    4  A    between atoms: C5_12  and  O1_13 
REMARK    5  A    between atoms: C5_12  and  C6_15 
REMARK    6  A    between atoms: C6_15  and  N4_16 
REMARK    7  A    between atoms: N4_16  and  C7_17 
REMARK    8  A    between atoms: N4_16  and  C9_21 
REMARK    9  A    between atoms: C7_17  and  C8_18 
REMARK   10  A    between atoms: N11_36  and  O4_37 
REMARK   11  A    between atoms: C11_41  and  N13_42 
ROOT
HETATM    1  C3  UNL     1      27.144 -17.324  47.510  1.00  0.00     0.198 A 
HETATM    2  N3  UNL     1      26.635 -17.055  46.262  1.00  0.00    -0.324 N 
ATOM      3  H3  UNL     1      25.681 -16.704  46.177  1.00  0.00     0.169 HD
HETATM    4  C4  UNL     1      27.349 -17.240  45.182  1.00  0.00     0.129 A 
HETATM    5  N9  UNL     1      28.611 -17.706  45.306  1.00  0.00    -0.176 N 
ATOM      6  H9  UNL     1      29.171 -17.852  44.467  1.00  0.00     0.185 HD
HETATM    7  C10 UNL     1      29.142 -17.979  46.500  1.00  0.00     0.705 A 
HETATM    8  N10 UNL     1      30.368 -18.426  46.601  1.00  0.00    -0.232 N 
ATOM      9 1H10 UNL     1      30.773 -18.635  47.514  1.00  0.00     0.174 HD
ATOM     10 2H10 UNL     1      30.937 -18.576  45.769  1.00  0.00     0.174 HD
HETATM   11  N11 UNL     1      28.388 -17.781  47.603  1.00  0.00    -0.032 N 
ENDROOT
BRANCH   4  12
HETATM   12  C5  UNL     1      26.840 -16.953  43.797  1.00  0.00     0.204 C 
BRANCH  12  13
HETATM   13  O1  UNL     1      26.792 -18.083  43.035  1.00  0.00    -0.386 OA
ATOM     14  H1  UNL     1      25.957 -18.171  42.592  1.00  0.00     0.210 HD
ENDBRANCH  12  13
BRANCH  12  15
HETATM   15  C6  UNL     1      25.586 -16.166  43.927  1.00  0.00     0.181 C 
BRANCH  15  16
HETATM   16  N4  UNL     1      24.382 -16.828  43.474  1.00  0.00    -0.202 N 
BRANCH  16  17
HETATM   17  C7  UNL     1      23.620 -17.604  44.401  1.00  0.00     0.254 C 
BRANCH  17  18
HETATM   18  C8  UNL     1      22.673 -16.855  45.237  1.00  0.00     0.192 C 
HETATM   19  O2  UNL     1      22.784 -16.596  46.451  1.00  0.00    -0.647 OA
HETATM   20  O3  UNL     1      21.528 -16.385  44.595  1.00  0.00    -0.647 OA
ENDBRANCH  17  18
ENDBRANCH  16  17
BRANCH  16  21
HETATM   21  C9  UNL     1      24.030 -16.668  42.094  1.00  0.00     0.712 A 
HETATM   22  N5  UNL     1      24.773 -16.838  40.988  1.00  0.00    -0.115 N 
HETATM   23  N6  UNL     1      24.052 -16.591  39.909  1.00  0.00    -0.213 N 
ATOM     24  H5  UNL     1      25.754 -17.118  40.982  1.00  0.00     0.207 HD
HETATM   25  N7  UNL     1      22.847 -16.263  40.331  1.00  0.00    -0.213 N 
ATOM     26  H6  UNL     1      24.365 -16.645  38.939  1.00  0.00     0.210 HD
HETATM   27  N8  UNL     1      22.795 -16.298  41.676  1.00  0.00    -0.115 N 
ATOM     28  H7  UNL     1      22.064 -16.016  39.724  1.00  0.00     0.210 HD
ATOM     29  H8  UNL     1      21.988 -16.089  42.262  1.00  0.00     0.207 HD
ENDBRANCH  16  21
ENDBRANCH  15  16
ENDBRANCH  12  15
ENDBRANCH   4  12
BRANCH   1  30
HETATM   30  C2  UNL     1      26.270 -17.087  48.657  1.00  0.00     0.183 A 
HETATM   31  N2  UNL     1      25.219 -16.220  48.473  1.00  0.00    -0.172 N 
HETATM   32  C1  UNL     1      24.342 -15.911  49.420  1.00  0.00     0.692 A 
ATOM     33  H2  UNL     1      25.106 -15.789  47.555  1.00  0.00     0.186 HD
HETATM   34  N14 UNL     1      24.456 -16.456  50.645  1.00  0.00    -0.023 N 
HETATM   35  C11 UNL     1      25.462 -17.303  50.864  1.00  0.00     0.692 A 
ATOM     36  H14 UNL     1      23.791 -16.228  51.384  1.00  0.00     0.203 HD
HETATM   37  N12 UNL     1      26.349 -17.603  49.870  1.00  0.00    -0.172 N 
ATOM     38  H12 UNL     1      27.108 -18.255  50.073  1.00  0.00     0.186 HD
BRANCH  32  39
HETATM   39  N1  UNL     1      23.387 -15.094  49.178  1.00  0.00    -0.234 N 
ATOM     40  H12 UNL     1      23.095 -14.433  49.898  1.00  0.00     0.174 HD
ATOM     41  H11 UNL     1      22.920 -15.101  48.271  1.00  0.00     0.174 HD
ENDBRANCH  32  39
BRANCH  35  42
HETATM   42  N13 UNL     1      25.587 -17.836  52.024  1.00  0.00    -0.234 N 
ATOM     43 2H13 UNL     1      25.997 -18.766  52.100  1.00  0.00     0.174 HD
ATOM     44 1H13 UNL     1      25.279 -17.333  52.857  1.00  0.00     0.174 HD
ENDBRANCH  35  42
ENDBRANCH   1  30
BRANCH  11  45
HETATM   45  O4  UNL     1      28.988 -18.077  48.814  1.00  0.00    -0.268 OA
ATOM     46  H4  UNL     1      29.756 -17.618  49.133  1.00  0.00     0.246 HD
ENDBRANCH  11  45
TORSDOF 11
ENDMDL
MODEL 4
REMARK VINA RESULT: -7.552324035      0.984      1.240
REMARK  11 active torsions:
REMARK  status: ('A' for Active; 'I' for Inactive)
REMARK    1  A    between atoms: N1_1  and  C1_4 
REMARK    2  A    between atoms: C2_7  and  C3_8 
REMARK    3  A    between atoms: C4_11  and  C5_12 
REMARK    4  A    between atoms: C5_12  and  O1_13 
REMARK    5  A    between atoms: C5_12  and  C6_15 
REMARK    6  A    between atoms: C6_15  and  N4_16 
REMARK    7  A    between atoms: N4_16  and  C7_17 
REMARK    8  A    between atoms: N4_16  and  C9_21 
REMARK    9  A    between atoms: C7_17  and  C8_18 
REMARK   10  A    between atoms: N11_36  and  O4_37 
REMARK   11  A    between atoms: C11_41  and  N13_42 
ROOT
HETATM    1  C3  UNL     1      23.878 -15.739  43.872  1.00  0.00     0.198 A 
HETATM    2  N3  UNL     1      24.897 -16.317  44.591  1.00  0.00    -0.324 N 
ATOM      3  H3  UNL     1      25.561 -16.926  44.114  1.00  0.00     0.169 HD
HETATM    4  C4  UNL     1      25.032 -16.101  45.874  1.00  0.00     0.129 A 
HETATM    5  N9  UNL     1      24.146 -15.292  46.495  1.00  0.00    -0.176 N 
ATOM      6  H9  UNL     1      24.246 -15.121  47.495  1.00  0.00     0.185 HD
HETATM    7  C10 UNL     1      23.143 -14.711  45.833  1.00  0.00     0.705 A 
HETATM    8  N10 UNL     1      22.297 -13.928  46.451  1.00  0.00    -0.232 N 
ATOM      9 1H10 UNL     1      21.530 -13.484  45.944  1.00  0.00     0.174 HD
ATOM     10 2H10 UNL     1      22.388 -13.749  47.451  1.00  0.00     0.174 HD
HETATM   11  N11 UNL     1      23.022 -14.948  44.508  1.00  0.00    -0.032 N 
ENDROOT
BRANCH   4  12
HETATM   12  C5  UNL     1      26.133 -16.703  46.701  1.00  0.00     0.204 C 
BRANCH  12  13
HETATM   13  O1  UNL     1      26.412 -17.980  46.312  1.00  0.00    -0.386 OA
ATOM     14  H1  UNL     1      27.346 -18.119  46.213  1.00  0.00     0.210 HD
ENDBRANCH  12  13
BRANCH  12  15
HETATM   15  C6  UNL     1      27.262 -15.737  46.729  1.00  0.00     0.181 C 
BRANCH  15  16
HETATM   16  N4  UNL     1      28.302 -15.963  45.749  1.00  0.00    -0.202 N 
BRANCH  16  17
HETATM   17  C7  UNL     1      28.294 -15.213  44.533  1.00  0.00     0.254 C 
BRANCH  17  18
HETATM   18  C8  UNL     1      27.942 -15.964  43.320  1.00  0.00     0.192 C 
HETATM   19  O2  UNL     1      28.072 -15.587  42.139  1.00  0.00    -0.647 OA
HETATM   20  O3  UNL     1      27.406 -17.235  43.520  1.00  0.00    -0.647 OA
ENDBRANCH  17  18
ENDBRANCH  16  17
BRANCH  16  21
HETATM   21  C9  UNL     1      29.289 -16.954  46.064  1.00  0.00     0.712 A 
HETATM   22  N5  UNL     1      29.380 -18.236  45.674  1.00  0.00    -0.115 N 
HETATM   23  N6  UNL     1      30.459 -18.797  46.191  1.00  0.00    -0.213 N 
ATOM     24  H5  UNL     1      28.712 -18.710  45.066  1.00  0.00     0.207 HD
HETATM   25  N7  UNL     1      31.054 -17.868  46.912  1.00  0.00    -0.213 N 
ATOM     26  H6  UNL     1      30.770 -19.760  46.059  1.00  0.00     0.210 HD
HETATM   27  N8  UNL     1      30.361 -16.715  46.858  1.00  0.00    -0.115 N 
ATOM     28  H7  UNL     1      31.919 -18.003  47.437  1.00  0.00     0.210 HD
ATOM     29  H8  UNL     1      30.596 -15.838  47.322  1.00  0.00     0.207 HD
ENDBRANCH  16  21
ENDBRANCH  15  16
ENDBRANCH  12  15
ENDBRANCH   4  12
BRANCH   1  30
HETATM   30  C2  UNL     1      23.809 -16.041  42.444  1.00  0.00     0.183 A 
HETATM   31  N2  UNL     1      24.973 -16.448  41.834  1.00  0.00    -0.172 N 
HETATM   32  C1  UNL     1      25.062 -16.758  40.547  1.00  0.00     0.692 A 
ATOM     33  H2  UNL     1      25.816 -16.514  42.404  1.00  0.00     0.186 HD
HETATM   34  N14 UNL     1      23.973 -16.683  39.760  1.00  0.00    -0.023 N 
HETATM   35  C11 UNL     1      22.824 -16.293  40.314  1.00  0.00     0.692 A 
ATOM     36  H14 UNL     1      24.025 -16.917  38.769  1.00  0.00     0.203 HD
HETATM   37  N12 UNL     1      22.762 -15.979  41.641  1.00  0.00    -0.172 N 
ATOM     38  H12 UNL     1      21.867 -15.684  42.032  1.00  0.00     0.186 HD
BRANCH  32  39
HETATM   39  N1  UNL     1      26.179 -17.130  40.046  1.00  0.00    -0.234 N 
ATOM     40  H12 UNL     1      26.473 -18.103  40.135  1.00  0.00     0.174 HD
ATOM     41  H11 UNL     1      26.774 -16.460  39.558  1.00  0.00     0.174 HD
ENDBRANCH  32  39
BRANCH  35  42
HETATM   42  N13 UNL     1      21.774 -16.217  39.582  1.00  0.00    -0.234 N 
ATOM     43 2H13 UNL     1      20.880 -15.994  40.019  1.00  0.00     0.174 HD
ATOM     44 1H13 UNL     1      21.835 -16.377  38.576  1.00  0.00     0.174 HD
ENDBRANCH  35  42
ENDBRANCH   1  30
BRANCH  11  45
HETATM   45  O4  UNL     1      21.968 -14.319  43.870  1.00  0.00    -0.268 OA
ATOM     46  H4  UNL     1      21.103 -14.244  44.257  1.00  0.00     0.246 HD
ENDBRANCH  11  45
TORSDOF 11
ENDMDL
MODEL 5
REMARK VINA RESULT: -7.503223322      3.173      7.443
REMARK  11 active torsions:
REMARK  status: ('A' for Active; 'I' for Inactive)
REMARK    1  A    between atoms: N1_1  and  C1_4 
REMARK    2  A    between atoms: C2_7  and  C3_8 
REMARK    3  A    between atoms: C4_11  and  C5_12 
REMARK    4  A    between atoms: C5_12  and  O1_13 
REMARK    5  A    between atoms: C5_12  and  C6_15 
REMARK    6  A    between atoms: C6_15  and  N4_16 
REMARK    7  A    between atoms: N4_16  and  C7_17 
REMARK    8  A    between atoms: N4_16  and  C9_21 
REMARK    9  A    between atoms: C7_17  and  C8_18 
REMARK   10  A    between atoms: N11_36  and  O4_37 
REMARK   11  A    between atoms: C11_41  and  N13_42 
ROOT
HETATM    1  C3  UNL     1      24.842 -16.538  48.479  1.00  0.00     0.198 A 
HETATM    2  N3  UNL     1      25.199 -16.908  47.205  1.00  0.00    -0.324 N 
ATOM      3  H3  UNL     1      26.006 -17.516  47.069  1.00  0.00     0.169 HD
HETATM    4  C4  UNL     1      24.523 -16.497  46.163  1.00  0.00     0.129 A 
HETATM    5  N9  UNL     1      23.456 -15.692  46.355  1.00  0.00    -0.176 N 
ATOM      6  H9  UNL     1      22.926 -15.368  45.546  1.00  0.00     0.185 HD
HETATM    7  C10 UNL     1      23.077 -15.310  47.577  1.00  0.00     0.705 A 
HETATM    8  N10 UNL     1      22.038 -14.532  47.743  1.00  0.00    -0.232 N 
ATOM      9 1H10 UNL     1      21.749 -14.240  48.677  1.00  0.00     0.174 HD
ATOM     10 2H10 UNL     1      21.500 -14.203  46.941  1.00  0.00     0.174 HD
HETATM   11  N11 UNL     1      23.788 -15.746  48.639  1.00  0.00    -0.032 N 
ENDROOT
BRANCH   4  12
HETATM   12  C5  UNL     1      24.868 -16.881  44.751  1.00  0.00     0.204 C 
BRANCH  12  13
HETATM   13  O1  UNL     1      23.815 -17.475  44.121  1.00  0.00    -0.386 OA
ATOM     14  H1  UNL     1      24.100 -18.183  43.556  1.00  0.00     0.210 HD
ENDBRANCH  12  13
BRANCH  12  15
HETATM   15  C6  UNL     1      25.476 -15.696  44.093  1.00  0.00     0.181 C 
BRANCH  15  16
HETATM   16  N4  UNL     1      24.744 -15.165  42.963  1.00  0.00    -0.202 N 
BRANCH  16  17
HETATM   17  C7  UNL     1      23.963 -13.981  43.129  1.00  0.00     0.254 C 
BRANCH  17  18
HETATM   18  C8  UNL     1      22.637 -14.168  43.735  1.00  0.00     0.192 C 
HETATM   19  O2  UNL     1      22.143 -13.522  44.679  1.00  0.00    -0.647 OA
HETATM   20  O3  UNL     1      21.852 -15.182  43.187  1.00  0.00    -0.647 OA
ENDBRANCH  17  18
ENDBRANCH  16  17
BRANCH  16  21
HETATM   21  C9  UNL     1      24.844 -15.883  41.726  1.00  0.00     0.712 A 
HETATM   22  N5  UNL     1      25.897 -16.509  41.174  1.00  0.00    -0.115 N 
HETATM   23  N6  UNL     1      25.552 -17.055  40.022  1.00  0.00    -0.213 N 
ATOM     24  H5  UNL     1      26.830 -16.556  41.586  1.00  0.00     0.207 HD
HETATM   25  N7  UNL     1      24.277 -16.775  39.841  1.00  0.00    -0.213 N 
ATOM     26  H6  UNL     1      26.154 -17.589  39.394  1.00  0.00     0.210 HD
HETATM   27  N8  UNL     1      23.805 -16.052  40.874  1.00  0.00    -0.115 N 
ATOM     28  H7  UNL     1      23.725 -17.065  39.033  1.00  0.00     0.210 HD
ATOM     29  H8  UNL     1      22.854 -15.701  40.991  1.00  0.00     0.207 HD
ENDBRANCH  16  21
ENDBRANCH  15  16
ENDBRANCH  12  15
ENDBRANCH   4  12
BRANCH   1  30
HETATM   30  C2  UNL     1      25.659 -17.046  49.580  1.00  0.00     0.183 A 
HETATM   31  N2  UNL     1      24.994 -17.607  50.645  1.00  0.00    -0.172 N 
HETATM   32  C1  UNL     1      25.601 -18.112  51.711  1.00  0.00     0.692 A 
ATOM     33  H2  UNL     1      23.975 -17.636  50.613  1.00  0.00     0.186 HD
HETATM   34  N14 UNL     1      26.944 -18.092  51.792  1.00  0.00    -0.023 N 
HETATM   35  C11 UNL     1      27.627 -17.557  50.779  1.00  0.00     0.692 A 
ATOM     36  H14 UNL     1      27.426 -18.475  52.606  1.00  0.00     0.203 HD
HETATM   37  N12 UNL     1      26.975 -17.045  49.694  1.00  0.00    -0.172 N 
ATOM     38  H12 UNL     1      27.528 -16.643  48.937  1.00  0.00     0.186 HD
BRANCH  32  39
HETATM   39  N1  UNL     1      24.918 -18.619  52.667  1.00  0.00    -0.234 N 
ATOM     40  H12 UNL     1      24.311 -19.419  52.484  1.00  0.00     0.174 HD
ATOM     41  H11 UNL     1      24.977 -18.228  53.607  1.00  0.00     0.174 HD
ENDBRANCH  32  39
BRANCH  35  42
HETATM   42  N13 UNL     1      28.907 -17.531  50.836  1.00  0.00    -0.234 N 
ATOM     43 2H13 UNL     1      29.388 -18.165  51.474  1.00  0.00     0.174 HD
ATOM     44 1H13 UNL     1      29.436 -16.885  50.249  1.00  0.00     0.174 HD
ENDBRANCH  35  42
ENDBRANCH   1  30
BRANCH  11  45
HETATM   45  O4  UNL     1      23.351 -15.322  49.881  1.00  0.00    -0.268 OA
ATOM     46  H4  UNL     1      22.686 -15.785  50.377  1.00  0.00     0.246 HD
ENDBRANCH  11  45
TORSDOF 11
ENDMDL
