MODEL 1
REMARK VINA RESULT: -7.468634013      0.000      0.000
REMARK  12 active torsions:
REMARK  status: ('A' for Active; 'I' for Inactive)
REMARK    1  A    between atoms: C2_7  and  C3_8 
REMARK    2  A    between atoms: C3_8  and  C4_9 
REMARK    3  A    between atoms: C3_8  and  N10_28 
REMARK       I    between atoms: C4_9  and  N3_11 
REMARK    4  A    between atoms: N3_11  and  N4_13 
REMARK    5  A    between atoms: N4_13  and  C5_15 
REMARK    6  A    between atoms: N7_20  and  N8_21 
REMARK    7  A    between atoms: C6_24  and  N9_25 
REMARK    8  A    between atoms: N10_28  and  N11_29 
REMARK       I    between atoms: N10_28  and  C7_32 
REMARK    9  A    between atoms: C7_32  and  C8_34 
REMARK   10  A    between atoms: C8_34  and  N12_35 
REMARK   11  A    between atoms: C10_42  and  N14_43 
REMARK   12  A    between atoms: N15_45  and  N16_47 
ROOT
HETATM    1  C3  UNL     1      24.362 -17.510  46.342  1.00  0.00     0.271 C 
ENDROOT
BRANCH   1   2
HETATM    2  C2  UNL     1      24.883 -17.708  44.970  1.00  0.00     0.117 A 
HETATM    3  N2  UNL     1      24.887 -18.815  44.243  1.00  0.00    -0.328 N 
HETATM    4  C1  UNL     1      25.395 -18.878  42.967  1.00  0.00     0.130 A 
ATOM      5  H2  UNL     1      24.494 -19.663  44.650  1.00  0.00     0.169 HD
HETATM    6  N1  UNL     1      25.367 -19.986  42.319  1.00  0.00    -0.384 N 
HETATM    7  C10 UNL     1      25.930 -17.758  42.388  1.00  0.00     0.108 A 
ATOM      8  H12 UNL     1      24.968 -20.820  42.750  1.00  0.00     0.157 HD
ATOM      9  H11 UNL     1      25.743 -20.034  41.373  1.00  0.00     0.157 HD
HETATM   10  C9  UNL     1      25.934 -16.604  43.125  1.00  0.00     0.124 A 
HETATM   11  N13 UNL     1      25.431 -16.614  44.345  1.00  0.00    -0.351 N 
ATOM     12  H13 UNL     1      25.449 -15.738  44.867  1.00  0.00     0.166 HD
BRANCH   7  13
HETATM   13  N14 UNL     1      26.470 -17.739  41.079  1.00  0.00    -0.282 N 
HETATM   14  N15 UNL     1      25.770 -17.295  40.126  1.00  0.00    -0.249 N 
ATOM     15  H15 UNL     1      26.152 -17.277  39.180  1.00  0.00     0.207 HD
ATOM     16  H14 UNL     1      27.415 -18.080  40.907  1.00  0.00     0.188 HD
BRANCH  14  17
HETATM   17  N16 UNL     1      24.490 -16.833  40.359  1.00  0.00    -0.331 N 
ATOM     18 2H16 UNL     1      24.367 -15.893  40.736  1.00  0.00     0.178 HD
ATOM     19 1H16 UNL     1      23.684 -17.425  40.157  1.00  0.00     0.178 HD
ENDBRANCH  14  17
ENDBRANCH   7  13
ENDBRANCH   1   2
BRANCH   1  20
HETATM   20  C4  UNL     1      25.477 -17.288  47.275  1.00  0.00     0.268 C 
HETATM   21  O1  UNL     1      26.620 -16.841  46.910  1.00  0.00    -0.269 OA
HETATM   22  N3  UNL     1      25.310 -17.571  48.644  1.00  0.00    -0.266 N 
ATOM     23  H3  UNL     1      24.422 -17.927  48.999  1.00  0.00     0.190 HD
BRANCH  22  24
HETATM   24  N4  UNL     1      26.397 -17.352  49.512  1.00  0.00    -0.279 N 
ATOM     25  H4  UNL     1      27.281 -17.007  49.138  1.00  0.00     0.189 HD
BRANCH  24  26
HETATM   26  C5  UNL     1      26.272 -17.607  50.910  1.00  0.00     0.184 A 
HETATM   27  N5  UNL     1      27.203 -18.210  51.659  1.00  0.00    -0.265 N 
HETATM   28  N6  UNL     1      26.754 -18.276  52.898  1.00  0.00    -0.218 N 
ATOM     29  H5  UNL     1      28.104 -18.558  51.329  1.00  0.00     0.190 HD
HETATM   30  N7  UNL     1      25.553 -17.725  52.945  1.00  0.00    -0.168 N 
ATOM     31  H6  UNL     1      27.251 -18.685  53.690  1.00  0.00     0.210 HD
HETATM   32  C6  UNL     1      25.210 -17.294  51.731  1.00  0.00     0.187 A 
BRANCH  30  33
HETATM   33  N8  UNL     1      24.742 -17.599  54.076  1.00  0.00    -0.321 N 
ATOM     34  H82 UNL     1      23.817 -17.170  54.069  1.00  0.00     0.179 HD
ATOM     35  H81 UNL     1      24.968 -17.913  55.019  1.00  0.00     0.179 HD
ENDBRANCH  30  33
BRANCH  32  36
HETATM   36  N9  UNL     1      24.127 -16.713  51.401  1.00  0.00    -0.380 N 
ATOM     37  H92 UNL     1      23.682 -16.716  50.483  1.00  0.00     0.158 HD
ATOM     38  H91 UNL     1      23.523 -16.149  51.999  1.00  0.00     0.158 HD
ENDBRANCH  32  36
ENDBRANCH  24  26
ENDBRANCH  22  24
ENDBRANCH   1  20
BRANCH   1  39
HETATM   39  N10 UNL     1      23.296 -16.575  46.408  1.00  0.00    -0.245 N 
HETATM   40  C7  UNL     1      23.179 -15.361  47.090  1.00  0.00     0.264 C 
HETATM   41  O2  UNL     1      24.044 -14.908  47.858  1.00  0.00    -0.270 OA
BRANCH  39  42
HETATM   42  N11 UNL     1      22.129 -16.933  45.635  1.00  0.00    -0.339 N 
ATOM     43 2H11 UNL     1      21.789 -17.879  45.807  1.00  0.00     0.177 HD
ATOM     44 1H11 UNL     1      21.786 -16.200  45.015  1.00  0.00     0.177 HD
ENDBRANCH  39  42
BRANCH  40  45
HETATM   45  C8  UNL     1      21.953 -14.506  46.928  1.00  0.00     0.334 C 
BRANCH  45  46
HETATM   46  N12 UNL     1      20.990 -14.734  47.966  1.00  0.00    -0.071 N 
ATOM     47 3H12 UNL     1      21.431 -14.728  48.886  1.00  0.00     0.274 HD
ATOM     48 2H12 UNL     1      20.372 -13.931  48.078  1.00  0.00     0.274 HD
ATOM     49 1H12 UNL     1      20.458 -15.592  47.819  1.00  0.00     0.274 HD
ENDBRANCH  45  46
ENDBRANCH  40  45
ENDBRANCH   1  39
TORSDOF 12
ENDMDL
MODEL 2
REMARK VINA RESULT: -7.446054454      5.462      9.059
REMARK  12 active torsions:
REMARK  status: ('A' for Active; 'I' for Inactive)
REMARK    1  A    between atoms: C2_7  and  C3_8 
REMARK    2  A    between atoms: C3_8  and  C4_9 
REMARK    3  A    between atoms: C3_8  and  N10_28 
REMARK       I    between atoms: C4_9  and  N3_11 
REMARK    4  A    between atoms: N3_11  and  N4_13 
REMARK    5  A    between atoms: N4_13  and  C5_15 
REMARK    6  A    between atoms: N7_20  and  N8_21 
REMARK    7  A    between atoms: C6_24  and  N9_25 
REMARK    8  A    between atoms: N10_28  and  N11_29 
REMARK       I    between atoms: N10_28  and  C7_32 
REMARK    9  A    between atoms: C7_32  and  C8_34 
REMARK   10  A    between atoms: C8_34  and  N12_35 
REMARK   11  A    between atoms: C10_42  and  N14_43 
REMARK   12  A    between atoms: N15_45  and  N16_47 
ROOT
HETATM    1  C3  UNL     1      27.885 -14.877  43.699  1.00  0.00     0.271 C 
ENDROOT
BRANCH   1   2
HETATM    2  C2  UNL     1      28.152 -15.790  44.834  1.00  0.00     0.117 A 
HETATM    3  N2  UNL     1      28.942 -16.852  44.868  1.00  0.00    -0.328 N 
HETATM    4  C1  UNL     1      29.120 -17.625  45.991  1.00  0.00     0.130 A 
ATOM      5  H2  UNL     1      29.443 -17.110  44.019  1.00  0.00     0.169 HD
HETATM    6  N1  UNL     1      29.901 -18.643  45.952  1.00  0.00    -0.384 N 
HETATM    7  C10 UNL     1      28.463 -17.308  47.150  1.00  0.00     0.108 A 
ATOM      8  H12 UNL     1      30.390 -18.880  45.089  1.00  0.00     0.157 HD
ATOM      9  H11 UNL     1      30.033 -19.217  46.785  1.00  0.00     0.157 HD
HETATM   10  C9  UNL     1      27.642 -16.213  47.135  1.00  0.00     0.124 A 
HETATM   11  N13 UNL     1      27.517 -15.515  46.021  1.00  0.00    -0.351 N 
ATOM     12  H13 UNL     1      26.897 -14.704  46.044  1.00  0.00     0.166 HD
BRANCH   7  13
HETATM   13  N14 UNL     1      28.594 -18.050  48.350  1.00  0.00    -0.282 N 
HETATM   14  N15 UNL     1      29.490 -17.731  49.181  1.00  0.00    -0.249 N 
ATOM     15  H15 UNL     1      29.591 -18.261  50.047  1.00  0.00     0.207 HD
ATOM     16  H14 UNL     1      27.971 -18.835  48.540  1.00  0.00     0.188 HD
BRANCH  14  17
HETATM   17  N16 UNL     1      30.333 -16.669  48.923  1.00  0.00    -0.331 N 
ATOM     18 2H16 UNL     1      30.001 -15.910  48.328  1.00  0.00     0.178 HD
ATOM     19 1H16 UNL     1      31.271 -16.648  49.323  1.00  0.00     0.178 HD
ENDBRANCH  14  17
ENDBRANCH   7  13
ENDBRANCH   1   2
BRANCH   1  20
HETATM   20  C4  UNL     1      29.131 -14.615  42.963  1.00  0.00     0.268 C 
HETATM   21  O1  UNL     1      30.079 -15.469  42.861  1.00  0.00    -0.269 OA
HETATM   22  N3  UNL     1      29.320 -13.372  42.328  1.00  0.00    -0.266 N 
ATOM     23  H3  UNL     1      28.600 -12.650  42.370  1.00  0.00     0.190 HD
BRANCH  22  24
HETATM   24  N4  UNL     1      30.524 -13.149  41.633  1.00  0.00    -0.279 N 
ATOM     25  H4  UNL     1      30.679 -13.602  40.733  1.00  0.00     0.189 HD
BRANCH  24  26
HETATM   26  C5  UNL     1      31.528 -12.295  42.178  1.00  0.00     0.184 A 
HETATM   27  N5  UNL     1      31.711 -12.075  43.486  1.00  0.00    -0.265 N 
HETATM   28  N6  UNL     1      32.723 -11.239  43.624  1.00  0.00    -0.218 N 
ATOM     29  H5  UNL     1      31.163 -12.482  44.244  1.00  0.00     0.190 HD
HETATM   30  N7  UNL     1      33.183 -10.927  42.424  1.00  0.00    -0.168 N 
ATOM     31  H6  UNL     1      33.090 -10.891  44.509  1.00  0.00     0.210 HD
HETATM   32  C6  UNL     1      32.471 -11.561  41.492  1.00  0.00     0.187 A 
BRANCH  30  33
HETATM   33  N8  UNL     1      34.249 -10.069  42.142  1.00  0.00    -0.321 N 
ATOM     34  H82 UNL     1      34.168  -9.226  41.573  1.00  0.00     0.179 HD
ATOM     35  H81 UNL     1      35.212 -10.175  42.463  1.00  0.00     0.179 HD
ENDBRANCH  30  33
BRANCH  32  36
HETATM   36  N9  UNL     1      32.631 -11.499  40.231  1.00  0.00    -0.380 N 
ATOM     37  H92 UNL     1      32.261 -12.144  39.532  1.00  0.00     0.158 HD
ATOM     38  H91 UNL     1      33.152 -10.794  39.709  1.00  0.00     0.158 HD
ENDBRANCH  32  36
ENDBRANCH  24  26
ENDBRANCH  22  24
ENDBRANCH   1  20
BRANCH   1  39
HETATM   39  N10 UNL     1      26.766 -15.266  42.918  1.00  0.00    -0.245 N 
HETATM   40  C7  UNL     1      26.527 -16.419  42.166  1.00  0.00     0.264 C 
HETATM   41  O2  UNL     1      27.356 -17.332  42.007  1.00  0.00    -0.270 OA
BRANCH  39  42
HETATM   42  N11 UNL     1      25.684 -14.310  42.894  1.00  0.00    -0.339 N 
ATOM     43 2H11 UNL     1      25.916 -13.407  43.306  1.00  0.00     0.177 HD
ATOM     44 1H11 UNL     1      24.822 -14.651  42.467  1.00  0.00     0.177 HD
ENDBRANCH  39  42
BRANCH  40  45
HETATM   45  C8  UNL     1      25.204 -16.628  41.482  1.00  0.00     0.334 C 
BRANCH  45  46
HETATM   46  N12 UNL     1      25.355 -16.935  40.089  1.00  0.00    -0.071 N 
ATOM     47 3H12 UNL     1      26.269 -17.347  39.900  1.00  0.00     0.274 HD
ATOM     48 2H12 UNL     1      24.763 -17.720  39.819  1.00  0.00     0.274 HD
ATOM     49 1H12 UNL     1      25.186 -16.124  39.494  1.00  0.00     0.274 HD
ENDBRANCH  45  46
ENDBRANCH  40  45
ENDBRANCH   1  39
TORSDOF 12
ENDMDL
MODEL 3
REMARK VINA RESULT: -7.345576727      2.137      3.648
REMARK  12 active torsions:
REMARK  status: ('A' for Active; 'I' for Inactive)
REMARK    1  A    between atoms: C2_7  and  C3_8 
REMARK    2  A    between atoms: C3_8  and  C4_9 
REMARK    3  A    between atoms: C3_8  and  N10_28 
REMARK       I    between atoms: C4_9  and  N3_11 
REMARK    4  A    between atoms: N3_11  and  N4_13 
REMARK    5  A    between atoms: N4_13  and  C5_15 
REMARK    6  A    between atoms: N7_20  and  N8_21 
REMARK    7  A    between atoms: C6_24  and  N9_25 
REMARK    8  A    between atoms: N10_28  and  N11_29 
REMARK       I    between atoms: N10_28  and  C7_32 
REMARK    9  A    between atoms: C7_32  and  C8_34 
REMARK   10  A    between atoms: C8_34  and  N12_35 
REMARK   11  A    between atoms: C10_42  and  N14_43 
REMARK   12  A    between atoms: N15_45  and  N16_47 
ROOT
HETATM    1  C3  UNL     1      26.466 -15.893  45.568  1.00  0.00     0.271 C 
ENDROOT
BRANCH   1   2
HETATM    2  C2  UNL     1      25.962 -16.249  44.223  1.00  0.00     0.117 A 
HETATM    3  N2  UNL     1      25.882 -17.447  43.664  1.00  0.00    -0.328 N 
HETATM    4  C1  UNL     1      25.384 -17.660  42.401  1.00  0.00     0.130 A 
ATOM      5  H2  UNL     1      26.206 -18.253  44.198  1.00  0.00     0.169 HD
HETATM    6  N1  UNL     1      25.336 -18.850  41.921  1.00  0.00    -0.384 N 
HETATM    7  C10 UNL     1      24.938 -16.601  41.655  1.00  0.00     0.108 A 
ATOM      8  H12 UNL     1      25.668 -19.638  42.477  1.00  0.00     0.157 HD
ATOM      9  H11 UNL     1      24.967 -19.008  40.984  1.00  0.00     0.157 HD
HETATM   10  C9  UNL     1      25.013 -15.355  42.215  1.00  0.00     0.124 A 
HETATM   11  N13 UNL     1      25.503 -15.222  43.434  1.00  0.00    -0.351 N 
ATOM     12  H13 UNL     1      25.545 -14.279  43.822  1.00  0.00     0.166 HD
BRANCH   7  13
HETATM   13  N14 UNL     1      24.409 -16.735  40.347  1.00  0.00    -0.282 N 
HETATM   14  N15 UNL     1      23.170 -16.582  40.162  1.00  0.00    -0.249 N 
ATOM     15  H15 UNL     1      22.781 -16.677  39.224  1.00  0.00     0.207 HD
ATOM     16  H14 UNL     1      25.024 -16.954  39.563  1.00  0.00     0.188 HD
BRANCH  14  17
HETATM   17  N16 UNL     1      22.338 -16.286  41.224  1.00  0.00    -0.331 N 
ATOM     18 2H16 UNL     1      21.963 -17.052  41.783  1.00  0.00     0.178 HD
ATOM     19 1H16 UNL     1      22.107 -15.317  41.441  1.00  0.00     0.178 HD
ENDBRANCH  14  17
ENDBRANCH   7  13
ENDBRANCH   1   2
BRANCH   1  20
HETATM   20  C4  UNL     1      25.496 -16.308  46.593  1.00  0.00     0.268 C 
HETATM   21  O1  UNL     1      24.574 -17.169  46.379  1.00  0.00    -0.269 OA
HETATM   22  N3  UNL     1      25.560 -15.749  47.884  1.00  0.00    -0.266 N 
ATOM     23  H3  UNL     1      26.274 -15.059  48.119  1.00  0.00     0.190 HD
BRANCH  22  24
HETATM   24  N4  UNL     1      24.616 -16.163  48.843  1.00  0.00    -0.279 N 
ATOM     25  H4  UNL     1      23.627 -15.959  48.699  1.00  0.00     0.189 HD
BRANCH  24  26
HETATM   26  C5  UNL     1      25.031 -16.865  50.013  1.00  0.00     0.184 A 
HETATM   27  N5  UNL     1      26.136 -17.616  50.097  1.00  0.00    -0.265 N 
HETATM   28  N6  UNL     1      26.205 -18.109  51.320  1.00  0.00    -0.218 N 
ATOM     29  H5  UNL     1      26.807 -17.779  49.347  1.00  0.00     0.190 HD
HETATM   30  N7  UNL     1      25.161 -17.682  52.010  1.00  0.00    -0.168 N 
ATOM     31  H6  UNL     1      26.941 -18.719  51.674  1.00  0.00     0.210 HD
HETATM   32  C6  UNL     1      24.402 -16.904  51.239  1.00  0.00     0.187 A 
BRANCH  30  33
HETATM   33  N8  UNL     1      24.870 -17.982  53.343  1.00  0.00    -0.321 N 
ATOM     34  H82 UNL     1      25.557 -18.331  54.012  1.00  0.00     0.179 HD
ATOM     35  H81 UNL     1      23.962 -17.891  53.799  1.00  0.00     0.179 HD
ENDBRANCH  30  33
BRANCH  32  36
HETATM   36  N9  UNL     1      23.320 -16.318  51.568  1.00  0.00    -0.380 N 
ATOM     37  H92 UNL     1      23.093 -15.911  52.475  1.00  0.00     0.158 HD
ATOM     38  H91 UNL     1      22.502 -16.158  50.979  1.00  0.00     0.158 HD
ENDBRANCH  32  36
ENDBRANCH  24  26
ENDBRANCH  22  24
ENDBRANCH   1  20
BRANCH   1  39
HETATM   39  N10 UNL     1      27.812 -16.285  45.786  1.00  0.00    -0.245 N 
HETATM   40  C7  UNL     1      28.356 -17.314  46.559  1.00  0.00     0.264 C 
HETATM   41  O2  UNL     1      27.686 -18.070  47.283  1.00  0.00    -0.270 OA
BRANCH  39  42
HETATM   42  N11 UNL     1      28.794 -15.489  45.088  1.00  0.00    -0.339 N 
ATOM     43 2H11 UNL     1      28.469 -14.557  44.830  1.00  0.00     0.177 HD
ATOM     44 1H11 UNL     1      29.691 -15.951  44.939  1.00  0.00     0.177 HD
ENDBRANCH  39  42
BRANCH  40  45
HETATM   45  C8  UNL     1      29.837 -17.574  46.557  1.00  0.00     0.334 C 
BRANCH  45  46
HETATM   46  N12 UNL     1      30.158 -18.881  46.062  1.00  0.00    -0.071 N 
ATOM     47 3H12 UNL     1      30.715 -19.404  46.737  1.00  0.00     0.274 HD
ATOM     48 2H12 UNL     1      29.332 -19.478  46.035  1.00  0.00     0.274 HD
ATOM     49 1H12 UNL     1      30.619 -18.846  45.152  1.00  0.00     0.274 HD
ENDBRANCH  45  46
ENDBRANCH  40  45
ENDBRANCH   1  39
TORSDOF 12
ENDMDL
MODEL 4
REMARK VINA RESULT: -7.345162264      4.102      6.072
REMARK  12 active torsions:
REMARK  status: ('A' for Active; 'I' for Inactive)
REMARK    1  A    between atoms: C2_7  and  C3_8 
REMARK    2  A    between atoms: C3_8  and  C4_9 
REMARK    3  A    between atoms: C3_8  and  N10_28 
REMARK       I    between atoms: C4_9  and  N3_11 
REMARK    4  A    between atoms: N3_11  and  N4_13 
REMARK    5  A    between atoms: N4_13  and  C5_15 
REMARK    6  A    between atoms: N7_20  and  N8_21 
REMARK    7  A    between atoms: C6_24  and  N9_25 
REMARK    8  A    between atoms: N10_28  and  N11_29 
REMARK       I    between atoms: N10_28  and  C7_32 
REMARK    9  A    between atoms: C7_32  and  C8_34 
REMARK   10  A    between atoms: C8_34  and  N12_35 
REMARK   11  A    between atoms: C10_42  and  N14_43 
REMARK   12  A    between atoms: N15_45  and  N16_47 
ROOT
HETATM    1  C3  UNL     1      28.054 -15.332  43.787  1.00  0.00     0.271 C 
ENDROOT
BRANCH   1   2
HETATM    2  C2  UNL     1      26.752 -15.516  43.106  1.00  0.00     0.117 A 
HETATM    3  N2  UNL     1      26.338 -16.547  42.385  1.00  0.00    -0.328 N 
HETATM    4  C1  UNL     1      25.094 -16.611  41.804  1.00  0.00     0.130 A 
ATOM      5  H2  UNL     1      26.975 -17.332  42.254  1.00  0.00     0.169 HD
HETATM    6  N1  UNL     1      24.760 -17.642  41.116  1.00  0.00    -0.384 N 
HETATM    7  C10 UNL     1      24.213 -15.575  41.960  1.00  0.00     0.108 A 
ATOM      8  H12 UNL     1      25.416 -18.414  41.000  1.00  0.00     0.157 HD
ATOM      9  H11 UNL     1      23.837 -17.691  40.684  1.00  0.00     0.157 HD
HETATM   10  C9  UNL     1      24.623 -14.500  42.702  1.00  0.00     0.124 A 
HETATM   11  N13 UNL     1      25.832 -14.504  43.232  1.00  0.00    -0.351 N 
ATOM     12  H13 UNL     1      26.105 -13.688  43.780  1.00  0.00     0.166 HD
BRANCH   7  13
HETATM   13  N14 UNL     1      22.913 -15.564  41.396  1.00  0.00    -0.282 N 
HETATM   14  N15 UNL     1      21.924 -15.887  42.113  1.00  0.00    -0.249 N 
ATOM     15  H15 UNL     1      20.985 -15.882  41.715  1.00  0.00     0.207 HD
ATOM     16  H14 UNL     1      22.777 -15.300  40.421  1.00  0.00     0.188 HD
BRANCH  14  17
HETATM   17  N16 UNL     1      22.110 -16.245  43.434  1.00  0.00    -0.331 N 
ATOM     18 2H16 UNL     1      22.806 -15.746  43.986  1.00  0.00     0.178 HD
ATOM     19 1H16 UNL     1      21.557 -16.998  43.844  1.00  0.00     0.178 HD
ENDBRANCH  14  17
ENDBRANCH   7  13
ENDBRANCH   1   2
BRANCH   1  20
HETATM   20  C4  UNL     1      28.420 -16.560  44.509  1.00  0.00     0.268 C 
HETATM   21  O1  UNL     1      27.616 -17.540  44.680  1.00  0.00    -0.269 OA
HETATM   22  N3  UNL     1      29.713 -16.692  45.051  1.00  0.00    -0.266 N 
ATOM     23  H3  UNL     1      30.402 -15.947  44.947  1.00  0.00     0.190 HD
BRANCH  22  24
HETATM   24  N4  UNL     1      30.034 -17.877  45.741  1.00  0.00    -0.279 N 
ATOM     25  H4  UNL     1      30.116 -18.754  45.227  1.00  0.00     0.189 HD
BRANCH  24  26
HETATM   26  C5  UNL     1      30.246 -17.861  47.151  1.00  0.00     0.184 A 
HETATM   27  N5  UNL     1      29.290 -18.073  48.066  1.00  0.00    -0.265 N 
HETATM   28  N6  UNL     1      29.842 -17.986  49.262  1.00  0.00    -0.218 N 
ATOM     29  H5  UNL     1      28.308 -18.267  47.871  1.00  0.00     0.190 HD
HETATM   30  N7  UNL     1      31.130 -17.723  49.118  1.00  0.00    -0.168 N 
ATOM     31  H6  UNL     1      29.355 -18.103  50.150  1.00  0.00     0.210 HD
HETATM   32  C6  UNL     1      31.428 -17.636  47.823  1.00  0.00     0.187 A 
BRANCH  30  33
HETATM   33  N8  UNL     1      32.061 -17.555  50.147  1.00  0.00    -0.321 N 
ATOM     34  H82 UNL     1      31.809 -17.415  51.126  1.00  0.00     0.179 HD
ATOM     35  H81 UNL     1      33.076 -17.552  50.049  1.00  0.00     0.179 HD
ENDBRANCH  30  33
BRANCH  32  36
HETATM   36  N9  UNL     1      32.569 -17.396  47.312  1.00  0.00    -0.380 N 
ATOM     37  H92 UNL     1      32.813 -16.630  46.684  1.00  0.00     0.158 HD
ATOM     38  H91 UNL     1      33.429 -17.927  47.448  1.00  0.00     0.158 HD
ENDBRANCH  32  36
ENDBRANCH  24  26
ENDBRANCH  22  24
ENDBRANCH   1  20
BRANCH   1  39
HETATM   39  N10 UNL     1      29.054 -14.780  42.945  1.00  0.00    -0.245 N 
HETATM   40  C7  UNL     1      29.992 -13.769  43.173  1.00  0.00     0.264 C 
HETATM   41  O2  UNL     1      30.058 -13.103  44.220  1.00  0.00    -0.270 OA
BRANCH  39  42
HETATM   42  N11 UNL     1      29.121 -15.361  41.625  1.00  0.00    -0.339 N 
ATOM     43 2H11 UNL     1      28.962 -16.368  41.603  1.00  0.00     0.177 HD
ATOM     44 1H11 UNL     1      29.317 -14.697  40.875  1.00  0.00     0.177 HD
ENDBRANCH  39  42
BRANCH  40  45
HETATM   45  C8  UNL     1      31.012 -13.420  42.126  1.00  0.00     0.334 C 
BRANCH  45  46
HETATM   46  N12 UNL     1      31.160 -12.002  41.963  1.00  0.00    -0.071 N 
ATOM     47 3H12 UNL     1      31.476 -11.563  42.827  1.00  0.00     0.274 HD
ATOM     48 2H12 UNL     1      31.958 -11.781  41.367  1.00  0.00     0.274 HD
ATOM     49 1H12 UNL     1      30.307 -11.562  41.617  1.00  0.00     0.274 HD
ENDBRANCH  45  46
ENDBRANCH  40  45
ENDBRANCH   1  39
TORSDOF 12
ENDMDL
MODEL 5
REMARK VINA RESULT: -7.329896216      6.164      8.981
REMARK  12 active torsions:
REMARK  status: ('A' for Active; 'I' for Inactive)
REMARK    1  A    between atoms: C2_7  and  C3_8 
REMARK    2  A    between atoms: C3_8  and  C4_9 
REMARK    3  A    between atoms: C3_8  and  N10_28 
REMARK       I    between atoms: C4_9  and  N3_11 
REMARK    4  A    between atoms: N3_11  and  N4_13 
REMARK    5  A    between atoms: N4_13  and  C5_15 
REMARK    6  A    between atoms: N7_20  and  N8_21 
REMARK    7  A    between atoms: C6_24  and  N9_25 
REMARK    8  A    between atoms: N10_28  and  N11_29 
REMARK       I    between atoms: N10_28  and  C7_32 
REMARK    9  A    between atoms: C7_32  and  C8_34 
REMARK   10  A    between atoms: C8_34  and  N12_35 
REMARK   11  A    between atoms: C10_42  and  N14_43 
REMARK   12  A    between atoms: N15_45  and  N16_47 
ROOT
HETATM    1  C3  UNL     1      29.589 -15.045  42.931  1.00  0.00     0.271 C 
ENDROOT
BRANCH   1   2
HETATM    2  C2  UNL     1      28.183 -15.394  42.626  1.00  0.00     0.117 A 
HETATM    3  N2  UNL     1      27.722 -16.419  41.926  1.00  0.00    -0.328 N 
HETATM    4  C1  UNL     1      26.383 -16.648  41.714  1.00  0.00     0.130 A 
ATOM      5  H2  UNL     1      28.394 -17.071  41.523  1.00  0.00     0.169 HD
HETATM    6  N1  UNL     1      26.007 -17.663  41.023  1.00  0.00    -0.384 N 
HETATM    7  C10 UNL     1      25.452 -15.794  42.242  1.00  0.00     0.108 A 
ATOM      8  H12 UNL     1      26.700 -18.300  40.631  1.00  0.00     0.157 HD
ATOM      9  H11 UNL     1      25.014 -17.834  40.866  1.00  0.00     0.157 HD
HETATM   10  C9  UNL     1      25.909 -14.728  42.969  1.00  0.00     0.124 A 
HETATM   11  N13 UNL     1      27.209 -14.567  43.133  1.00  0.00    -0.351 N 
ATOM     12  H13 UNL     1      27.516 -13.763  43.680  1.00  0.00     0.166 HD
BRANCH   7  13
HETATM   13  N14 UNL     1      24.055 -15.961  42.072  1.00  0.00    -0.282 N 
HETATM   14  N15 UNL     1      23.394 -16.579  42.953  1.00  0.00    -0.249 N 
ATOM     15  H15 UNL     1      22.388 -16.703  42.838  1.00  0.00     0.207 HD
ATOM     16  H14 UNL     1      23.588 -15.585  41.247  1.00  0.00     0.188 HD
BRANCH  14  17
HETATM   17  N16 UNL     1      24.027 -17.088  44.070  1.00  0.00    -0.331 N 
ATOM     18 2H16 UNL     1      24.683 -16.494  44.577  1.00  0.00     0.178 HD
ATOM     19 1H16 UNL     1      23.838 -18.042  44.378  1.00  0.00     0.178 HD
ENDBRANCH  14  17
ENDBRANCH   7  13
ENDBRANCH   1   2
BRANCH   1  20
HETATM   20  C4  UNL     1      29.954 -13.794  42.249  1.00  0.00     0.268 C 
HETATM   21  O1  UNL     1      29.116 -12.859  42.002  1.00  0.00    -0.269 OA
HETATM   22  N3  UNL     1      31.284 -13.586  41.835  1.00  0.00    -0.266 N 
ATOM     23  H3  UNL     1      32.000 -14.293  42.005  1.00  0.00     0.190 HD
BRANCH  22  24
HETATM   24  N4  UNL     1      31.603 -12.381  41.181  1.00  0.00    -0.279 N 
ATOM     25  H4  UNL     1      31.149 -12.150  40.298  1.00  0.00     0.189 HD
BRANCH  24  26
HETATM   26  C5  UNL     1      32.555 -11.481  41.743  1.00  0.00     0.184 A 
HETATM   27  N5  UNL     1      33.853 -11.444  41.415  1.00  0.00    -0.265 N 
HETATM   28  N6  UNL     1      34.430 -10.493  42.126  1.00  0.00    -0.218 N 
ATOM     29  H5  UNL     1      34.315 -12.046  40.733  1.00  0.00     0.190 HD
HETATM   30  N7  UNL     1      33.518  -9.929  42.899  1.00  0.00    -0.168 N 
ATOM     31  H6  UNL     1      35.416 -10.236  42.085  1.00  0.00     0.210 HD
HETATM   32  C6  UNL     1      32.336 -10.510  42.696  1.00  0.00     0.187 A 
BRANCH  30  33
HETATM   33  N8  UNL     1      33.729  -8.883  43.801  1.00  0.00    -0.321 N 
ATOM     34  H82 UNL     1      33.813  -7.903  43.529  1.00  0.00     0.179 HD
ATOM     35  H81 UNL     1      33.823  -8.966  44.813  1.00  0.00     0.179 HD
ENDBRANCH  30  33
BRANCH  32  36
HETATM   36  N9  UNL     1      31.233 -10.225  43.265  1.00  0.00    -0.380 N 
ATOM     37  H92 UNL     1      30.909 -10.551  44.176  1.00  0.00     0.158 HD
ATOM     38  H91 UNL     1      30.492  -9.622  42.906  1.00  0.00     0.158 HD
ENDBRANCH  32  36
ENDBRANCH  24  26
ENDBRANCH  22  24
ENDBRANCH   1  20
BRANCH   1  39
HETATM   39  N10 UNL     1      29.898 -15.116  44.315  1.00  0.00    -0.245 N 
HETATM   40  C7  UNL     1      30.288 -14.127  45.221  1.00  0.00     0.264 C 
HETATM   41  O2  UNL     1      30.501 -12.943  44.911  1.00  0.00    -0.270 OA
BRANCH  39  42
HETATM   42  N11 UNL     1      29.788 -16.436  44.891  1.00  0.00    -0.339 N 
ATOM     43 2H11 UNL     1      29.128 -17.047  44.411  1.00  0.00     0.177 HD
ATOM     44 1H11 UNL     1      30.381 -16.597  45.705  1.00  0.00     0.177 HD
ENDBRANCH  39  42
BRANCH  40  45
HETATM   45  C8  UNL     1      30.481 -14.453  46.676  1.00  0.00     0.334 C 
BRANCH  45  46
HETATM   46  N12 UNL     1      29.420 -13.939  47.493  1.00  0.00    -0.071 N 
ATOM     47 3H12 UNL     1      29.656 -13.021  47.868  1.00  0.00     0.274 HD
ATOM     48 2H12 UNL     1      28.612 -13.681  46.927  1.00  0.00     0.274 HD
ATOM     49 1H12 UNL     1      29.158 -14.585  48.238  1.00  0.00     0.274 HD
ENDBRANCH  45  46
ENDBRANCH  40  45
ENDBRANCH   1  39
TORSDOF 12
ENDMDL
