MODEL 1
REMARK VINA RESULT: -5.515817553      0.000      0.000
REMARK  2 active torsions:
REMARK  status: ('A' for Active; 'I' for Inactive)
REMARK    1  A    between atoms: C3_3  and  O1_4 
REMARK    2  A    between atoms: O1_4  and  C4_5 
ROOT
HETATM    1  O1  UNL     1     -22.707   7.085 -13.421  1.00  0.00    -0.379 OA
ENDROOT
BRANCH   1   2
HETATM    2  C3  UNL     1     -23.482   8.232 -13.508  1.00  0.00     0.125 C 
HETATM    3  C2  UNL     1     -22.650   9.484 -13.280  1.00  0.00     0.051 C 
HETATM    4  C1  UNL     1     -23.705  10.599 -13.205  1.00  0.00     0.116 C 
HETATM    5  N2  UNL     1     -24.169  10.794 -14.533  1.00  0.00    -0.421 N 
HETATM    6  C9  UNL     1     -24.666   9.659 -15.210  1.00  0.00     0.116 C 
ATOM      7  H2  UNL     1     -24.144  11.711 -14.978  1.00  0.00     0.153 HD
HETATM    8  C8  UNL     1     -24.146   8.338 -14.827  1.00  0.00     0.051 C 
ENDBRANCH   1   2
BRANCH   1   9
HETATM    9  C4  UNL     1     -23.527   5.957 -13.370  1.00  0.00     0.149 C 
HETATM   10  C5  UNL     1     -24.278   5.901 -12.049  1.00  0.00     0.061 C 
HETATM   11  C6  UNL     1     -24.256   4.428 -11.735  1.00  0.00     0.235 C 
HETATM   12  N1  UNL     1     -22.873   4.080 -12.069  1.00  0.00    -0.073 N 
HETATM   13  C7  UNL     1     -22.771   4.670 -13.410  1.00  0.00     0.264 C 
ATOM     14  H12 UNL     1     -22.166   4.380 -11.398  1.00  0.00     0.277 HD
ATOM     15  H11 UNL     1     -22.637   3.090 -12.002  1.00  0.00     0.277 HD
ENDBRANCH   1   9
TORSDOF 2
ENDMDL
MODEL 2
REMARK VINA RESULT: -5.467958254      0.948      1.367
REMARK  2 active torsions:
REMARK  status: ('A' for Active; 'I' for Inactive)
REMARK    1  A    between atoms: C3_3  and  O1_4 
REMARK    2  A    between atoms: O1_4  and  C4_5 
ROOT
HETATM    1  O1  UNL     1     -23.833   6.984 -14.253  1.00  0.00    -0.379 OA
ENDROOT
BRANCH   1   2
HETATM    2  C3  UNL     1     -24.242   8.287 -14.009  1.00  0.00     0.125 C 
HETATM    3  C2  UNL     1     -23.057   9.201 -13.737  1.00  0.00     0.051 C 
HETATM    4  C1  UNL     1     -23.719  10.514 -13.290  1.00  0.00     0.116 C 
HETATM    5  N2  UNL     1     -24.275  11.095 -14.462  1.00  0.00    -0.421 N 
HETATM    6  C9  UNL     1     -25.166  10.296 -15.211  1.00  0.00     0.116 C 
ATOM      7  H2  UNL     1     -24.040  12.044 -14.749  1.00  0.00     0.153 HD
HETATM    8  C8  UNL     1     -25.011   8.835 -15.148  1.00  0.00     0.051 C 
ENDBRANCH   1   2
BRANCH   1   9
HETATM    9  C4  UNL     1     -23.414   6.385 -13.064  1.00  0.00     0.149 C 
HETATM   10  C5  UNL     1     -23.068   4.923 -13.294  1.00  0.00     0.061 C 
HETATM   11  C6  UNL     1     -23.593   4.273 -12.042  1.00  0.00     0.235 C 
HETATM   12  N1  UNL     1     -24.887   4.940 -11.887  1.00  0.00    -0.073 N 
HETATM   13  C7  UNL     1     -24.474   6.343 -12.014  1.00  0.00     0.264 C 
ATOM     14  H12 UNL     1     -25.622   4.636 -12.526  1.00  0.00     0.277 HD
ATOM     15  H11 UNL     1     -25.408   4.707 -11.043  1.00  0.00     0.277 HD
ENDBRANCH   1   9
TORSDOF 2
ENDMDL
MODEL 3
REMARK VINA RESULT: -5.364394853      0.798      5.077
REMARK  2 active torsions:
REMARK  status: ('A' for Active; 'I' for Inactive)
REMARK    1  A    between atoms: C3_3  and  O1_4 
REMARK    2  A    between atoms: O1_4  and  C4_5 
ROOT
HETATM    1  O1  UNL     1     -23.164   8.076 -12.961  1.00  0.00    -0.379 OA
ENDROOT
BRANCH   1   2
HETATM    2  C3  UNL     1     -23.347   6.708 -13.100  1.00  0.00     0.125 C 
HETATM    3  C2  UNL     1     -22.034   5.954 -12.965  1.00  0.00     0.051 C 
HETATM    4  C1  UNL     1     -22.410   4.517 -13.355  1.00  0.00     0.116 C 
HETATM    5  N2  UNL     1     -23.160   3.996 -12.266  1.00  0.00    -0.421 N 
HETATM    6  C9  UNL     1     -24.292   4.733 -11.858  1.00  0.00     0.116 C 
ATOM      7  H2  UNL     1     -22.892   3.130 -11.800  1.00  0.00     0.153 HD
HETATM    8  C8  UNL     1     -24.299   6.185 -12.094  1.00  0.00     0.051 C 
ENDBRANCH   1   2
BRANCH   1   9
HETATM    9  C4  UNL     1     -24.322   8.754 -13.346  1.00  0.00     0.149 C 
HETATM   10  C5  UNL     1     -24.551   8.618 -14.843  1.00  0.00     0.061 C 
HETATM   11  C6  UNL     1     -25.060   9.986 -15.211  1.00  0.00     0.235 C 
HETATM   12  N1  UNL     1     -24.151  10.849 -14.453  1.00  0.00    -0.073 N 
HETATM   13  C7  UNL     1     -24.248  10.229 -13.126  1.00  0.00     0.264 C 
ATOM     14  H12 UNL     1     -23.208  10.939 -14.832  1.00  0.00     0.277 HD
ATOM     15  H11 UNL     1     -24.353  11.847 -14.492  1.00  0.00     0.277 HD
ENDBRANCH   1   9
TORSDOF 2
ENDMDL
MODEL 4
REMARK VINA RESULT: -5.295468433      1.017      1.906
REMARK  2 active torsions:
REMARK  status: ('A' for Active; 'I' for Inactive)
REMARK    1  A    between atoms: C3_3  and  O1_4 
REMARK    2  A    between atoms: O1_4  and  C4_5 
ROOT
HETATM    1  O1  UNL     1     -23.850   6.659 -14.314  1.00  0.00    -0.379 OA
ENDROOT
BRANCH   1   2
HETATM    2  C3  UNL     1     -23.609   8.021 -14.419  1.00  0.00     0.125 C 
HETATM    3  C2  UNL     1     -24.904   8.817 -14.433  1.00  0.00     0.051 C 
HETATM    4  C1  UNL     1     -24.438  10.243 -14.763  1.00  0.00     0.116 C 
HETATM    5  N2  UNL     1     -23.805  10.733 -13.588  1.00  0.00    -0.421 N 
HETATM    6  C9  UNL     1     -22.753   9.957 -13.057  1.00  0.00     0.116 C 
ATOM      7  H2  UNL     1     -24.099  11.606 -13.149  1.00  0.00     0.153 HD
HETATM    8  C8  UNL     1     -22.766   8.507 -13.303  1.00  0.00     0.051 C 
ENDBRANCH   1   2
BRANCH   1   9
HETATM    9  C4  UNL     1     -23.505   6.209 -13.039  1.00  0.00     0.149 C 
HETATM   10  C5  UNL     1     -22.965   4.789 -13.099  1.00  0.00     0.061 C 
HETATM   11  C6  UNL     1     -23.552   4.174 -11.857  1.00  0.00     0.235 C 
HETATM   12  N1  UNL     1     -24.925   4.681 -11.902  1.00  0.00    -0.073 N 
HETATM   13  C7  UNL     1     -24.669   6.112 -12.108  1.00  0.00     0.264 C 
ATOM     14  H12 UNL     1     -25.539   4.238 -12.586  1.00  0.00     0.277 HD
ATOM     15  H11 UNL     1     -25.510   4.447 -11.101  1.00  0.00     0.277 HD
ENDBRANCH   1   9
TORSDOF 2
ENDMDL
MODEL 5
REMARK VINA RESULT: -5.159211282      8.249     10.411
REMARK  2 active torsions:
REMARK  status: ('A' for Active; 'I' for Inactive)
REMARK    1  A    between atoms: C3_3  and  O1_4 
REMARK    2  A    between atoms: O1_4  and  C4_5 
ROOT
HETATM    1  O1  UNL     1     -26.883  14.324  -6.960  1.00  0.00    -0.379 OA
ENDROOT
BRANCH   1   2
HETATM    2  C3  UNL     1     -26.481  13.003  -6.831  1.00  0.00     0.125 C 
HETATM    3  C2  UNL     1     -25.009  12.833  -7.168  1.00  0.00     0.051 C 
HETATM    4  C1  UNL     1     -24.820  11.308  -7.173  1.00  0.00     0.116 C 
HETATM    5  N2  UNL     1     -24.858  10.902  -5.812  1.00  0.00    -0.421 N 
HETATM    6  C9  UNL     1     -25.993  11.279  -5.062  1.00  0.00     0.116 C 
ATOM      7  H2  UNL     1     -24.100  10.362  -5.395  1.00  0.00     0.153 HD
HETATM    8  C8  UNL     1     -26.714  12.498  -5.459  1.00  0.00     0.051 C 
ENDBRANCH   1   2
BRANCH   1   9
HETATM    9  C4  UNL     1     -26.466  14.831  -8.192  1.00  0.00     0.149 C 
HETATM   10  C5  UNL     1     -26.196  16.324  -8.092  1.00  0.00     0.061 C 
HETATM   11  C6  UNL     1     -26.722  16.829  -9.409  1.00  0.00     0.235 C 
HETATM   12  N1  UNL     1     -27.979  16.087  -9.525  1.00  0.00    -0.073 N 
HETATM   13  C7  UNL     1     -27.502  14.723  -9.261  1.00  0.00     0.264 C 
ATOM     14  H12 UNL     1     -28.742  16.412  -8.931  1.00  0.00     0.277 HD
ATOM     15  H11 UNL     1     -28.491  16.216 -10.397  1.00  0.00     0.277 HD
ENDBRANCH   1   9
TORSDOF 2
ENDMDL
