MODEL 1
REMARK VINA RESULT: -4.959879175      0.000      0.000
REMARK  3 active torsions:
REMARK  status: ('A' for Active; 'I' for Inactive)
REMARK    1  A    between atoms: O1_2  and  C2_3 
REMARK    2  A    between atoms: C2_3  and  C4_5 
REMARK    3  A    between atoms: C8_11  and  N2_12 
ROOT
HETATM    1  C4  UNL     1     -23.145   7.090 -13.204  1.00  0.00     0.135 C 
HETATM    2  N1  UNL     1     -21.921   6.368 -13.082  1.00  0.00    -0.413 N 
ATOM      3  H1  UNL     1     -21.012   6.828 -13.141  1.00  0.00     0.153 HD
HETATM    4  C5  UNL     1     -22.046   4.963 -12.872  1.00  0.00     0.114 C 
HETATM    5  C6  UNL     1     -23.440   4.447 -12.858  1.00  0.00     0.021 C 
HETATM    6  C7  UNL     1     -24.352   5.262 -11.980  1.00  0.00     0.036 C 
HETATM    7  C8  UNL     1     -24.182   6.746 -12.186  1.00  0.00     0.208 C 
ENDROOT
BRANCH   1   8
HETATM    8  C2  UNL     1     -22.800   8.570 -13.110  1.00  0.00     0.141 C 
HETATM    9  C3  UNL     1     -23.124   9.191 -14.464  1.00  0.00     0.041 C 
BRANCH   8  10
HETATM   10  O1  UNL     1     -23.442   9.210 -12.080  1.00  0.00    -0.389 OA
HETATM   11  C1  UNL     1     -23.743  10.514 -12.428  1.00  0.00     0.202 C 
ENDBRANCH   8  10
ENDBRANCH   1   8
BRANCH   7  12
HETATM   12  N2  UNL     1     -25.475   7.272 -12.582  1.00  0.00    -0.073 N 
ATOM     13  H23 UNL     1     -25.391   8.175 -13.049  1.00  0.00     0.274 HD
ATOM     14  H22 UNL     1     -25.882   6.741 -13.351  1.00  0.00     0.274 HD
ATOM     15  H21 UNL     1     -26.103   7.319 -11.778  1.00  0.00     0.274 HD
ENDBRANCH   7  12
TORSDOF 3
ENDMDL
MODEL 2
REMARK VINA RESULT: -4.849168518      1.703      3.783
REMARK  3 active torsions:
REMARK  status: ('A' for Active; 'I' for Inactive)
REMARK    1  A    between atoms: O1_2  and  C2_3 
REMARK    2  A    between atoms: C2_3  and  C4_5 
REMARK    3  A    between atoms: C8_11  and  N2_12 
ROOT
HETATM    1  C4  UNL     1     -23.379   7.303 -13.034  1.00  0.00     0.135 C 
HETATM    2  N1  UNL     1     -22.161   7.941 -13.413  1.00  0.00    -0.413 N 
ATOM      3  H1  UNL     1     -21.358   7.414 -13.754  1.00  0.00     0.153 HD
HETATM    4  C5  UNL     1     -22.137   9.361 -13.284  1.00  0.00     0.114 C 
HETATM    5  C6  UNL     1     -23.376   9.967 -12.727  1.00  0.00     0.021 C 
HETATM    6  C7  UNL     1     -24.624   9.452 -13.391  1.00  0.00     0.036 C 
HETATM    7  C8  UNL     1     -24.619   7.953 -13.554  1.00  0.00     0.208 C 
ENDROOT
BRANCH   1   8
HETATM    8  C2  UNL     1     -23.302   5.865 -13.531  1.00  0.00     0.141 C 
HETATM    9  C3  UNL     1     -21.929   5.330 -13.137  1.00  0.00     0.041 C 
BRANCH   8  10
HETATM   10  O1  UNL     1     -24.320   5.076 -13.060  1.00  0.00    -0.389 OA
HETATM   11  C1  UNL     1     -23.970   4.495 -11.855  1.00  0.00     0.202 C 
ENDBRANCH   8  10
ENDBRANCH   1   8
BRANCH   7  12
HETATM   12  N2  UNL     1     -25.788   7.444 -12.861  1.00  0.00    -0.073 N 
ATOM     13  H23 UNL     1     -26.559   7.259 -13.503  1.00  0.00     0.274 HD
ATOM     14  H22 UNL     1     -25.643   6.494 -12.519  1.00  0.00     0.274 HD
ATOM     15  H21 UNL     1     -26.063   8.080 -12.112  1.00  0.00     0.274 HD
ENDBRANCH   7  12
TORSDOF 3
ENDMDL
MODEL 3
REMARK VINA RESULT: -4.834009434      1.419      2.351
REMARK  3 active torsions:
REMARK  status: ('A' for Active; 'I' for Inactive)
REMARK    1  A    between atoms: O1_2  and  C2_3 
REMARK    2  A    between atoms: C2_3  and  C4_5 
REMARK    3  A    between atoms: C8_11  and  N2_12 
ROOT
HETATM    1  C4  UNL     1     -23.792   7.114 -11.897  1.00  0.00     0.135 C 
HETATM    2  N1  UNL     1     -24.913   6.270 -12.153  1.00  0.00    -0.413 N 
ATOM      3  H1  UNL     1     -25.866   6.632 -12.191  1.00  0.00     0.153 HD
HETATM    4  C5  UNL     1     -24.619   4.889 -12.354  1.00  0.00     0.114 C 
HETATM    5  C6  UNL     1     -23.184   4.521 -12.220  1.00  0.00     0.021 C 
HETATM    6  C7  UNL     1     -22.274   5.440 -12.990  1.00  0.00     0.036 C 
HETATM    7  C8  UNL     1     -22.621   6.895 -12.798  1.00  0.00     0.208 C 
ENDROOT
BRANCH   1   8
HETATM    8  C2  UNL     1     -24.279   8.551 -12.022  1.00  0.00     0.141 C 
HETATM    9  C3  UNL     1     -25.179   8.612 -13.252  1.00  0.00     0.041 C 
BRANCH   8  10
HETATM   10  O1  UNL     1     -24.913   9.007 -10.894  1.00  0.00    -0.389 OA
HETATM   11  C1  UNL     1     -24.865  10.387 -10.831  1.00  0.00     0.202 C 
ENDBRANCH   8  10
ENDBRANCH   1   8
BRANCH   7  12
HETATM   12  N2  UNL     1     -21.440   7.548 -12.263  1.00  0.00    -0.073 N 
ATOM     13  H23 UNL     1     -21.443   7.559 -11.243  1.00  0.00     0.274 HD
ATOM     14  H22 UNL     1     -20.599   6.988 -12.406  1.00  0.00     0.274 HD
ATOM     15  H21 UNL     1     -21.343   8.486 -12.653  1.00  0.00     0.274 HD
ENDBRANCH   7  12
TORSDOF 3
ENDMDL
MODEL 4
REMARK VINA RESULT: -4.734568380      1.514      2.466
REMARK  3 active torsions:
REMARK  status: ('A' for Active; 'I' for Inactive)
REMARK    1  A    between atoms: O1_2  and  C2_3 
REMARK    2  A    between atoms: C2_3  and  C4_5 
REMARK    3  A    between atoms: C8_11  and  N2_12 
ROOT
HETATM    1  C4  UNL     1     -24.237   6.986 -12.391  1.00  0.00     0.135 C 
HETATM    2  N1  UNL     1     -25.112   5.941 -11.971  1.00  0.00    -0.413 N 
ATOM      3  H1  UNL     1     -26.084   6.118 -11.718  1.00  0.00     0.153 HD
HETATM    4  C5  UNL     1     -24.543   4.634 -11.926  1.00  0.00     0.114 C 
HETATM    5  C6  UNL     1     -23.101   4.558 -12.281  1.00  0.00     0.021 C 
HETATM    6  C7  UNL     1     -22.775   5.305 -13.546  1.00  0.00     0.036 C 
HETATM    7  C8  UNL     1     -23.413   6.670 -13.596  1.00  0.00     0.208 C 
ENDROOT
BRANCH   1   8
HETATM    8  C2  UNL     1     -25.102   8.209 -12.662  1.00  0.00     0.141 C 
HETATM    9  C3  UNL     1     -24.599   9.323 -11.749  1.00  0.00     0.041 C 
BRANCH   8  10
HETATM   10  O1  UNL     1     -25.107   8.585 -13.982  1.00  0.00    -0.389 OA
HETATM   11  C1  UNL     1     -25.093   9.962 -14.097  1.00  0.00     0.202 C 
ENDBRANCH   8  10
ENDBRANCH   1   8
BRANCH   7  12
HETATM   12  N2  UNL     1     -22.341   7.637 -13.746  1.00  0.00    -0.073 N 
ATOM     13  H23 UNL     1     -22.612   8.560 -13.405  1.00  0.00     0.274 HD
ATOM     14  H22 UNL     1     -21.573   7.456 -13.099  1.00  0.00     0.274 HD
ATOM     15  H21 UNL     1     -22.022   7.669 -14.714  1.00  0.00     0.274 HD
ENDBRANCH   7  12
TORSDOF 3
ENDMDL
MODEL 5
REMARK VINA RESULT: -4.653888804      8.177      9.219
REMARK  3 active torsions:
REMARK  status: ('A' for Active; 'I' for Inactive)
REMARK    1  A    between atoms: O1_2  and  C2_3 
REMARK    2  A    between atoms: C2_3  and  C4_5 
REMARK    3  A    between atoms: C8_11  and  N2_12 
ROOT
HETATM    1  C4  UNL     1     -27.160  12.977  -7.701  1.00  0.00     0.135 C 
HETATM    2  N1  UNL     1     -25.766  12.702  -7.578  1.00  0.00    -0.413 N 
ATOM      3  H1  UNL     1     -25.119  12.829  -8.356  1.00  0.00     0.153 HD
HETATM    4  C5  UNL     1     -25.334  12.240  -6.301  1.00  0.00     0.114 C 
HETATM    5  C6  UNL     1     -26.412  12.066  -5.291  1.00  0.00     0.021 C 
HETATM    6  C7  UNL     1     -27.330  13.256  -5.212  1.00  0.00     0.036 C 
HETATM    7  C8  UNL     1     -27.750  13.757  -6.571  1.00  0.00     0.208 C 
ENDROOT
BRANCH   1   8
HETATM    8  C2  UNL     1     -27.352  13.735  -9.008  1.00  0.00     0.141 C 
HETATM    9  C3  UNL     1     -27.941  12.750 -10.012  1.00  0.00     0.041 C 
BRANCH   8  10
HETATM   10  O1  UNL     1     -28.125  14.860  -8.871  1.00  0.00    -0.389 OA
HETATM   11  C1  UNL     1     -28.193  15.553 -10.065  1.00  0.00     0.202 C 
ENDBRANCH   8  10
ENDBRANCH   1   8
BRANCH   7  12
HETATM   12  N2  UNL     1     -29.199  13.701  -6.618  1.00  0.00    -0.073 N 
ATOM     13  H23 UNL     1     -29.532  13.158  -7.414  1.00  0.00     0.274 HD
ATOM     14  H22 UNL     1     -29.581  13.124  -5.869  1.00  0.00     0.274 HD
ATOM     15  H21 UNL     1     -29.593  14.643  -6.610  1.00  0.00     0.274 HD
ENDBRANCH   7  12
TORSDOF 3
ENDMDL
