MODEL 1
REMARK VINA RESULT: -5.221442600      0.000      0.000
REMARK  4 active torsions:
REMARK  status: ('A' for Active; 'I' for Inactive)
REMARK    1  A    between atoms: O1_2  and  C2_3 
REMARK    2  A    between atoms: C5_6  and  C6_7 
REMARK    3  A    between atoms: C6_7  and  N1_8 
REMARK    4  A    between atoms: C9_14  and  N2_15 
ROOT
HETATM    1  C2  UNL     1     -24.263   7.880 -11.611  1.00  0.00     0.151 C 
HETATM    2  C3  UNL     1     -24.673   6.470 -11.466  1.00  0.00     0.034 C 
HETATM    3  C4  UNL     1     -24.352   5.568 -12.610  1.00  0.00     0.009 C 
HETATM    4  C5  UNL     1     -22.880   5.384 -12.799  1.00  0.00     0.011 C 
HETATM    5  C7  UNL     1     -22.136   6.671 -12.996  1.00  0.00     0.008 C 
HETATM    6  C8  UNL     1     -23.014   7.602 -13.788  1.00  0.00     0.036 C 
HETATM    7  C9  UNL     1     -23.987   8.372 -12.988  1.00  0.00     0.212 C 
ENDROOT
BRANCH   4   8
HETATM    8  C6  UNL     1     -22.603   4.384 -13.896  1.00  0.00     0.234 C 
BRANCH   8   9
HETATM    9  N1  UNL     1     -21.187   4.080 -13.974  1.00  0.00    -0.079 N 
ATOM     10  H13 UNL     1     -20.655   4.576 -13.259  1.00  0.00     0.274 HD
ATOM     11  H12 UNL     1     -20.991   3.124 -13.678  1.00  0.00     0.274 HD
ATOM     12  H11 UNL     1     -20.825   4.266 -14.909  1.00  0.00     0.274 HD
ENDBRANCH   8   9
ENDBRANCH   4   8
BRANCH   1  13
HETATM   13  O1  UNL     1     -25.284   8.675 -11.084  1.00  0.00    -0.389 OA
HETATM   14  C1  UNL     1     -24.846   9.956 -10.780  1.00  0.00     0.202 C 
ENDBRANCH   1  13
BRANCH   7  15
HETATM   15  N2  UNL     1     -25.231   8.469 -13.771  1.00  0.00    -0.073 N 
ATOM     16  H23 UNL     1     -26.032   8.688 -13.179  1.00  0.00     0.274 HD
ATOM     17  H22 UNL     1     -25.242   9.302 -14.360  1.00  0.00     0.274 HD
ATOM     18  H21 UNL     1     -25.385   7.621 -14.315  1.00  0.00     0.274 HD
ENDBRANCH   7  15
TORSDOF 4
ENDMDL
MODEL 2
REMARK VINA RESULT: -5.189855416      2.332      4.592
REMARK  4 active torsions:
REMARK  status: ('A' for Active; 'I' for Inactive)
REMARK    1  A    between atoms: O1_2  and  C2_3 
REMARK    2  A    between atoms: C5_6  and  C6_7 
REMARK    3  A    between atoms: C6_7  and  N1_8 
REMARK    4  A    between atoms: C9_14  and  N2_15 
ROOT
HETATM    1  C2  UNL     1     -23.184   7.255 -12.857  1.00  0.00     0.151 C 
HETATM    2  C3  UNL     1     -23.580   7.363 -14.274  1.00  0.00     0.034 C 
HETATM    3  C4  UNL     1     -24.622   8.382 -14.593  1.00  0.00     0.009 C 
HETATM    4  C5  UNL     1     -24.146   9.780 -14.358  1.00  0.00     0.011 C 
HETATM    5  C7  UNL     1     -23.668  10.023 -12.957  1.00  0.00     0.008 C 
HETATM    6  C8  UNL     1     -24.532   9.221 -12.023  1.00  0.00     0.036 C 
HETATM    7  C9  UNL     1     -24.118   7.815 -11.843  1.00  0.00     0.212 C 
ENDROOT
BRANCH   4   8
HETATM    8  C6  UNL     1     -25.191  10.781 -14.791  1.00  0.00     0.234 C 
BRANCH   8   9
HETATM    9  N1  UNL     1     -24.575  12.025 -15.211  1.00  0.00    -0.079 N 
ATOM     10  H13 UNL     1     -25.160  12.829 -14.985  1.00  0.00     0.274 HD
ATOM     11  H12 UNL     1     -23.764  12.256 -14.637  1.00  0.00     0.274 HD
ATOM     12  H11 UNL     1     -24.338  11.998 -16.203  1.00  0.00     0.274 HD
ENDBRANCH   8   9
ENDBRANCH   4   8
BRANCH   1  13
HETATM   13  O1  UNL     1     -23.018   5.900 -12.565  1.00  0.00    -0.389 OA
HETATM   14  C1  UNL     1     -22.925   5.125 -13.711  1.00  0.00     0.202 C 
ENDBRANCH   1  13
BRANCH   7  15
HETATM   15  N2  UNL     1     -25.339   6.997 -11.746  1.00  0.00    -0.073 N 
ATOM     16  H23 UNL     1     -26.181   7.564 -11.847  1.00  0.00     0.274 HD
ATOM     17  H22 UNL     1     -25.457   6.398 -12.564  1.00  0.00     0.274 HD
ATOM     18  H21 UNL     1     -25.348   6.459 -10.880  1.00  0.00     0.274 HD
ENDBRANCH   7  15
TORSDOF 4
ENDMDL
MODEL 3
REMARK VINA RESULT: -5.150351420      2.196      4.418
REMARK  4 active torsions:
REMARK  status: ('A' for Active; 'I' for Inactive)
REMARK    1  A    between atoms: O1_2  and  C2_3 
REMARK    2  A    between atoms: C5_6  and  C6_7 
REMARK    3  A    between atoms: C6_7  and  N1_8 
REMARK    4  A    between atoms: C9_14  and  N2_15 
ROOT
HETATM    1  C2  UNL     1     -24.347   6.910 -12.682  1.00  0.00     0.151 C 
HETATM    2  C3  UNL     1     -24.897   7.993 -11.844  1.00  0.00     0.034 C 
HETATM    3  C4  UNL     1     -24.464   9.379 -12.188  1.00  0.00     0.009 C 
HETATM    4  C5  UNL     1     -24.964   9.819 -13.527  1.00  0.00     0.011 C 
HETATM    5  C7  UNL     1     -24.554   8.910 -14.647  1.00  0.00     0.008 C 
HETATM    6  C8  UNL     1     -23.171   8.397 -14.350  1.00  0.00     0.036 C 
HETATM    7  C9  UNL     1     -23.121   7.213 -13.469  1.00  0.00     0.212 C 
ENDROOT
BRANCH   4   8
HETATM    8  C6  UNL     1     -24.593  11.259 -13.789  1.00  0.00     0.234 C 
BRANCH   8   9
HETATM    9  N1  UNL     1     -24.587  11.542 -15.211  1.00  0.00    -0.079 N 
ATOM     10  H13 UNL     1     -24.541  10.687 -15.765  1.00  0.00     0.274 HD
ATOM     11  H12 UNL     1     -25.493  11.885 -15.531  1.00  0.00     0.274 HD
ATOM     12  H11 UNL     1     -23.835  12.187 -15.452  1.00  0.00     0.274 HD
ENDBRANCH   8   9
ENDBRANCH   4   8
BRANCH   1  13
HETATM   13  O1  UNL     1     -24.045   5.836 -11.842  1.00  0.00    -0.389 OA
HETATM   14  C1  UNL     1     -24.719   4.680 -12.208  1.00  0.00     0.202 C 
ENDBRANCH   1  13
BRANCH   7  15
HETATM   15  N2  UNL     1     -21.953   7.362 -12.585  1.00  0.00    -0.073 N 
ATOM     16  H23 UNL     1     -21.216   7.914 -13.024  1.00  0.00     0.274 HD
ATOM     17  H22 UNL     1     -22.154   7.975 -11.795  1.00  0.00     0.274 HD
ATOM     18  H21 UNL     1     -21.610   6.452 -12.279  1.00  0.00     0.274 HD
ENDBRANCH   7  15
TORSDOF 4
ENDMDL
MODEL 4
REMARK VINA RESULT: -5.133512008      1.555      2.522
REMARK  4 active torsions:
REMARK  status: ('A' for Active; 'I' for Inactive)
REMARK    1  A    between atoms: O1_2  and  C2_3 
REMARK    2  A    between atoms: C5_6  and  C6_7 
REMARK    3  A    between atoms: C6_7  and  N1_8 
REMARK    4  A    between atoms: C9_14  and  N2_15 
ROOT
HETATM    1  C2  UNL     1     -25.019   8.110 -13.736  1.00  0.00     0.151 C 
HETATM    2  C3  UNL     1     -23.785   7.732 -14.451  1.00  0.00     0.034 C 
HETATM    3  C4  UNL     1     -22.799   6.918 -13.683  1.00  0.00     0.009 C 
HETATM    4  C5  UNL     1     -23.320   5.558 -13.343  1.00  0.00     0.011 C 
HETATM    5  C7  UNL     1     -24.607   5.584 -12.572  1.00  0.00     0.008 C 
HETATM    6  C8  UNL     1     -24.571   6.768 -11.644  1.00  0.00     0.036 C 
HETATM    7  C9  UNL     1     -24.992   8.048 -12.250  1.00  0.00     0.212 C 
ENDROOT
BRANCH   4   8
HETATM    8  C6  UNL     1     -22.257   4.733 -12.659  1.00  0.00     0.234 C 
BRANCH   8   9
HETATM    9  N1  UNL     1     -21.224   4.338 -13.597  1.00  0.00    -0.079 N 
ATOM     10  H13 UNL     1     -21.460   4.607 -14.552  1.00  0.00     0.274 HD
ATOM     11  H12 UNL     1     -20.378   4.897 -13.483  1.00  0.00     0.274 HD
ATOM     12  H11 UNL     1     -21.027   3.340 -13.525  1.00  0.00     0.274 HD
ENDBRANCH   8   9
ENDBRANCH   4   8
BRANCH   1  13
HETATM   13  O1  UNL     1     -25.328   9.426 -14.090  1.00  0.00    -0.389 OA
HETATM   14  C1  UNL     1     -24.620   9.847 -15.206  1.00  0.00     0.202 C 
ENDBRANCH   1  13
BRANCH   7  15
HETATM   15  N2  UNL     1     -24.135   9.109 -11.695  1.00  0.00    -0.073 N 
ATOM     16  H23 UNL     1     -23.718   9.680 -12.430  1.00  0.00     0.274 HD
ATOM     17  H22 UNL     1     -24.684   9.832 -11.229  1.00  0.00     0.274 HD
ATOM     18  H21 UNL     1     -23.426   8.717 -11.075  1.00  0.00     0.274 HD
ENDBRANCH   7  15
TORSDOF 4
ENDMDL
MODEL 5
REMARK VINA RESULT: -5.064641879      2.670      3.452
REMARK  4 active torsions:
REMARK  status: ('A' for Active; 'I' for Inactive)
REMARK    1  A    between atoms: O1_2  and  C2_3 
REMARK    2  A    between atoms: C5_6  and  C6_7 
REMARK    3  A    between atoms: C6_7  and  N1_8 
REMARK    4  A    between atoms: C9_14  and  N2_15 
ROOT
HETATM    1  C2  UNL     1     -24.966  10.272 -14.199  1.00  0.00     0.151 C 
HETATM    2  C3  UNL     1     -24.156   9.398 -15.069  1.00  0.00     0.034 C 
HETATM    3  C4  UNL     1     -23.345   8.351 -14.383  1.00  0.00     0.009 C 
HETATM    4  C5  UNL     1     -24.192   7.319 -13.710  1.00  0.00     0.011 C 
HETATM    5  C7  UNL     1     -25.155   7.893 -12.713  1.00  0.00     0.008 C 
HETATM    6  C8  UNL     1     -24.488   9.059 -12.036  1.00  0.00     0.036 C 
HETATM    7  C9  UNL     1     -24.588  10.341 -12.761  1.00  0.00     0.212 C 
ENDROOT
BRANCH   4   8
HETATM    8  C6  UNL     1     -23.336   6.225 -13.119  1.00  0.00     0.234 C 
BRANCH   8   9
HETATM    9  N1  UNL     1     -21.964   6.668 -12.962  1.00  0.00    -0.079 N 
ATOM     10  H13 UNL     1     -21.519   6.236 -12.152  1.00  0.00     0.274 HD
ATOM     11  H12 UNL     1     -21.359   6.289 -13.690  1.00  0.00     0.274 HD
ATOM     12  H11 UNL     1     -21.911   7.686 -12.921  1.00  0.00     0.274 HD
ENDBRANCH   8   9
ENDBRANCH   4   8
BRANCH   1  13
HETATM   13  O1  UNL     1     -24.889  11.569 -14.711  1.00  0.00    -0.389 OA
HETATM   14  C1  UNL     1     -26.093  12.249 -14.597  1.00  0.00     0.202 C 
ENDBRANCH   1  13
BRANCH   7  15
HETATM   15  N2  UNL     1     -23.312  11.055 -12.588  1.00  0.00    -0.073 N 
ATOM     16  H23 UNL     1     -22.561  10.621 -13.125  1.00  0.00     0.274 HD
ATOM     17  H22 UNL     1     -23.324  11.966 -13.047  1.00  0.00     0.274 HD
ATOM     18  H21 UNL     1     -23.071  11.134 -11.600  1.00  0.00     0.274 HD
ENDBRANCH   7  15
TORSDOF 4
ENDMDL
