MODEL 1
REMARK VINA RESULT: -4.810721357      0.000      0.000
REMARK  2 active torsions:
REMARK  status: ('A' for Active; 'I' for Inactive)
REMARK    1  A    between atoms: C2_2  and  C3_3 
REMARK    2  A    between atoms: C2_2  and  C4_5 
ROOT
HETATM    1  C4  UNL     1     -18.387 -17.105  16.343  1.00  0.00     0.021 C 
HETATM    2  C5  UNL     1     -19.224 -18.343  16.175  1.00  0.00     0.013 C 
HETATM    3  C6  UNL     1     -19.938 -17.587  15.045  1.00  0.00     0.018 C 
HETATM    4  C7  UNL     1     -21.417 -17.659  15.065  1.00  0.00     0.034 C 
HETATM    5  C8  UNL     1     -21.842 -16.462  15.882  1.00  0.00     0.233 C 
HETATM    6  N1  UNL     1     -20.647 -16.088  16.654  1.00  0.00    -0.070 N 
ATOM      7  H11 UNL     1     -20.571 -16.575  17.548  1.00  0.00     0.277 HD
ATOM      8  H12 UNL     1     -20.686 -15.142  17.032  1.00  0.00     0.277 HD
HETATM    9  C9  UNL     1     -19.534 -16.311  15.786  1.00  0.00     0.194 C 
ENDROOT
BRANCH   1  10
HETATM   10  C2  UNL     1     -17.936 -16.779  17.719  1.00  0.00    -0.002 C 
HETATM   11  C1  UNL     1     -18.122 -18.009  18.588  1.00  0.00     0.011 C 
BRANCH  10  12
HETATM   12  C3  UNL     1     -16.442 -16.498  17.670  1.00  0.00     0.090 C 
HETATM   13  S1  UNL     1     -15.501 -17.971  17.226  1.00  0.00    -0.097 SA
ENDBRANCH  10  12
ENDBRANCH   1  10
TORSDOF 2
ENDMDL
MODEL 2
REMARK VINA RESULT: -4.781821736      1.039      1.140
REMARK  2 active torsions:
REMARK  status: ('A' for Active; 'I' for Inactive)
REMARK    1  A    between atoms: C2_2  and  C3_3 
REMARK    2  A    between atoms: C2_2  and  C4_5 
ROOT
HETATM    1  C4  UNL     1     -17.825 -16.642  16.455  1.00  0.00     0.021 C 
HETATM    2  C5  UNL     1     -18.728 -17.692  15.868  1.00  0.00     0.013 C 
HETATM    3  C6  UNL     1     -19.665 -16.535  15.494  1.00  0.00     0.018 C 
HETATM    4  C7  UNL     1     -21.096 -16.746  15.815  1.00  0.00     0.034 C 
HETATM    5  C8  UNL     1     -21.258 -16.180  17.206  1.00  0.00     0.233 C 
HETATM    6  N1  UNL     1     -19.896 -16.144  17.760  1.00  0.00    -0.070 N 
ATOM      7  H11 UNL     1     -19.622 -17.008  18.226  1.00  0.00     0.277 HD
ATOM      8  H12 UNL     1     -19.802 -15.531  18.570  1.00  0.00     0.277 HD
HETATM    9  C9  UNL     1     -19.040 -15.786  16.672  1.00  0.00     0.194 C 
ENDROOT
BRANCH   1  10
HETATM   10  C2  UNL     1     -17.036 -17.024  17.653  1.00  0.00    -0.002 C 
HETATM   11  C1  UNL     1     -17.089 -18.533  17.800  1.00  0.00     0.011 C 
BRANCH  10  12
HETATM   12  C3  UNL     1     -15.583 -16.658  17.396  1.00  0.00     0.090 C 
HETATM   13  S1  UNL     1     -14.720 -17.954  16.486  1.00  0.00    -0.097 SA
ENDBRANCH  10  12
ENDBRANCH   1  10
TORSDOF 2
ENDMDL
MODEL 3
REMARK VINA RESULT: -4.777456510      2.821      4.788
REMARK  2 active torsions:
REMARK  status: ('A' for Active; 'I' for Inactive)
REMARK    1  A    between atoms: C2_2  and  C3_3 
REMARK    2  A    between atoms: C2_2  and  C4_5 
ROOT
HETATM    1  C4  UNL     1     -17.306 -17.347  16.688  1.00  0.00     0.021 C 
HETATM    2  C5  UNL     1     -16.124 -16.725  17.380  1.00  0.00     0.013 C 
HETATM    3  C6  UNL     1     -15.421 -18.075  17.180  1.00  0.00     0.018 C 
HETATM    4  C7  UNL     1     -14.715 -18.607  18.369  1.00  0.00     0.034 C 
HETATM    5  C8  UNL     1     -15.747 -19.459  19.071  1.00  0.00     0.233 C 
HETATM    6  N1  UNL     1     -17.041 -18.988  18.553  1.00  0.00    -0.070 N 
ATOM      7  H11 UNL     1     -17.433 -18.210  19.085  1.00  0.00     0.277 HD
ATOM      8  H12 UNL     1     -17.806 -19.643  18.711  1.00  0.00     0.277 HD
HETATM    9  C9  UNL     1     -16.825 -18.685  17.173  1.00  0.00     0.194 C 
ENDROOT
BRANCH   1  10
HETATM   10  C2  UNL     1     -18.653 -16.906  17.128  1.00  0.00    -0.002 C 
HETATM   11  C1  UNL     1     -18.857 -15.471  16.680  1.00  0.00     0.011 C 
BRANCH  10  12
HETATM   12  C3  UNL     1     -19.686 -17.746  16.393  1.00  0.00     0.090 C 
HETATM   13  S1  UNL     1     -20.948 -16.721  15.615  1.00  0.00    -0.097 SA
ENDBRANCH  10  12
ENDBRANCH   1  10
TORSDOF 2
ENDMDL
MODEL 4
REMARK VINA RESULT: -4.673255115      2.668      4.465
REMARK  2 active torsions:
REMARK  status: ('A' for Active; 'I' for Inactive)
REMARK    1  A    between atoms: C2_2  and  C3_3 
REMARK    2  A    between atoms: C2_2  and  C4_5 
ROOT
HETATM    1  C4  UNL     1     -19.156 -17.357  17.363  1.00  0.00     0.021 C 
HETATM    2  C5  UNL     1     -18.519 -18.717  17.262  1.00  0.00     0.013 C 
HETATM    3  C6  UNL     1     -17.528 -18.223  18.325  1.00  0.00     0.018 C 
HETATM    4  C7  UNL     1     -16.102 -18.509  18.048  1.00  0.00     0.034 C 
HETATM    5  C8  UNL     1     -15.612 -17.295  17.295  1.00  0.00     0.233 C 
HETATM    6  N1  UNL     1     -16.831 -16.655  16.777  1.00  0.00    -0.070 N 
ATOM      7  H11 UNL     1     -17.121 -17.008  15.865  1.00  0.00     0.277 HD
ATOM      8  H12 UNL     1     -16.694 -15.684  16.495  1.00  0.00     0.277 HD
HETATM    9  C9  UNL     1     -17.822 -16.818  17.794  1.00  0.00     0.194 C 
ENDROOT
BRANCH   1  10
HETATM   10  C2  UNL     1     -19.749 -16.798  16.122  1.00  0.00    -0.002 C 
HETATM   11  C1  UNL     1     -19.832 -17.906  15.090  1.00  0.00     0.011 C 
BRANCH  10  12
HETATM   12  C3  UNL     1     -21.178 -16.379  16.433  1.00  0.00     0.090 C 
HETATM   13  S1  UNL     1     -22.284 -16.701  15.046  1.00  0.00    -0.097 SA
ENDBRANCH  10  12
ENDBRANCH   1  10
TORSDOF 2
ENDMDL
MODEL 5
REMARK VINA RESULT: -4.658108988      1.785      2.318
REMARK  2 active torsions:
REMARK  status: ('A' for Active; 'I' for Inactive)
REMARK    1  A    between atoms: C2_2  and  C3_3 
REMARK    2  A    between atoms: C2_2  and  C4_5 
ROOT
HETATM    1  C4  UNL     1     -17.523 -18.451  17.297  1.00  0.00     0.021 C 
HETATM    2  C5  UNL     1     -18.808 -18.343  18.071  1.00  0.00     0.013 C 
HETATM    3  C6  UNL     1     -19.397 -17.694  16.810  1.00  0.00     0.018 C 
HETATM    4  C7  UNL     1     -20.187 -16.462  17.038  1.00  0.00     0.034 C 
HETATM    5  C8  UNL     1     -19.182 -15.341  16.919  1.00  0.00     0.233 C 
HETATM    6  N1  UNL     1     -17.874 -15.984  17.122  1.00  0.00    -0.070 N 
ATOM      7  H11 UNL     1     -17.591 -16.031  18.100  1.00  0.00     0.277 HD
ATOM      8  H12 UNL     1     -17.089 -15.422  16.793  1.00  0.00     0.277 HD
HETATM    9  C9  UNL     1     -17.964 -17.263  16.490  1.00  0.00     0.194 C 
ENDROOT
BRANCH   1  10
HETATM   10  C2  UNL     1     -16.261 -18.321  18.068  1.00  0.00    -0.002 C 
HETATM   11  C1  UNL     1     -16.103 -19.553  18.939  1.00  0.00     0.011 C 
BRANCH  10  12
HETATM   12  C3  UNL     1     -15.104 -18.331  17.079  1.00  0.00     0.090 C 
HETATM   13  S1  UNL     1     -14.349 -16.702  16.921  1.00  0.00    -0.097 SA
ENDBRANCH  10  12
ENDBRANCH   1  10
TORSDOF 2
ENDMDL
