MODEL 1
REMARK VINA RESULT: -5.479729748      0.000      0.000
REMARK  3 active torsions:
REMARK  status: ('A' for Active; 'I' for Inactive)
REMARK    1  A    between atoms: C2_2  and  C4_4 
REMARK    2  A    between atoms: C6_6  and  C7_7 
REMARK    3  A    between atoms: C7_7  and  N1_8 
ROOT
HETATM    1  C4  UNL     1     -17.123 -18.028  17.396  1.00  0.00     0.129 C 
HETATM    2  C5  UNL     1     -17.877 -17.927  16.086  1.00  0.00     0.046 C 
HETATM    3  C6  UNL     1     -19.256 -17.485  16.603  1.00  0.00     0.019 C 
HETATM    4  C8  UNL     1     -19.069 -17.091  18.024  1.00  0.00     0.019 C 
HETATM    5  C9  UNL     1     -18.940 -18.371  18.839  1.00  0.00     0.238 C 
HETATM    6  N2  UNL     1     -17.797 -19.001  18.203  1.00  0.00    -0.066 N 
ATOM      7  H21 UNL     1     -17.174 -19.448  18.876  1.00  0.00     0.278 HD
ATOM      8  H22 UNL     1     -18.056 -19.834  17.675  1.00  0.00     0.278 HD
HETATM    9  C10 UNL     1     -17.580 -16.698  18.022  1.00  0.00     0.046 C 
ENDROOT
BRANCH   3  10
HETATM   10  C7  UNL     1     -19.842 -16.405  15.742  1.00  0.00     0.234 C 
BRANCH  10  11
HETATM   11  N1  UNL     1     -21.213 -16.122  16.031  1.00  0.00    -0.079 N 
ATOM     12  H13 UNL     1     -21.829 -16.657  15.419  1.00  0.00     0.274 HD
ATOM     13  H12 UNL     1     -21.480 -16.520  16.932  1.00  0.00     0.274 HD
ATOM     14  H11 UNL     1     -21.442 -15.129  15.994  1.00  0.00     0.274 HD
ENDBRANCH  10  11
ENDBRANCH   3  10
BRANCH   1  15
HETATM   15  C2  UNL     1     -15.674 -18.155  17.284  1.00  0.00     0.013 C 
HETATM   16  C1  UNL     1     -15.115 -18.873  18.486  1.00  0.00     0.012 C 
HETATM   17  C3  UNL     1     -15.045 -16.769  17.282  1.00  0.00     0.012 C 
ENDBRANCH   1  15
TORSDOF 3
ENDMDL
MODEL 2
REMARK VINA RESULT: -5.135083997      1.789      4.145
REMARK  3 active torsions:
REMARK  status: ('A' for Active; 'I' for Inactive)
REMARK    1  A    between atoms: C2_2  and  C4_4 
REMARK    2  A    between atoms: C6_6  and  C7_7 
REMARK    3  A    between atoms: C7_7  and  N1_8 
ROOT
HETATM    1  C4  UNL     1     -18.984 -17.135  16.782  1.00  0.00     0.129 C 
HETATM    2  C5  UNL     1     -17.637 -16.475  16.570  1.00  0.00     0.046 C 
HETATM    3  C6  UNL     1     -16.817 -17.180  17.662  1.00  0.00     0.019 C 
HETATM    4  C8  UNL     1     -17.637 -18.325  18.135  1.00  0.00     0.019 C 
HETATM    5  C9  UNL     1     -18.735 -17.763  19.027  1.00  0.00     0.238 C 
HETATM    6  N2  UNL     1     -19.398 -16.842  18.122  1.00  0.00    -0.066 N 
ATOM      7  H21 UNL     1     -20.412 -16.855  18.227  1.00  0.00     0.278 HD
ATOM      8  H22 UNL     1     -19.241 -15.867  18.373  1.00  0.00     0.278 HD
HETATM    9  C10 UNL     1     -18.504 -18.594  16.890  1.00  0.00     0.046 C 
ENDROOT
BRANCH   3  10
HETATM   10  C7  UNL     1     -15.458 -17.569  17.159  1.00  0.00     0.234 C 
BRANCH  10  11
HETATM   11  N1  UNL     1     -14.487 -16.525  17.266  1.00  0.00    -0.079 N 
ATOM     12  H13 UNL     1     -14.517 -16.099  18.192  1.00  0.00     0.274 HD
ATOM     13  H12 UNL     1     -13.543 -16.912  17.286  1.00  0.00     0.274 HD
ATOM     14  H11 UNL     1     -14.569 -15.814  16.540  1.00  0.00     0.274 HD
ENDBRANCH  10  11
ENDBRANCH   3  10
BRANCH   1  15
HETATM   15  C2  UNL     1     -19.968 -16.920  15.726  1.00  0.00     0.013 C 
HETATM   16  C1  UNL     1     -21.268 -16.433  16.311  1.00  0.00     0.012 C 
HETATM   17  C3  UNL     1     -20.274 -18.245  15.045  1.00  0.00     0.012 C 
ENDBRANCH   1  15
TORSDOF 3
ENDMDL
MODEL 3
REMARK VINA RESULT: -4.916351100      6.408      8.101
REMARK  3 active torsions:
REMARK  status: ('A' for Active; 'I' for Inactive)
REMARK    1  A    between atoms: C2_2  and  C4_4 
REMARK    2  A    between atoms: C6_6  and  C7_7 
REMARK    3  A    between atoms: C7_7  and  N1_8 
ROOT
HETATM    1  C4  UNL     1     -22.964 -16.440  21.843  1.00  0.00     0.129 C 
HETATM    2  C5  UNL     1     -23.897 -17.585  22.175  1.00  0.00     0.046 C 
HETATM    3  C6  UNL     1     -23.593 -17.754  23.673  1.00  0.00     0.019 C 
HETATM    4  C8  UNL     1     -22.815 -16.557  24.084  1.00  0.00     0.019 C 
HETATM    5  C9  UNL     1     -21.396 -16.733  23.562  1.00  0.00     0.238 C 
HETATM    6  N2  UNL     1     -21.631 -16.874  22.136  1.00  0.00    -0.066 N 
ATOM      7  H21 UNL     1     -20.930 -16.388  21.576  1.00  0.00     0.278 HD
ATOM      8  H22 UNL     1     -21.448 -17.820  21.802  1.00  0.00     0.278 HD
HETATM    9  C10 UNL     1     -23.291 -15.528  23.040  1.00  0.00     0.046 C 
ENDROOT
BRANCH   3  10
HETATM   10  C7  UNL     1     -24.850 -17.967  24.464  1.00  0.00     0.234 C 
BRANCH  10  11
HETATM   11  N1  UNL     1     -25.679 -19.013  23.952  1.00  0.00    -0.079 N 
ATOM     12  H13 UNL     1     -25.342 -19.327  23.042  1.00  0.00     0.274 HD
ATOM     13  H12 UNL     1     -25.548 -19.871  24.488  1.00  0.00     0.274 HD
ATOM     14  H11 UNL     1     -26.667 -18.766  23.905  1.00  0.00     0.274 HD
ENDBRANCH  10  11
ENDBRANCH   3  10
BRANCH   1  15
HETATM   15  C2  UNL     1     -23.180 -15.802  20.548  1.00  0.00     0.013 C 
HETATM   16  C1  UNL     1     -24.298 -16.487  19.805  1.00  0.00     0.012 C 
HETATM   17  C3  UNL     1     -21.933 -15.966  19.691  1.00  0.00     0.012 C 
ENDBRANCH   1  15
TORSDOF 3
ENDMDL
MODEL 4
REMARK VINA RESULT: -4.831867134      1.712      2.531
REMARK  3 active torsions:
REMARK  status: ('A' for Active; 'I' for Inactive)
REMARK    1  A    between atoms: C2_2  and  C4_4 
REMARK    2  A    between atoms: C6_6  and  C7_7 
REMARK    3  A    between atoms: C7_7  and  N1_8 
ROOT
HETATM    1  C4  UNL     1     -17.149 -17.337  17.357  1.00  0.00     0.129 C 
HETATM    2  C5  UNL     1     -17.606 -17.461  18.796  1.00  0.00     0.046 C 
HETATM    3  C6  UNL     1     -19.085 -17.073  18.643  1.00  0.00     0.019 C 
HETATM    4  C8  UNL     1     -19.378 -17.085  17.186  1.00  0.00     0.019 C 
HETATM    5  C9  UNL     1     -18.767 -15.825  16.588  1.00  0.00     0.238 C 
HETATM    6  N2  UNL     1     -17.371 -15.981  16.953  1.00  0.00    -0.066 N 
ATOM      7  H21 UNL     1     -16.738 -15.688  16.208  1.00  0.00     0.278 HD
ATOM      8  H22 UNL     1     -17.076 -15.310  17.662  1.00  0.00     0.278 HD
HETATM    9  C10 UNL     1     -18.316 -18.083  16.685  1.00  0.00     0.046 C 
ENDROOT
BRANCH   3  10
HETATM   10  C7  UNL     1     -19.973 -17.973  19.451  1.00  0.00     0.234 C 
BRANCH  10  11
HETATM   11  N1  UNL     1     -20.829 -17.272  20.355  1.00  0.00    -0.079 N 
ATOM     12  H13 UNL     1     -21.401 -17.926  20.891  1.00  0.00     0.274 HD
ATOM     13  H12 UNL     1     -20.289 -16.856  21.115  1.00  0.00     0.274 HD
ATOM     14  H11 UNL     1     -21.414 -16.569  19.903  1.00  0.00     0.274 HD
ENDBRANCH  10  11
ENDBRANCH   3  10
BRANCH   1  15
HETATM   15  C2  UNL     1     -15.840 -17.909  17.057  1.00  0.00     0.013 C 
HETATM   16  C1  UNL     1     -15.477 -18.955  18.080  1.00  0.00     0.012 C 
HETATM   17  C3  UNL     1     -14.780 -16.823  17.160  1.00  0.00     0.012 C 
ENDBRANCH   1  15
TORSDOF 3
ENDMDL
MODEL 5
REMARK VINA RESULT: -4.771622720      6.636      8.357
REMARK  3 active torsions:
REMARK  status: ('A' for Active; 'I' for Inactive)
REMARK    1  A    between atoms: C2_2  and  C4_4 
REMARK    2  A    between atoms: C6_6  and  C7_7 
REMARK    3  A    between atoms: C7_7  and  N1_8 
ROOT
HETATM    1  C4  UNL     1     -23.326 -16.115  21.840  1.00  0.00     0.129 C 
HETATM    2  C5  UNL     1     -22.991 -16.819  23.139  1.00  0.00     0.046 C 
HETATM    3  C6  UNL     1     -24.407 -17.118  23.656  1.00  0.00     0.019 C 
HETATM    4  C8  UNL     1     -25.334 -16.864  22.522  1.00  0.00     0.019 C 
HETATM    5  C9  UNL     1     -25.477 -15.355  22.380  1.00  0.00     0.238 C 
HETATM    6  N2  UNL     1     -24.098 -14.955  22.169  1.00  0.00    -0.066 N 
ATOM      7  H21 UNL     1     -24.009 -14.217  21.471  1.00  0.00     0.278 HD
ATOM      8  H22 UNL     1     -23.714 -14.445  22.965  1.00  0.00     0.278 HD
HETATM    9  C10 UNL     1     -24.395 -17.095  21.323  1.00  0.00     0.046 C 
ENDROOT
BRANCH   3  10
HETATM   10  C7  UNL     1     -24.500 -18.505  24.222  1.00  0.00     0.234 C 
BRANCH  10  11
HETATM   11  N1  UNL     1     -25.685 -19.204  23.835  1.00  0.00    -0.079 N 
ATOM     12  H13 UNL     1     -25.938 -18.978  22.873  1.00  0.00     0.274 HD
ATOM     13  H12 UNL     1     -25.497 -20.201  23.732  1.00  0.00     0.274 HD
ATOM     14  H11 UNL     1     -26.475 -19.049  24.461  1.00  0.00     0.274 HD
ENDBRANCH  10  11
ENDBRANCH   3  10
BRANCH   1  15
HETATM   15  C2  UNL     1     -22.211 -15.926  20.917  1.00  0.00     0.013 C 
HETATM   16  C1  UNL     1     -22.707 -15.908  19.493  1.00  0.00     0.012 C 
HETATM   17  C3  UNL     1     -21.260 -17.108  21.025  1.00  0.00     0.012 C 
ENDBRANCH   1  15
TORSDOF 3
ENDMDL
