MODEL 1
REMARK VINA RESULT: -6.386378941      0.000      0.000
REMARK  12 active torsions:
REMARK  status: ('A' for Active; 'I' for Inactive)
REMARK    1  A    between atoms: C1_4  and  N2_5 
REMARK    2  A    between atoms: N2_5  and  C2_7 
REMARK    3  A    between atoms: C2_7  and  N3_8 
REMARK    4  A    between atoms: N3_8  and  N4_9 
REMARK    5  A    between atoms: N4_9  and  C3_10 
REMARK    6  A    between atoms: C3_10  and  C4_11 
REMARK    7  A    between atoms: C4_11  and  N5_12 
REMARK    8  A    between atoms: C4_11  and  C9_24 
REMARK       I    between atoms: N5_12  and  C5_14 
REMARK    9  A    between atoms: C5_14  and  C6_16 
REMARK   10  A    between atoms: C6_16  and  N6_17 
REMARK   11  A    between atoms: C6_16  and  C8_21 
REMARK   12  A    between atoms: N6_17  and  C7_19 
ROOT
HETATM    1  C4  UNL     1      60.257  37.519  47.341  1.00  0.00     0.189 C 
ENDROOT
BRANCH   1   2
HETATM    2  C3  UNL     1      60.943  38.855  47.156  1.00  0.00     0.164 C 
BRANCH   2   3
HETATM    3  N4  UNL     1      59.996  39.956  47.113  1.00  0.00    -0.144 NA
BRANCH   3   4
HETATM    4  N3  UNL     1      59.885  40.348  45.783  1.00  0.00    -0.129 NA
BRANCH   4   5
HETATM    5  C2  UNL     1      58.515  40.480  45.351  1.00  0.00     0.251 C 
BRANCH   5   6
HETATM    6  N2  UNL     1      57.975  39.174  45.061  1.00  0.00    -0.372 N 
ATOM      7  H2  UNL     1      57.394  38.711  45.760  1.00  0.00     0.161 HD
BRANCH   6   8
HETATM    8  C1  UNL     1      58.230  38.515  43.831  1.00  0.00     0.169 C 
HETATM    9  N1  UNL     1      59.427  38.140  43.485  1.00  0.00    -0.396 N 
ATOM     10  H12 UNL     1      60.194  38.334  44.129  1.00  0.00     0.156 HD
ATOM     11  H11 UNL     1      59.611  37.666  42.601  1.00  0.00     0.156 HD
ENDBRANCH   6   8
ENDBRANCH   5   6
ENDBRANCH   4   5
ENDBRANCH   3   4
ENDBRANCH   2   3
ENDBRANCH   1   2
BRANCH   1  12
HETATM   12  N5  UNL     1      60.858  36.904  48.510  1.00  0.00    -0.345 N 
HETATM   13  C5  UNL     1      60.030  36.194  49.412  1.00  0.00     0.250 C 
HETATM   14  O1  UNL     1      58.801  36.121  49.166  1.00  0.00    -0.271 OA
ATOM     15  H5  UNL     1      61.861  36.981  48.679  1.00  0.00     0.163 HD
BRANCH  13  16
HETATM   16  C6  UNL     1      60.631  35.561  50.611  1.00  0.00     0.266 C 
BRANCH  16  17
HETATM   17  N6  UNL     1      60.094  34.187  50.669  1.00  0.00    -0.348 N 
ATOM     18  H6  UNL     1      59.480  33.915  51.436  1.00  0.00     0.163 HD
BRANCH  17  19
HETATM   19  C7  UNL     1      60.425  33.254  49.675  1.00  0.00     0.349 C 
HETATM   20  O2  UNL     1      59.793  32.180  49.602  1.00  0.00    -0.284 OA
ENDBRANCH  17  19
ENDBRANCH  16  17
BRANCH  16  21
HETATM   21  C8  UNL     1      60.226  36.215  51.885  1.00  0.00     0.263 C 
HETATM   22  N7  UNL     1      61.056  36.104  53.029  1.00  0.00    -0.060 NA
HETATM   23  O3  UNL     1      59.154  36.882  52.007  1.00  0.00    -0.274 OA
ENDBRANCH  16  21
ENDBRANCH  13  16
ENDBRANCH   1  12
BRANCH   1  24
HETATM   24  C9  UNL     1      60.461  36.639  46.174  1.00  0.00     0.255 C 
HETATM   25  N8  UNL     1      61.646  36.647  45.402  1.00  0.00    -0.060 NA
HETATM   26  O4  UNL     1      59.522  35.840  45.853  1.00  0.00    -0.275 OA
ENDBRANCH   1  24
TORSDOF 12
ENDMDL
MODEL 2
REMARK VINA RESULT: -6.350372018      1.311      1.739
REMARK  12 active torsions:
REMARK  status: ('A' for Active; 'I' for Inactive)
REMARK    1  A    between atoms: C1_4  and  N2_5 
REMARK    2  A    between atoms: N2_5  and  C2_7 
REMARK    3  A    between atoms: C2_7  and  N3_8 
REMARK    4  A    between atoms: N3_8  and  N4_9 
REMARK    5  A    between atoms: N4_9  and  C3_10 
REMARK    6  A    between atoms: C3_10  and  C4_11 
REMARK    7  A    between atoms: C4_11  and  N5_12 
REMARK    8  A    between atoms: C4_11  and  C9_24 
REMARK       I    between atoms: N5_12  and  C5_14 
REMARK    9  A    between atoms: C5_14  and  C6_16 
REMARK   10  A    between atoms: C6_16  and  N6_17 
REMARK   11  A    between atoms: C6_16  and  C8_21 
REMARK   12  A    between atoms: N6_17  and  C7_19 
ROOT
HETATM    1  C4  UNL     1      60.170  37.531  47.394  1.00  0.00     0.189 C 
ENDROOT
BRANCH   1   2
HETATM    2  C3  UNL     1      60.756  38.921  47.279  1.00  0.00     0.164 C 
BRANCH   2   3
HETATM    3  N4  UNL     1      59.730  39.948  47.241  1.00  0.00    -0.144 NA
BRANCH   3   4
HETATM    4  N3  UNL     1      59.665  40.413  45.931  1.00  0.00    -0.129 NA
BRANCH   4   5
HETATM    5  C2  UNL     1      58.498  39.940  45.227  1.00  0.00     0.251 C 
BRANCH   5   6
HETATM    6  N2  UNL     1      57.551  41.019  45.087  1.00  0.00    -0.372 N 
ATOM      7  H2  UNL     1      56.615  40.910  45.475  1.00  0.00     0.161 HD
BRANCH   6   8
HETATM    8  C1  UNL     1      57.887  42.227  44.425  1.00  0.00     0.169 C 
HETATM    9  N1  UNL     1      57.508  43.388  44.875  1.00  0.00    -0.396 N 
ATOM     10  H12 UNL     1      56.954  43.411  45.731  1.00  0.00     0.156 HD
ATOM     11  H11 UNL     1      57.749  44.257  44.399  1.00  0.00     0.156 HD
ENDBRANCH   6   8
ENDBRANCH   5   6
ENDBRANCH   4   5
ENDBRANCH   3   4
ENDBRANCH   2   3
ENDBRANCH   1   2
BRANCH   1  12
HETATM   12  N5  UNL     1      60.833  36.894  48.516  1.00  0.00    -0.345 N 
HETATM   13  C5  UNL     1      60.059  36.148  49.436  1.00  0.00     0.250 C 
HETATM   14  O1  UNL     1      58.820  36.064  49.246  1.00  0.00    -0.271 OA
ATOM     15  H5  UNL     1      61.842  36.982  48.640  1.00  0.00     0.163 HD
BRANCH  13  16
HETATM   16  C6  UNL     1      60.723  35.493  50.589  1.00  0.00     0.266 C 
BRANCH  16  17
HETATM   17  N6  UNL     1      60.200  34.114  50.640  1.00  0.00    -0.348 N 
ATOM     18  H6  UNL     1      59.626  33.818  51.430  1.00  0.00     0.163 HD
BRANCH  17  19
HETATM   19  C7  UNL     1      60.490  33.206  49.610  1.00  0.00     0.349 C 
HETATM   20  O2  UNL     1      59.868  32.125  49.547  1.00  0.00    -0.284 OA
ENDBRANCH  17  19
ENDBRANCH  16  17
BRANCH  16  21
HETATM   21  C8  UNL     1      60.379  36.113  51.896  1.00  0.00     0.263 C 
HETATM   22  N7  UNL     1      59.154  36.812  52.044  1.00  0.00    -0.060 NA
HETATM   23  O3  UNL     1      61.138  36.051  52.910  1.00  0.00    -0.274 OA
ENDBRANCH  16  21
ENDBRANCH  13  16
ENDBRANCH   1  12
BRANCH   1  24
HETATM   24  C9  UNL     1      60.415  36.737  46.174  1.00  0.00     0.255 C 
HETATM   25  N8  UNL     1      61.060  37.261  45.030  1.00  0.00    -0.060 NA
HETATM   26  O4  UNL     1      60.023  35.524  46.160  1.00  0.00    -0.275 OA
ENDBRANCH   1  24
TORSDOF 12
ENDMDL
MODEL 3
REMARK VINA RESULT: -6.302035059      1.370      1.733
REMARK  12 active torsions:
REMARK  status: ('A' for Active; 'I' for Inactive)
REMARK    1  A    between atoms: C1_4  and  N2_5 
REMARK    2  A    between atoms: N2_5  and  C2_7 
REMARK    3  A    between atoms: C2_7  and  N3_8 
REMARK    4  A    between atoms: N3_8  and  N4_9 
REMARK    5  A    between atoms: N4_9  and  C3_10 
REMARK    6  A    between atoms: C3_10  and  C4_11 
REMARK    7  A    between atoms: C4_11  and  N5_12 
REMARK    8  A    between atoms: C4_11  and  C9_24 
REMARK       I    between atoms: N5_12  and  C5_14 
REMARK    9  A    between atoms: C5_14  and  C6_16 
REMARK   10  A    between atoms: C6_16  and  N6_17 
REMARK   11  A    between atoms: C6_16  and  C8_21 
REMARK   12  A    between atoms: N6_17  and  C7_19 
ROOT
HETATM    1  C4  UNL     1      59.638  37.571  46.992  1.00  0.00     0.189 C 
ENDROOT
BRANCH   1   2
HETATM    2  C3  UNL     1      60.866  38.412  46.716  1.00  0.00     0.164 C 
BRANCH   2   3
HETATM    3  N4  UNL     1      60.597  39.834  46.841  1.00  0.00    -0.144 NA
BRANCH   3   4
HETATM    4  N3  UNL     1      61.219  40.464  45.769  1.00  0.00    -0.129 NA
BRANCH   4   5
HETATM    5  C2  UNL     1      60.634  40.114  44.498  1.00  0.00     0.251 C 
BRANCH   5   6
HETATM    6  N2  UNL     1      59.731  41.160  44.081  1.00  0.00    -0.372 N 
ATOM      7  H2  UNL     1      60.097  41.945  43.543  1.00  0.00     0.161 HD
BRANCH   6   8
HETATM    8  C1  UNL     1      58.349  41.125  44.398  1.00  0.00     0.169 C 
HETATM    9  N1  UNL     1      57.917  40.715  45.554  1.00  0.00    -0.396 N 
ATOM     10  H12 UNL     1      58.606  40.413  46.243  1.00  0.00     0.156 HD
ATOM     11  H11 UNL     1      56.923  40.691  45.782  1.00  0.00     0.156 HD
ENDBRANCH   6   8
ENDBRANCH   5   6
ENDBRANCH   4   5
ENDBRANCH   3   4
ENDBRANCH   2   3
ENDBRANCH   1   2
BRANCH   1  12
HETATM   12  N5  UNL     1      60.058  36.508  47.886  1.00  0.00    -0.345 N 
HETATM   13  C5  UNL     1      59.889  36.681  49.281  1.00  0.00     0.250 C 
HETATM   14  O1  UNL     1      59.380  37.751  49.694  1.00  0.00    -0.271 OA
ATOM     15  H5  UNL     1      60.467  35.651  47.516  1.00  0.00     0.163 HD
BRANCH  13  16
HETATM   16  C6  UNL     1      60.315  35.603  50.207  1.00  0.00     0.266 C 
BRANCH  16  17
HETATM   17  N6  UNL     1      59.824  34.338  49.626  1.00  0.00    -0.348 N 
ATOM     18  H6  UNL     1      58.925  34.317  49.144  1.00  0.00     0.163 HD
BRANCH  17  19
HETATM   19  C7  UNL     1      60.586  33.165  49.733  1.00  0.00     0.349 C 
HETATM   20  O2  UNL     1      60.094  32.075  49.377  1.00  0.00    -0.284 OA
ENDBRANCH  17  19
ENDBRANCH  16  17
BRANCH  16  21
HETATM   21  C8  UNL     1      59.692  35.707  51.554  1.00  0.00     0.263 C 
HETATM   22  N7  UNL     1      60.466  36.148  52.656  1.00  0.00    -0.060 NA
HETATM   23  O3  UNL     1      58.478  35.415  51.776  1.00  0.00    -0.274 OA
ENDBRANCH  16  21
ENDBRANCH  13  16
ENDBRANCH   1  12
BRANCH   1  24
HETATM   24  C9  UNL     1      59.100  36.976  45.753  1.00  0.00     0.255 C 
HETATM   25  N8  UNL     1      58.092  37.594  44.977  1.00  0.00    -0.060 NA
HETATM   26  O4  UNL     1      59.570  35.855  45.374  1.00  0.00    -0.275 OA
ENDBRANCH   1  24
TORSDOF 12
ENDMDL
MODEL 4
REMARK VINA RESULT: -6.194839400      1.496      1.699
REMARK  12 active torsions:
REMARK  status: ('A' for Active; 'I' for Inactive)
REMARK    1  A    between atoms: C1_4  and  N2_5 
REMARK    2  A    between atoms: N2_5  and  C2_7 
REMARK    3  A    between atoms: C2_7  and  N3_8 
REMARK    4  A    between atoms: N3_8  and  N4_9 
REMARK    5  A    between atoms: N4_9  and  C3_10 
REMARK    6  A    between atoms: C3_10  and  C4_11 
REMARK    7  A    between atoms: C4_11  and  N5_12 
REMARK    8  A    between atoms: C4_11  and  C9_24 
REMARK       I    between atoms: N5_12  and  C5_14 
REMARK    9  A    between atoms: C5_14  and  C6_16 
REMARK   10  A    between atoms: C6_16  and  N6_17 
REMARK   11  A    between atoms: C6_16  and  C8_21 
REMARK   12  A    between atoms: N6_17  and  C7_19 
ROOT
HETATM    1  C4  UNL     1      60.271  37.519  47.421  1.00  0.00     0.189 C 
ENDROOT
BRANCH   1   2
HETATM    2  C3  UNL     1      60.917  38.882  47.296  1.00  0.00     0.164 C 
BRANCH   2   3
HETATM    3  N4  UNL     1      59.963  39.909  46.916  1.00  0.00    -0.144 NA
BRANCH   3   4
HETATM    4  N3  UNL     1      60.476  40.549  45.792  1.00  0.00    -0.129 NA
BRANCH   4   5
HETATM    5  C2  UNL     1      59.711  40.283  44.599  1.00  0.00     0.251 C 
BRANCH   5   6
HETATM    6  N2  UNL     1      60.609  39.970  43.514  1.00  0.00    -0.372 N 
ATOM      7  H2  UNL     1      60.844  38.995  43.330  1.00  0.00     0.161 HD
BRANCH   6   8
HETATM    8  C1  UNL     1      61.174  40.981  42.695  1.00  0.00     0.169 C 
HETATM    9  N1  UNL     1      62.060  41.819  43.148  1.00  0.00    -0.396 N 
ATOM     10  H12 UNL     1      62.346  41.733  44.123  1.00  0.00     0.156 HD
ATOM     11  H11 UNL     1      62.467  42.546  42.559  1.00  0.00     0.156 HD
ENDBRANCH   6   8
ENDBRANCH   5   6
ENDBRANCH   4   5
ENDBRANCH   3   4
ENDBRANCH   2   3
ENDBRANCH   1   2
BRANCH   1  12
HETATM   12  N5  UNL     1      60.907  36.862  48.547  1.00  0.00    -0.345 N 
HETATM   13  C5  UNL     1      60.101  36.154  49.471  1.00  0.00     0.250 C 
HETATM   14  O1  UNL     1      58.861  36.119  49.279  1.00  0.00    -0.271 OA
ATOM     15  H5  UNL     1      61.918  36.909  48.672  1.00  0.00     0.163 HD
BRANCH  13  16
HETATM   16  C6  UNL     1      60.737  35.478  50.628  1.00  0.00     0.266 C 
BRANCH  16  17
HETATM   17  N6  UNL     1      60.199  34.105  50.654  1.00  0.00    -0.348 N 
ATOM     18  H6  UNL     1      59.617  33.803  51.436  1.00  0.00     0.163 HD
BRANCH  17  19
HETATM   19  C7  UNL     1      60.483  33.210  49.611  1.00  0.00     0.349 C 
HETATM   20  O2  UNL     1      59.867  32.127  49.541  1.00  0.00    -0.284 OA
ENDBRANCH  17  19
ENDBRANCH  16  17
BRANCH  16  21
HETATM   21  C8  UNL     1      60.375  36.088  51.935  1.00  0.00     0.263 C 
HETATM   22  N7  UNL     1      59.145  36.777  52.076  1.00  0.00    -0.060 NA
HETATM   23  O3  UNL     1      61.126  36.025  52.956  1.00  0.00    -0.274 OA
ENDBRANCH  16  21
ENDBRANCH  13  16
ENDBRANCH   1  12
BRANCH   1  24
HETATM   24  C9  UNL     1      60.480  36.707  46.207  1.00  0.00     0.255 C 
HETATM   25  N8  UNL     1      61.240  37.156  45.102  1.00  0.00    -0.060 NA
HETATM   26  O4  UNL     1      59.948  35.550  46.161  1.00  0.00    -0.275 OA
ENDBRANCH   1  24
TORSDOF 12
ENDMDL
MODEL 5
REMARK VINA RESULT: -6.123638433      2.751      3.952
REMARK  12 active torsions:
REMARK  status: ('A' for Active; 'I' for Inactive)
REMARK    1  A    between atoms: C1_4  and  N2_5 
REMARK    2  A    between atoms: N2_5  and  C2_7 
REMARK    3  A    between atoms: C2_7  and  N3_8 
REMARK    4  A    between atoms: N3_8  and  N4_9 
REMARK    5  A    between atoms: N4_9  and  C3_10 
REMARK    6  A    between atoms: C3_10  and  C4_11 
REMARK    7  A    between atoms: C4_11  and  N5_12 
REMARK    8  A    between atoms: C4_11  and  C9_24 
REMARK       I    between atoms: N5_12  and  C5_14 
REMARK    9  A    between atoms: C5_14  and  C6_16 
REMARK   10  A    between atoms: C6_16  and  N6_17 
REMARK   11  A    between atoms: C6_16  and  C8_21 
REMARK   12  A    between atoms: N6_17  and  C7_19 
ROOT
HETATM    1  C4  UNL     1      60.081  38.261  45.639  1.00  0.00     0.189 C 
ENDROOT
BRANCH   1   2
HETATM    2  C3  UNL     1      59.919  37.225  44.548  1.00  0.00     0.164 C 
BRANCH   2   3
HETATM    3  N4  UNL     1      59.087  36.110  44.969  1.00  0.00    -0.144 NA
BRANCH   3   4
HETATM    4  N3  UNL     1      58.256  35.793  43.899  1.00  0.00    -0.129 NA
BRANCH   4   5
HETATM    5  C2  UNL     1      58.692  36.385  42.658  1.00  0.00     0.251 C 
BRANCH   5   6
HETATM    6  N2  UNL     1      59.011  35.341  41.715  1.00  0.00    -0.372 N 
ATOM      7  H2  UNL     1      59.669  34.611  41.987  1.00  0.00     0.161 HD
BRANCH   6   8
HETATM    8  C1  UNL     1      58.434  35.300  40.419  1.00  0.00     0.169 C 
HETATM    9  N1  UNL     1      58.722  34.362  39.566  1.00  0.00    -0.396 N 
ATOM     10  H12 UNL     1      59.384  33.642  39.851  1.00  0.00     0.156 HD
ATOM     11  H11 UNL     1      58.307  34.333  38.634  1.00  0.00     0.156 HD
ENDBRANCH   6   8
ENDBRANCH   5   6
ENDBRANCH   4   5
ENDBRANCH   3   4
ENDBRANCH   2   3
ENDBRANCH   1   2
BRANCH   1  12
HETATM   12  N5  UNL     1      59.738  37.604  46.886  1.00  0.00    -0.345 N 
HETATM   13  C5  UNL     1      60.552  37.825  48.023  1.00  0.00     0.250 C 
HETATM   14  O1  UNL     1      61.545  38.586  47.909  1.00  0.00    -0.271 OA
ATOM     15  H5  UNL     1      58.924  36.993  46.944  1.00  0.00     0.163 HD
BRANCH  13  16
HETATM   16  C6  UNL     1      60.215  37.160  49.304  1.00  0.00     0.266 C 
BRANCH  16  17
HETATM   17  N6  UNL     1      61.498  36.876  49.976  1.00  0.00    -0.348 N 
ATOM     18  H6  UNL     1      62.375  37.137  49.525  1.00  0.00     0.163 HD
BRANCH  17  19
HETATM   19  C7  UNL     1      61.519  36.247  51.230  1.00  0.00     0.349 C 
HETATM   20  O2  UNL     1      61.870  35.052  51.316  1.00  0.00    -0.284 OA
ENDBRANCH  17  19
ENDBRANCH  16  17
BRANCH  16  21
HETATM   21  C8  UNL     1      59.544  35.845  49.124  1.00  0.00     0.263 C 
HETATM   22  N7  UNL     1      58.400  35.525  49.899  1.00  0.00    -0.060 NA
HETATM   23  O3  UNL     1      59.948  34.973  48.297  1.00  0.00    -0.274 OA
ENDBRANCH  16  21
ENDBRANCH  13  16
ENDBRANCH   1  12
BRANCH   1  24
HETATM   24  C9  UNL     1      59.178  39.410  45.434  1.00  0.00     0.255 C 
HETATM   25  N8  UNL     1      57.886  39.283  44.873  1.00  0.00    -0.060 NA
HETATM   26  O4  UNL     1      59.589  40.565  45.780  1.00  0.00    -0.275 OA
ENDBRANCH   1  24
TORSDOF 12
ENDMDL
