MODEL 1
REMARK VINA RESULT: -6.928320124      0.000      0.000
REMARK  11 active torsions:
REMARK  status: ('A' for Active; 'I' for Inactive)
REMARK    1  A    between atoms: C1_4  and  N2_5 
REMARK    2  A    between atoms: N2_5  and  C2_7 
REMARK    3  A    between atoms: C2_7  and  C3_8 
REMARK    4  A    between atoms: C3_8  and  N3_9 
REMARK    5  A    between atoms: N3_9  and  C4_11 
REMARK    6  A    between atoms: C5_12  and  N4_13 
REMARK    7  A    between atoms: C5_12  and  C7_17 
REMARK    8  A    between atoms: N4_13  and  C6_15 
REMARK       I    between atoms: C7_17  and  N5_19 
REMARK    9  A    between atoms: N5_19  and  C8_21 
REMARK   10  A    between atoms: C8_21  and  C9_22 
REMARK   11  A    between atoms: C8_21  and  C10_25 
ROOT
HETATM    1  C4  UNL     1      60.964  37.123  44.984  1.00  0.00     0.118 C 
HETATM    2  C5  UNL     1      61.099  37.434  46.390  1.00  0.00     0.117 C 
ENDROOT
BRANCH   2   3
HETATM    3  N4  UNL     1      61.292  38.765  46.843  1.00  0.00    -0.329 N 
ATOM      4  H4  UNL     1      62.251  39.092  46.964  1.00  0.00     0.168 HD
BRANCH   3   5
HETATM    5  C6  UNL     1      60.251  39.663  47.136  1.00  0.00     0.353 C 
HETATM    6  O1  UNL     1      59.650  40.291  46.238  1.00  0.00    -0.283 OA
ENDBRANCH   3   5
ENDBRANCH   2   3
BRANCH   2   7
HETATM    7  C7  UNL     1      60.153  36.726  47.298  1.00  0.00     0.270 C 
HETATM    8  O2  UNL     1      58.999  36.494  46.938  1.00  0.00    -0.266 OA
HETATM    9  N5  UNL     1      60.573  36.279  48.603  1.00  0.00    -0.335 N 
ATOM     10  H5  UNL     1      61.505  36.454  48.977  1.00  0.00     0.164 HD
BRANCH   9  11
HETATM   11  C8  UNL     1      59.534  35.546  49.347  1.00  0.00     0.264 C 
BRANCH  11  12
HETATM   12  C9  UNL     1      60.324  34.407  50.015  1.00  0.00     0.262 C 
HETATM   13  N6  UNL     1      61.419  34.666  50.825  1.00  0.00    -0.060 NA
HETATM   14  O3  UNL     1      59.912  33.241  49.789  1.00  0.00    -0.274 OA
ENDBRANCH  11  12
BRANCH  11  15
HETATM   15  C10 UNL     1      58.941  36.358  50.424  1.00  0.00     0.262 C 
HETATM   16  N7  UNL     1      58.129  35.729  51.405  1.00  0.00    -0.060 NA
HETATM   17  O4  UNL     1      59.128  37.587  50.496  1.00  0.00    -0.274 OA
ENDBRANCH  11  15
ENDBRANCH   9  11
ENDBRANCH   2   7
BRANCH   1  18
HETATM   18  N3  UNL     1      59.896  37.729  44.295  1.00  0.00    -0.395 N 
ATOM     19  H3  UNL     1      59.624  38.705  44.417  1.00  0.00     0.159 HD
BRANCH  18  20
HETATM   20  C3  UNL     1      59.236  36.828  43.406  1.00  0.00     0.138 C 
BRANCH  20  21
HETATM   21  C2  UNL     1      58.618  37.530  42.258  1.00  0.00     0.140 C 
BRANCH  21  22
HETATM   22  N2  UNL     1      58.408  36.666  41.106  1.00  0.00    -0.385 N 
ATOM     23  H2  UNL     1      58.008  37.051  40.251  1.00  0.00     0.160 HD
BRANCH  22  24
HETATM   24  C1  UNL     1      58.753  35.292  41.162  1.00  0.00     0.168 C 
HETATM   25  N1  UNL     1      58.749  34.490  40.201  1.00  0.00    -0.396 N 
ATOM     26  H12 UNL     1      58.468  34.878  39.300  1.00  0.00     0.156 HD
ATOM     27  H11 UNL     1      58.998  33.502  40.241  1.00  0.00     0.156 HD
ENDBRANCH  22  24
ENDBRANCH  21  22
ENDBRANCH  20  21
ENDBRANCH  18  20
ENDBRANCH   1  18
TORSDOF 11
ENDMDL
MODEL 2
REMARK VINA RESULT: -6.639056582      2.157      3.189
REMARK  11 active torsions:
REMARK  status: ('A' for Active; 'I' for Inactive)
REMARK    1  A    between atoms: C1_4  and  N2_5 
REMARK    2  A    between atoms: N2_5  and  C2_7 
REMARK    3  A    between atoms: C2_7  and  C3_8 
REMARK    4  A    between atoms: C3_8  and  N3_9 
REMARK    5  A    between atoms: N3_9  and  C4_11 
REMARK    6  A    between atoms: C5_12  and  N4_13 
REMARK    7  A    between atoms: C5_12  and  C7_17 
REMARK    8  A    between atoms: N4_13  and  C6_15 
REMARK       I    between atoms: C7_17  and  N5_19 
REMARK    9  A    between atoms: N5_19  and  C8_21 
REMARK   10  A    between atoms: C8_21  and  C9_22 
REMARK   11  A    between atoms: C8_21  and  C10_25 
ROOT
HETATM    1  C4  UNL     1      60.595  37.373  44.933  1.00  0.00     0.118 C 
HETATM    2  C5  UNL     1      60.928  37.487  46.336  1.00  0.00     0.117 C 
ENDROOT
BRANCH   2   3
HETATM    3  N4  UNL     1      61.296  38.728  46.915  1.00  0.00    -0.329 N 
ATOM      4  H4  UNL     1      62.286  38.976  46.922  1.00  0.00     0.168 HD
BRANCH   3   5
HETATM    5  C6  UNL     1      60.388  39.640  47.482  1.00  0.00     0.353 C 
HETATM    6  O1  UNL     1      59.629  40.339  46.776  1.00  0.00    -0.283 OA
ENDBRANCH   3   5
ENDBRANCH   2   3
BRANCH   2   7
HETATM    7  C7  UNL     1      60.039  36.739  47.269  1.00  0.00     0.270 C 
HETATM    8  O2  UNL     1      58.873  36.499  46.961  1.00  0.00    -0.266 OA
HETATM    9  N5  UNL     1      60.531  36.262  48.539  1.00  0.00    -0.335 N 
ATOM     10  H5  UNL     1      61.478  36.442  48.871  1.00  0.00     0.164 HD
BRANCH   9  11
HETATM   11  C8  UNL     1      59.541  35.494  49.313  1.00  0.00     0.264 C 
BRANCH  11  12
HETATM   12  C9  UNL     1      60.382  34.357  49.920  1.00  0.00     0.262 C 
HETATM   13  N6  UNL     1      60.037  33.026  49.736  1.00  0.00    -0.060 NA
HETATM   14  O3  UNL     1      61.393  34.708  50.579  1.00  0.00    -0.274 OA
ENDBRANCH  11  12
BRANCH  11  15
HETATM   15  C10 UNL     1      58.982  36.271  50.433  1.00  0.00     0.262 C 
HETATM   16  N7  UNL     1      58.287  35.596  51.471  1.00  0.00    -0.060 NA
HETATM   17  O4  UNL     1      59.097  37.510  50.491  1.00  0.00    -0.274 OA
ENDBRANCH  11  15
ENDBRANCH   9  11
ENDBRANCH   2   7
BRANCH   1  18
HETATM   18  N3  UNL     1      59.511  38.142  44.469  1.00  0.00    -0.395 N 
ATOM     19  H3  UNL     1      58.540  37.965  44.727  1.00  0.00     0.159 HD
BRANCH  18  20
HETATM   20  C3  UNL     1      59.919  39.196  43.597  1.00  0.00     0.138 C 
BRANCH  20  21
HETATM   21  C2  UNL     1      58.811  40.129  43.293  1.00  0.00     0.140 C 
BRANCH  21  22
HETATM   22  N2  UNL     1      58.781  41.287  44.175  1.00  0.00    -0.385 N 
ATOM     23  H2  UNL     1      59.539  41.435  44.841  1.00  0.00     0.160 HD
BRANCH  22  24
HETATM   24  C1  UNL     1      57.708  42.211  44.117  1.00  0.00     0.168 C 
HETATM   25  N1  UNL     1      57.558  43.215  44.849  1.00  0.00    -0.396 N 
ATOM     26  H12 UNL     1      58.284  43.368  45.548  1.00  0.00     0.156 HD
ATOM     27  H11 UNL     1      56.785  43.880  44.807  1.00  0.00     0.156 HD
ENDBRANCH  22  24
ENDBRANCH  21  22
ENDBRANCH  20  21
ENDBRANCH  18  20
ENDBRANCH   1  18
TORSDOF 11
ENDMDL
MODEL 3
REMARK VINA RESULT: -6.621686785      2.020      2.933
REMARK  11 active torsions:
REMARK  status: ('A' for Active; 'I' for Inactive)
REMARK    1  A    between atoms: C1_4  and  N2_5 
REMARK    2  A    between atoms: N2_5  and  C2_7 
REMARK    3  A    between atoms: C2_7  and  C3_8 
REMARK    4  A    between atoms: C3_8  and  N3_9 
REMARK    5  A    between atoms: N3_9  and  C4_11 
REMARK    6  A    between atoms: C5_12  and  N4_13 
REMARK    7  A    between atoms: C5_12  and  C7_17 
REMARK    8  A    between atoms: N4_13  and  C6_15 
REMARK       I    between atoms: C7_17  and  N5_19 
REMARK    9  A    between atoms: N5_19  and  C8_21 
REMARK   10  A    between atoms: C8_21  and  C9_22 
REMARK   11  A    between atoms: C8_21  and  C10_25 
ROOT
HETATM    1  C4  UNL     1      60.637  37.332  44.903  1.00  0.00     0.118 C 
HETATM    2  C5  UNL     1      60.944  37.488  46.308  1.00  0.00     0.117 C 
ENDROOT
BRANCH   2   3
HETATM    3  N4  UNL     1      61.282  38.751  46.860  1.00  0.00    -0.329 N 
ATOM      4  H4  UNL     1      62.265  39.023  46.859  1.00  0.00     0.168 HD
BRANCH   3   5
HETATM    5  C6  UNL     1      60.351  39.651  47.409  1.00  0.00     0.353 C 
HETATM    6  O1  UNL     1      59.554  40.293  46.693  1.00  0.00    -0.283 OA
ENDBRANCH   3   5
ENDBRANCH   2   3
BRANCH   2   7
HETATM    7  C7  UNL     1      60.052  36.750  47.246  1.00  0.00     0.270 C 
HETATM    8  O2  UNL     1      58.883  36.518  46.941  1.00  0.00    -0.266 OA
HETATM    9  N5  UNL     1      60.543  36.275  48.516  1.00  0.00    -0.335 N 
ATOM     10  H5  UNL     1      61.492  36.449  48.846  1.00  0.00     0.164 HD
BRANCH   9  11
HETATM   11  C8  UNL     1      59.549  35.516  49.294  1.00  0.00     0.264 C 
BRANCH  11  12
HETATM   12  C9  UNL     1      60.387  34.390  49.925  1.00  0.00     0.262 C 
HETATM   13  N6  UNL     1      60.051  33.055  49.751  1.00  0.00    -0.060 NA
HETATM   14  O3  UNL     1      61.389  34.753  50.592  1.00  0.00    -0.274 OA
ENDBRANCH  11  12
BRANCH  11  15
HETATM   15  C10 UNL     1      58.981  36.309  50.399  1.00  0.00     0.262 C 
HETATM   16  N7  UNL     1      58.224  35.656  51.408  1.00  0.00    -0.060 NA
HETATM   17  O4  UNL     1      59.141  37.542  50.469  1.00  0.00    -0.274 OA
ENDBRANCH  11  15
ENDBRANCH   9  11
ENDBRANCH   2   7
BRANCH   1  18
HETATM   18  N3  UNL     1      59.549  38.070  44.401  1.00  0.00    -0.395 N 
ATOM     19  H3  UNL     1      58.595  37.984  44.754  1.00  0.00     0.159 HD
BRANCH  18  20
HETATM   20  C3  UNL     1      59.925  38.953  43.343  1.00  0.00     0.138 C 
BRANCH  20  21
HETATM   21  C2  UNL     1      59.153  40.215  43.370  1.00  0.00     0.140 C 
BRANCH  21  22
HETATM   22  N2  UNL     1      59.940  41.356  43.817  1.00  0.00    -0.385 N 
ATOM     23  H2  UNL     1      59.468  42.197  44.147  1.00  0.00     0.160 HD
BRANCH  22  24
HETATM   24  C1  UNL     1      61.356  41.307  43.798  1.00  0.00     0.168 C 
HETATM   25  N1  UNL     1      62.103  41.892  42.982  1.00  0.00    -0.396 N 
ATOM     26  H12 UNL     1      61.633  42.452  42.271  1.00  0.00     0.156 HD
ATOM     27  H11 UNL     1      63.123  41.857  42.967  1.00  0.00     0.156 HD
ENDBRANCH  22  24
ENDBRANCH  21  22
ENDBRANCH  20  21
ENDBRANCH  18  20
ENDBRANCH   1  18
TORSDOF 11
ENDMDL
MODEL 4
REMARK VINA RESULT: -6.342892505      2.852      4.159
REMARK  11 active torsions:
REMARK  status: ('A' for Active; 'I' for Inactive)
REMARK    1  A    between atoms: C1_4  and  N2_5 
REMARK    2  A    between atoms: N2_5  and  C2_7 
REMARK    3  A    between atoms: C2_7  and  C3_8 
REMARK    4  A    between atoms: C3_8  and  N3_9 
REMARK    5  A    between atoms: N3_9  and  C4_11 
REMARK    6  A    between atoms: C5_12  and  N4_13 
REMARK    7  A    between atoms: C5_12  and  C7_17 
REMARK    8  A    between atoms: N4_13  and  C6_15 
REMARK       I    between atoms: C7_17  and  N5_19 
REMARK    9  A    between atoms: N5_19  and  C8_21 
REMARK   10  A    between atoms: C8_21  and  C9_22 
REMARK   11  A    between atoms: C8_21  and  C10_25 
ROOT
HETATM    1  C4  UNL     1      59.552  39.137  46.644  1.00  0.00     0.118 C 
HETATM    2  C5  UNL     1      59.362  37.753  47.021  1.00  0.00     0.117 C 
ENDROOT
BRANCH   2   3
HETATM    3  N4  UNL     1      59.405  36.708  46.062  1.00  0.00    -0.329 N 
ATOM      4  H4  UNL     1      58.537  36.465  45.583  1.00  0.00     0.168 HD
BRANCH   3   5
HETATM    5  C6  UNL     1      60.564  35.986  45.728  1.00  0.00     0.353 C 
HETATM    6  O1  UNL     1      61.512  36.511  45.105  1.00  0.00    -0.283 OA
ENDBRANCH   3   5
ENDBRANCH   2   3
BRANCH   2   7
HETATM    7  C7  UNL     1      60.060  37.324  48.265  1.00  0.00     0.270 C 
HETATM    8  O2  UNL     1      61.118  37.855  48.600  1.00  0.00    -0.266 OA
HETATM    9  N5  UNL     1      59.502  36.299  49.112  1.00  0.00    -0.335 N 
ATOM     10  H5  UNL     1      58.642  35.799  48.888  1.00  0.00     0.164 HD
BRANCH   9  11
HETATM   11  C8  UNL     1      60.288  36.036  50.330  1.00  0.00     0.264 C 
BRANCH  11  12
HETATM   12  C9  UNL     1      59.239  36.142  51.450  1.00  0.00     0.262 C 
HETATM   13  N6  UNL     1      59.602  36.452  52.753  1.00  0.00    -0.060 NA
HETATM   14  O3  UNL     1      58.046  35.940  51.111  1.00  0.00    -0.274 OA
ENDBRANCH  11  12
BRANCH  11  15
HETATM   15  C10 UNL     1      60.826  34.665  50.363  1.00  0.00     0.262 C 
HETATM   16  N7  UNL     1      60.094  33.614  49.750  1.00  0.00    -0.060 NA
HETATM   17  O4  UNL     1      61.908  34.400  50.921  1.00  0.00    -0.274 OA
ENDBRANCH  11  15
ENDBRANCH   9  11
ENDBRANCH   2   7
BRANCH   1  18
HETATM   18  N3  UNL     1      60.777  39.471  46.036  1.00  0.00    -0.395 N 
ATOM     19  H3  UNL     1      61.687  39.292  46.461  1.00  0.00     0.159 HD
BRANCH  18  20
HETATM   20  C3  UNL     1      60.606  40.089  44.761  1.00  0.00     0.138 C 
BRANCH  20  21
HETATM   21  C2  UNL     1      59.182  40.355  44.457  1.00  0.00     0.140 C 
BRANCH  21  22
HETATM   22  N2  UNL     1      58.949  41.695  43.937  1.00  0.00    -0.385 N 
ATOM     23  H2  UNL     1      59.685  42.167  43.412  1.00  0.00     0.160 HD
BRANCH  22  24
HETATM   24  C1  UNL     1      57.710  42.348  44.152  1.00  0.00     0.168 C 
HETATM   25  N1  UNL     1      57.524  43.362  44.862  1.00  0.00    -0.396 N 
ATOM     26  H12 UNL     1      58.352  43.740  45.322  1.00  0.00     0.156 HD
ATOM     27  H11 UNL     1      56.632  43.831  45.018  1.00  0.00     0.156 HD
ENDBRANCH  22  24
ENDBRANCH  21  22
ENDBRANCH  20  21
ENDBRANCH  18  20
ENDBRANCH   1  18
TORSDOF 11
ENDMDL
MODEL 5
REMARK VINA RESULT: -6.242623362      2.459      4.242
REMARK  11 active torsions:
REMARK  status: ('A' for Active; 'I' for Inactive)
REMARK    1  A    between atoms: C1_4  and  N2_5 
REMARK    2  A    between atoms: N2_5  and  C2_7 
REMARK    3  A    between atoms: C2_7  and  C3_8 
REMARK    4  A    between atoms: C3_8  and  N3_9 
REMARK    5  A    between atoms: N3_9  and  C4_11 
REMARK    6  A    between atoms: C5_12  and  N4_13 
REMARK    7  A    between atoms: C5_12  and  C7_17 
REMARK    8  A    between atoms: N4_13  and  C6_15 
REMARK       I    between atoms: C7_17  and  N5_19 
REMARK    9  A    between atoms: N5_19  and  C8_21 
REMARK   10  A    between atoms: C8_21  and  C9_22 
REMARK   11  A    between atoms: C8_21  and  C10_25 
ROOT
HETATM    1  C4  UNL     1      59.475  39.123  46.208  1.00  0.00     0.118 C 
HETATM    2  C5  UNL     1      59.541  37.709  46.504  1.00  0.00     0.117 C 
ENDROOT
BRANCH   2   3
HETATM    3  N4  UNL     1      59.979  36.767  45.537  1.00  0.00    -0.329 N 
ATOM      4  H4  UNL     1      60.831  36.241  45.736  1.00  0.00     0.168 HD
BRANCH   3   5
HETATM    5  C6  UNL     1      59.317  36.509  44.324  1.00  0.00     0.353 C 
HETATM    6  O1  UNL     1      58.336  35.737  44.259  1.00  0.00    -0.283 OA
ENDBRANCH   3   5
ENDBRANCH   2   3
BRANCH   2   7
HETATM    7  C7  UNL     1      60.100  37.357  47.839  1.00  0.00     0.270 C 
HETATM    8  O2  UNL     1      61.033  38.004  48.314  1.00  0.00    -0.266 OA
HETATM    9  N5  UNL     1      59.548  36.271  48.611  1.00  0.00    -0.335 N 
ATOM     10  H5  UNL     1      58.790  35.678  48.274  1.00  0.00     0.164 HD
BRANCH   9  11
HETATM   11  C8  UNL     1      60.178  36.095  49.931  1.00  0.00     0.264 C 
BRANCH  11  12
HETATM   12  C9  UNL     1      59.045  36.458  50.907  1.00  0.00     0.262 C 
HETATM   13  N6  UNL     1      58.343  35.479  51.594  1.00  0.00    -0.060 NA
HETATM   14  O3  UNL     1      58.806  37.684  51.046  1.00  0.00    -0.274 OA
ENDBRANCH  11  12
BRANCH  11  15
HETATM   15  C10 UNL     1      60.547  34.693  50.191  1.00  0.00     0.262 C 
HETATM   16  N7  UNL     1      61.600  34.406  51.100  1.00  0.00    -0.060 NA
HETATM   17  O4  UNL     1      59.963  33.747  49.629  1.00  0.00    -0.274 OA
ENDBRANCH  11  15
ENDBRANCH   9  11
ENDBRANCH   2   7
BRANCH   1  18
HETATM   18  N3  UNL     1      60.678  39.756  45.838  1.00  0.00    -0.395 N 
ATOM     19  H3  UNL     1      61.493  39.823  46.448  1.00  0.00     0.159 HD
BRANCH  18  20
HETATM   20  C3  UNL     1      60.630  40.294  44.517  1.00  0.00     0.138 C 
BRANCH  20  21
HETATM   21  C2  UNL     1      59.243  40.422  44.017  1.00  0.00     0.140 C 
BRANCH  21  22
HETATM   22  N2  UNL     1      58.885  41.790  43.669  1.00  0.00    -0.385 N 
ATOM     23  H2  UNL     1      59.514  42.344  43.089  1.00  0.00     0.160 HD
BRANCH  22  24
HETATM   24  C1  UNL     1      57.671  42.357  44.129  1.00  0.00     0.168 C 
HETATM   25  N1  UNL     1      57.559  43.317  44.923  1.00  0.00    -0.396 N 
ATOM     26  H12 UNL     1      58.433  43.718  45.261  1.00  0.00     0.156 HD
ATOM     27  H11 UNL     1      56.685  43.725  45.254  1.00  0.00     0.156 HD
ENDBRANCH  22  24
ENDBRANCH  21  22
ENDBRANCH  20  21
ENDBRANCH  18  20
ENDBRANCH   1  18
TORSDOF 11
ENDMDL
