MODEL 1
REMARK VINA RESULT: -6.402318167      0.000      0.000
REMARK  14 active torsions:
REMARK  status: ('A' for Active; 'I' for Inactive)
REMARK    1  A    between atoms: N2_4  and  N3_6 
REMARK    2  A    between atoms: N3_6  and  C1_8 
REMARK    3  A    between atoms: C1_8  and  C2_9 
REMARK    4  A    between atoms: C2_9  and  N4_10 
REMARK    5  A    between atoms: C3_12  and  C4_14 
REMARK    6  A    between atoms: C4_14  and  N6_15 
REMARK    7  A    between atoms: C4_14  and  C5_19 
REMARK    8  A    between atoms: C5_19  and  C6_20 
REMARK    9  A    between atoms: C5_19  and  N8_25 
REMARK   10  A    between atoms: C6_20  and  N7_21 
REMARK   11  A    between atoms: N8_25  and  C7_27 
REMARK   12  A    between atoms: C7_27  and  C8_28 
REMARK   13  A    between atoms: C8_28  and  N9_29 
REMARK   14  A    between atoms: C8_28  and  C9_33 
ROOT
HETATM    1  C4  UNL     1      60.920  37.306  45.506  1.00  0.00     0.294 C 
ENDROOT
BRANCH   1   2
HETATM    2  C3  UNL     1      59.618  37.070  44.850  1.00  0.00     0.125 C 
HETATM    3  N4  UNL     1      59.585  36.365  43.785  1.00  0.00    -0.378 N 
ATOM      4  H4  UNL     1      60.464  35.994  43.425  1.00  0.00     0.160 HD
HETATM    5  N5  UNL     1      58.419  37.601  45.373  1.00  0.00    -0.085 NA
BRANCH   3   6
HETATM    6  C2  UNL     1      58.367  36.066  43.062  1.00  0.00     0.141 C 
BRANCH   6   7
HETATM    7  C1  UNL     1      58.676  36.084  41.589  1.00  0.00     0.160 C 
BRANCH   7   8
HETATM    8  N3  UNL     1      58.697  34.755  41.039  1.00  0.00    -0.321 N 
ATOM      9  H3  UNL     1      58.513  33.943  41.628  1.00  0.00     0.181 HD
BRANCH   8  10
HETATM   10  N2  UNL     1      58.971  34.602  39.688  1.00  0.00    -0.254 N 
HETATM   11  N1  UNL     1      58.114  34.074  38.935  1.00  0.00    -0.331 N 
ATOM     12  H12 UNL     1      57.227  33.764  39.332  1.00  0.00     0.178 HD
ATOM     13  H11 UNL     1      58.316  33.962  37.942  1.00  0.00     0.178 HD
ATOM     14  H2  UNL     1      59.864  34.917  39.307  1.00  0.00     0.207 HD
ENDBRANCH   8  10
ENDBRANCH   7   8
ENDBRANCH   6   7
ENDBRANCH   3   6
ENDBRANCH   1   2
BRANCH   1  15
HETATM   15  N6  UNL     1      61.750  36.172  45.145  1.00  0.00    -0.063 N 
ATOM     16  H63 UNL     1      61.411  35.658  44.330  1.00  0.00     0.275 HD
ATOM     17  H62 UNL     1      62.655  36.434  44.754  1.00  0.00     0.275 HD
ATOM     18  H61 UNL     1      61.818  35.602  45.988  1.00  0.00     0.275 HD
ENDBRANCH   1  15
BRANCH   1  19
HETATM   19  C5  UNL     1      60.811  37.345  47.003  1.00  0.00     0.049 C 
BRANCH  19  20
HETATM   20  C6  UNL     1      61.054  38.737  47.513  1.00  0.00     0.284 C 
BRANCH  20  21
HETATM   21  N7  UNL     1      59.835  39.552  47.316  1.00  0.00    -0.074 N 
ATOM     22  H73 UNL     1      59.776  40.326  47.976  1.00  0.00     0.274 HD
ATOM     23  H72 UNL     1      59.870  40.098  46.455  1.00  0.00     0.274 HD
ATOM     24  H71 UNL     1      59.014  38.947  47.355  1.00  0.00     0.274 HD
ENDBRANCH  20  21
ENDBRANCH  19  20
BRANCH  19  25
HETATM   25  N8  UNL     1      59.900  36.613  47.670  1.00  0.00    -0.370 N 
ATOM     26  H8  UNL     1      58.959  36.982  47.534  1.00  0.00     0.164 HD
BRANCH  25  27
HETATM   27  C7  UNL     1      59.888  35.527  48.469  1.00  0.00     0.102 C 
BRANCH  27  28
HETATM   28  C8  UNL     1      60.163  35.626  49.947  1.00  0.00     0.310 C 
BRANCH  28  29
HETATM   29  N9  UNL     1      61.422  36.156  50.325  1.00  0.00    -0.062 N 
ATOM     30  H93 UNL     1      61.366  36.529  51.273  1.00  0.00     0.275 HD
ATOM     31  H92 UNL     1      62.086  35.395  50.463  1.00  0.00     0.275 HD
ATOM     32  H91 UNL     1      61.828  36.856  49.704  1.00  0.00     0.275 HD
ENDBRANCH  28  29
BRANCH  28  33
HETATM   33  C9  UNL     1      59.106  36.436  50.608  1.00  0.00     0.266 C 
HETATM   34  N10 UNL     1      58.144  35.809  51.416  1.00  0.00    -0.060 NA
HETATM   35  O1  UNL     1      59.084  37.665  50.437  1.00  0.00    -0.274 OA
ENDBRANCH  28  33
ENDBRANCH  27  28
ENDBRANCH  25  27
ENDBRANCH  19  25
ENDBRANCH   1  19
TORSDOF 14
ENDMDL
MODEL 2
REMARK VINA RESULT: -6.348599771      3.249      7.292
REMARK  14 active torsions:
REMARK  status: ('A' for Active; 'I' for Inactive)
REMARK    1  A    between atoms: N2_4  and  N3_6 
REMARK    2  A    between atoms: N3_6  and  C1_8 
REMARK    3  A    between atoms: C1_8  and  C2_9 
REMARK    4  A    between atoms: C2_9  and  N4_10 
REMARK    5  A    between atoms: C3_12  and  C4_14 
REMARK    6  A    between atoms: C4_14  and  N6_15 
REMARK    7  A    between atoms: C4_14  and  C5_19 
REMARK    8  A    between atoms: C5_19  and  C6_20 
REMARK    9  A    between atoms: C5_19  and  N8_25 
REMARK   10  A    between atoms: C6_20  and  N7_21 
REMARK   11  A    between atoms: N8_25  and  C7_27 
REMARK   12  A    between atoms: C7_27  and  C8_28 
REMARK   13  A    between atoms: C8_28  and  N9_29 
REMARK   14  A    between atoms: C8_28  and  C9_33 
ROOT
HETATM    1  C4  UNL     1      59.817  36.563  47.418  1.00  0.00     0.294 C 
ENDROOT
BRANCH   1   2
HETATM    2  C3  UNL     1      59.874  36.868  48.861  1.00  0.00     0.125 C 
HETATM    3  N4  UNL     1      58.880  36.550  49.597  1.00  0.00    -0.378 N 
ATOM      4  H4  UNL     1      58.078  36.098  49.156  1.00  0.00     0.160 HD
HETATM    5  N5  UNL     1      60.997  37.497  49.441  1.00  0.00    -0.085 NA
BRANCH   3   6
HETATM    6  C2  UNL     1      58.828  36.796  51.023  1.00  0.00     0.141 C 
BRANCH   6   7
HETATM    7  C1  UNL     1      59.381  35.589  51.731  1.00  0.00     0.160 C 
BRANCH   7   8
HETATM    8  N3  UNL     1      60.526  35.927  52.533  1.00  0.00    -0.321 N 
ATOM      9  H3  UNL     1      60.429  36.104  53.533  1.00  0.00     0.181 HD
BRANCH   8  10
HETATM   10  N2  UNL     1      61.766  36.007  51.917  1.00  0.00    -0.254 N 
HETATM   11  N1  UNL     1      62.105  35.126  51.086  1.00  0.00    -0.331 N 
ATOM     12  H12 UNL     1      61.460  34.364  50.878  1.00  0.00     0.178 HD
ATOM     13  H11 UNL     1      63.017  35.184  50.633  1.00  0.00     0.178 HD
ATOM     14  H2  UNL     1      62.399  36.776  52.136  1.00  0.00     0.207 HD
ENDBRANCH   8  10
ENDBRANCH   7   8
ENDBRANCH   6   7
ENDBRANCH   3   6
ENDBRANCH   1   2
BRANCH   1  15
HETATM   15  N6  UNL     1      60.150  35.155  47.304  1.00  0.00    -0.063 N 
ATOM     16  H63 UNL     1      61.091  34.928  47.628  1.00  0.00     0.275 HD
ATOM     17  H62 UNL     1      59.648  34.560  47.964  1.00  0.00     0.275 HD
ATOM     18  H61 UNL     1      59.985  34.912  46.327  1.00  0.00     0.275 HD
ENDBRANCH   1  15
BRANCH   1  19
HETATM   19  C5  UNL     1      60.822  37.345  46.623  1.00  0.00     0.049 C 
BRANCH  19  20
HETATM   20  C6  UNL     1      61.188  36.610  45.366  1.00  0.00     0.284 C 
BRANCH  20  21
HETATM   21  N7  UNL     1      60.170  36.877  44.326  1.00  0.00    -0.074 N 
ATOM     22  H73 UNL     1      59.511  37.602  44.609  1.00  0.00     0.274 HD
ATOM     23  H72 UNL     1      60.564  37.347  43.512  1.00  0.00     0.274 HD
ATOM     24  H71 UNL     1      59.702  36.005  44.079  1.00  0.00     0.274 HD
ENDBRANCH  20  21
ENDBRANCH  19  20
BRANCH  19  25
HETATM   25  N8  UNL     1      60.773  38.687  46.539  1.00  0.00    -0.370 N 
ATOM     26  H8  UNL     1      61.696  39.080  46.352  1.00  0.00     0.164 HD
BRANCH  25  27
HETATM   27  C7  UNL     1      59.841  39.657  46.635  1.00  0.00     0.102 C 
BRANCH  27  28
HETATM   28  C8  UNL     1      58.996  40.065  45.456  1.00  0.00     0.310 C 
BRANCH  28  29
HETATM   29  N9  UNL     1      57.927  40.957  45.718  1.00  0.00    -0.062 N 
ATOM     30  H93 UNL     1      57.246  40.505  46.328  1.00  0.00     0.275 HD
ATOM     31  H92 UNL     1      58.251  41.710  46.325  1.00  0.00     0.275 HD
ATOM     32  H91 UNL     1      57.452  41.352  44.907  1.00  0.00     0.275 HD
ENDBRANCH  28  29
BRANCH  28  33
HETATM   33  C9  UNL     1      59.852  40.670  44.401  1.00  0.00     0.266 C 
HETATM   34  N10 UNL     1      60.820  39.888  43.749  1.00  0.00    -0.060 NA
HETATM   35  O1  UNL     1      59.703  41.866  44.109  1.00  0.00    -0.274 OA
ENDBRANCH  28  33
ENDBRANCH  27  28
ENDBRANCH  25  27
ENDBRANCH  19  25
ENDBRANCH   1  19
TORSDOF 14
ENDMDL
MODEL 3
REMARK VINA RESULT: -6.339935600      3.277      6.962
REMARK  14 active torsions:
REMARK  status: ('A' for Active; 'I' for Inactive)
REMARK    1  A    between atoms: N2_4  and  N3_6 
REMARK    2  A    between atoms: N3_6  and  C1_8 
REMARK    3  A    between atoms: C1_8  and  C2_9 
REMARK    4  A    between atoms: C2_9  and  N4_10 
REMARK    5  A    between atoms: C3_12  and  C4_14 
REMARK    6  A    between atoms: C4_14  and  N6_15 
REMARK    7  A    between atoms: C4_14  and  C5_19 
REMARK    8  A    between atoms: C5_19  and  C6_20 
REMARK    9  A    between atoms: C5_19  and  N8_25 
REMARK   10  A    between atoms: C6_20  and  N7_21 
REMARK   11  A    between atoms: N8_25  and  C7_27 
REMARK   12  A    between atoms: C7_27  and  C8_28 
REMARK   13  A    between atoms: C8_28  and  N9_29 
REMARK   14  A    between atoms: C8_28  and  C9_33 
ROOT
HETATM    1  C4  UNL     1      60.962  37.312  47.436  1.00  0.00     0.294 C 
ENDROOT
BRANCH   1   2
HETATM    2  C3  UNL     1      60.148  36.723  48.517  1.00  0.00     0.125 C 
HETATM    3  N4  UNL     1      59.760  37.475  49.474  1.00  0.00    -0.378 N 
ATOM      4  H4  UNL     1      60.034  38.457  49.457  1.00  0.00     0.160 HD
HETATM    5  N5  UNL     1      59.788  35.358  48.512  1.00  0.00    -0.085 NA
BRANCH   3   6
HETATM    6  C2  UNL     1      58.955  37.007  50.583  1.00  0.00     0.141 C 
BRANCH   6   7
HETATM    7  C1  UNL     1      59.879  36.522  51.667  1.00  0.00     0.160 C 
BRANCH   7   8
HETATM    8  N3  UNL     1      59.913  35.085  51.728  1.00  0.00    -0.321 N 
ATOM      9  H3  UNL     1      59.127  34.562  52.114  1.00  0.00     0.181 HD
BRANCH   8  10
HETATM   10  N2  UNL     1      61.037  34.428  51.251  1.00  0.00    -0.254 N 
HETATM   11  N1  UNL     1      62.085  35.081  51.015  1.00  0.00    -0.331 N 
ATOM     12  H12 UNL     1      62.092  36.088  51.179  1.00  0.00     0.178 HD
ATOM     13  H11 UNL     1      62.912  34.598  50.664  1.00  0.00     0.178 HD
ATOM     14  H2  UNL     1      61.013  33.421  51.093  1.00  0.00     0.207 HD
ENDBRANCH   8  10
ENDBRANCH   7   8
ENDBRANCH   6   7
ENDBRANCH   3   6
ENDBRANCH   1   2
BRANCH   1  15
HETATM   15  N6  UNL     1      61.208  38.685  47.836  1.00  0.00    -0.063 N 
ATOM     16  H63 UNL     1      61.858  38.774  48.618  1.00  0.00     0.275 HD
ATOM     17  H62 UNL     1      61.757  39.217  47.161  1.00  0.00     0.275 HD
ATOM     18  H61 UNL     1      60.288  39.085  48.022  1.00  0.00     0.275 HD
ENDBRANCH   1  15
BRANCH   1  19
HETATM   19  C5  UNL     1      60.243  37.333  46.118  1.00  0.00     0.049 C 
BRANCH  19  20
HETATM   20  C6  UNL     1      60.649  36.157  45.276  1.00  0.00     0.284 C 
BRANCH  20  21
HETATM   21  N7  UNL     1      62.120  36.009  45.318  1.00  0.00    -0.074 N 
ATOM     22  H73 UNL     1      62.475  35.459  44.535  1.00  0.00     0.274 HD
ATOM     23  H72 UNL     1      62.603  36.883  45.112  1.00  0.00     0.274 HD
ATOM     24  H71 UNL     1      62.396  35.619  46.220  1.00  0.00     0.274 HD
ENDBRANCH  20  21
ENDBRANCH  19  20
BRANCH  19  25
HETATM   25  N8  UNL     1      58.961  37.730  46.014  1.00  0.00    -0.370 N 
ATOM     26  H8  UNL     1      58.435  37.506  46.857  1.00  0.00     0.164 HD
BRANCH  25  27
HETATM   27  C7  UNL     1      58.181  38.343  45.100  1.00  0.00     0.102 C 
BRANCH  27  28
HETATM   28  C8  UNL     1      58.385  39.787  44.723  1.00  0.00     0.310 C 
BRANCH  28  29
HETATM   29  N9  UNL     1      57.225  40.600  44.670  1.00  0.00    -0.062 N 
ATOM     30  H93 UNL     1      56.418  40.028  44.419  1.00  0.00     0.275 HD
ATOM     31  H92 UNL     1      56.965  40.887  45.613  1.00  0.00     0.275 HD
ATOM     32  H91 UNL     1      57.268  41.418  44.062  1.00  0.00     0.275 HD
ENDBRANCH  28  29
BRANCH  28  33
HETATM   33  C9  UNL     1      59.351  40.425  45.656  1.00  0.00     0.266 C 
HETATM   34  N10 UNL     1      60.674  40.658  45.244  1.00  0.00    -0.060 NA
HETATM   35  O1  UNL     1      58.977  40.745  46.794  1.00  0.00    -0.274 OA
ENDBRANCH  28  33
ENDBRANCH  27  28
ENDBRANCH  25  27
ENDBRANCH  19  25
ENDBRANCH   1  19
TORSDOF 14
ENDMDL
MODEL 4
REMARK VINA RESULT: -6.335341802      3.816      7.295
REMARK  14 active torsions:
REMARK  status: ('A' for Active; 'I' for Inactive)
REMARK    1  A    between atoms: N2_4  and  N3_6 
REMARK    2  A    between atoms: N3_6  and  C1_8 
REMARK    3  A    between atoms: C1_8  and  C2_9 
REMARK    4  A    between atoms: C2_9  and  N4_10 
REMARK    5  A    between atoms: C3_12  and  C4_14 
REMARK    6  A    between atoms: C4_14  and  N6_15 
REMARK    7  A    between atoms: C4_14  and  C5_19 
REMARK    8  A    between atoms: C5_19  and  C6_20 
REMARK    9  A    between atoms: C5_19  and  N8_25 
REMARK   10  A    between atoms: C6_20  and  N7_21 
REMARK   11  A    between atoms: N8_25  and  C7_27 
REMARK   12  A    between atoms: C7_27  and  C8_28 
REMARK   13  A    between atoms: C8_28  and  N9_29 
REMARK   14  A    between atoms: C8_28  and  C9_33 
ROOT
HETATM    1  C4  UNL     1      59.500  36.492  47.588  1.00  0.00     0.294 C 
ENDROOT
BRANCH   1   2
HETATM    2  C3  UNL     1      59.442  35.902  48.941  1.00  0.00     0.125 C 
HETATM    3  N4  UNL     1      58.827  36.537  49.863  1.00  0.00    -0.378 N 
ATOM      4  H4  UNL     1      58.401  37.433  49.629  1.00  0.00     0.160 HD
HETATM    5  N5  UNL     1      60.046  34.659  49.232  1.00  0.00    -0.085 NA
BRANCH   3   6
HETATM    6  C2  UNL     1      58.703  36.052  51.222  1.00  0.00     0.141 C 
BRANCH   6   7
HETATM    7  C1  UNL     1      59.891  36.538  52.006  1.00  0.00     0.160 C 
BRANCH   7   8
HETATM    8  N3  UNL     1      60.738  35.448  52.412  1.00  0.00    -0.321 N 
ATOM      9  H3  UNL     1      60.522  34.903  53.246  1.00  0.00     0.181 HD
BRANCH   8  10
HETATM   10  N2  UNL     1      61.853  35.154  51.642  1.00  0.00    -0.254 N 
HETATM   11  N1  UNL     1      62.354  36.045  50.909  1.00  0.00    -0.331 N 
ATOM     12  H12 UNL     1      61.931  36.973  50.893  1.00  0.00     0.178 HD
ATOM     13  H11 UNL     1      63.175  35.829  50.343  1.00  0.00     0.178 HD
ATOM     14  H2  UNL     1      62.264  34.222  51.670  1.00  0.00     0.207 HD
ENDBRANCH   8  10
ENDBRANCH   7   8
ENDBRANCH   6   7
ENDBRANCH   3   6
ENDBRANCH   1   2
BRANCH   1  15
HETATM   15  N6  UNL     1      60.604  35.827  46.920  1.00  0.00    -0.063 N 
ATOM     16  H63 UNL     1      61.473  36.361  46.935  1.00  0.00     0.275 HD
ATOM     17  H62 UNL     1      60.954  35.011  47.420  1.00  0.00     0.275 HD
ATOM     18  H61 UNL     1      60.268  35.618  45.980  1.00  0.00     0.275 HD
ENDBRANCH   1  15
BRANCH   1  19
HETATM   19  C5  UNL     1      59.789  37.964  47.614  1.00  0.00     0.049 C 
BRANCH  19  20
HETATM   20  C6  UNL     1      61.243  38.212  47.900  1.00  0.00     0.284 C 
BRANCH  20  21
HETATM   21  N7  UNL     1      61.600  39.583  47.474  1.00  0.00    -0.074 N 
ATOM     22  H73 UNL     1      62.604  39.696  47.337  1.00  0.00     0.274 HD
ATOM     23  H72 UNL     1      61.300  39.781  46.519  1.00  0.00     0.274 HD
ATOM     24  H71 UNL     1      61.224  40.254  48.143  1.00  0.00     0.274 HD
ENDBRANCH  20  21
ENDBRANCH  19  20
BRANCH  19  25
HETATM   25  N8  UNL     1      59.191  38.822  46.766  1.00  0.00    -0.370 N 
ATOM     26  H8  UNL     1      59.054  39.734  47.199  1.00  0.00     0.164 HD
BRANCH  25  27
HETATM   27  C7  UNL     1      58.724  38.806  45.501  1.00  0.00     0.102 C 
BRANCH  27  28
HETATM   28  C8  UNL     1      58.613  40.065  44.680  1.00  0.00     0.310 C 
BRANCH  28  29
HETATM   29  N9  UNL     1      57.846  41.120  45.235  1.00  0.00    -0.062 N 
ATOM     30  H93 UNL     1      56.931  41.150  44.784  1.00  0.00     0.275 HD
ATOM     31  H92 UNL     1      57.577  40.882  46.189  1.00  0.00     0.275 HD
ATOM     32  H91 UNL     1      58.267  42.049  45.219  1.00  0.00     0.275 HD
ENDBRANCH  28  29
BRANCH  28  33
HETATM   33  C9  UNL     1      59.969  40.594  44.375  1.00  0.00     0.266 C 
HETATM   34  N10 UNL     1      60.121  41.916  43.924  1.00  0.00    -0.060 NA
HETATM   35  O1  UNL     1      60.957  39.858  44.521  1.00  0.00    -0.274 OA
ENDBRANCH  28  33
ENDBRANCH  27  28
ENDBRANCH  25  27
ENDBRANCH  19  25
ENDBRANCH   1  19
TORSDOF 14
ENDMDL
MODEL 5
REMARK VINA RESULT: -6.298120107      3.279      6.845
REMARK  14 active torsions:
REMARK  status: ('A' for Active; 'I' for Inactive)
REMARK    1  A    between atoms: N2_4  and  N3_6 
REMARK    2  A    between atoms: N3_6  and  C1_8 
REMARK    3  A    between atoms: C1_8  and  C2_9 
REMARK    4  A    between atoms: C2_9  and  N4_10 
REMARK    5  A    between atoms: C3_12  and  C4_14 
REMARK    6  A    between atoms: C4_14  and  N6_15 
REMARK    7  A    between atoms: C4_14  and  C5_19 
REMARK    8  A    between atoms: C5_19  and  C6_20 
REMARK    9  A    between atoms: C5_19  and  N8_25 
REMARK   10  A    between atoms: C6_20  and  N7_21 
REMARK   11  A    between atoms: N8_25  and  C7_27 
REMARK   12  A    between atoms: C7_27  and  C8_28 
REMARK   13  A    between atoms: C8_28  and  N9_29 
REMARK   14  A    between atoms: C8_28  and  C9_33 
ROOT
HETATM    1  C4  UNL     1      61.072  37.520  47.090  1.00  0.00     0.294 C 
ENDROOT
BRANCH   1   2
HETATM    2  C3  UNL     1      60.315  36.920  48.206  1.00  0.00     0.125 C 
HETATM    3  N4  UNL     1      60.215  35.648  48.268  1.00  0.00    -0.378 N 
ATOM      4  H4  UNL     1      60.660  35.093  47.538  1.00  0.00     0.160 HD
HETATM    5  N5  UNL     1      59.707  37.717  49.201  1.00  0.00    -0.085 NA
BRANCH   3   6
HETATM    6  C2  UNL     1      59.502  34.952  49.319  1.00  0.00     0.141 C 
BRANCH   6   7
HETATM    7  C1  UNL     1      60.431  33.937  49.928  1.00  0.00     0.160 C 
BRANCH   7   8
HETATM    8  N3  UNL     1      60.966  34.398  51.182  1.00  0.00    -0.321 N 
ATOM      9  H3  UNL     1      60.462  34.238  52.054  1.00  0.00     0.181 HD
BRANCH   8  10
HETATM   10  N2  UNL     1      62.183  35.063  51.178  1.00  0.00    -0.254 N 
HETATM   11  N1  UNL     1      62.206  36.316  51.072  1.00  0.00    -0.331 N 
ATOM     12  H12 UNL     1      61.326  36.825  50.990  1.00  0.00     0.178 HD
ATOM     13  H11 UNL     1      63.100  36.805  51.069  1.00  0.00     0.178 HD
ATOM     14  H2  UNL     1      63.054  34.539  51.260  1.00  0.00     0.207 HD
ENDBRANCH   8  10
ENDBRANCH   7   8
ENDBRANCH   6   7
ENDBRANCH   3   6
ENDBRANCH   1   2
BRANCH   1  15
HETATM   15  N6  UNL     1      61.319  38.896  47.481  1.00  0.00    -0.063 N 
ATOM     16  H63 UNL     1      61.988  39.379  46.880  1.00  0.00     0.275 HD
ATOM     17  H62 UNL     1      60.530  39.519  47.310  1.00  0.00     0.275 HD
ATOM     18  H61 UNL     1      61.604  38.855  48.460  1.00  0.00     0.275 HD
ENDBRANCH   1  15
BRANCH   1  19
HETATM   19  C5  UNL     1      60.293  37.534  45.807  1.00  0.00     0.049 C 
BRANCH  19  20
HETATM   20  C6  UNL     1      60.701  36.385  44.929  1.00  0.00     0.284 C 
BRANCH  20  21
HETATM   21  N7  UNL     1      62.095  36.001  45.240  1.00  0.00    -0.074 N 
ATOM     22  H73 UNL     1      62.418  36.398  46.122  1.00  0.00     0.274 HD
ATOM     23  H72 UNL     1      62.179  35.015  45.485  1.00  0.00     0.274 HD
ATOM     24  H71 UNL     1      62.699  36.257  44.458  1.00  0.00     0.274 HD
ENDBRANCH  20  21
ENDBRANCH  19  20
BRANCH  19  25
HETATM   25  N8  UNL     1      58.994  37.886  45.767  1.00  0.00    -0.370 N 
ATOM     26  H8  UNL     1      58.518  37.642  46.634  1.00  0.00     0.164 HD
BRANCH  25  27
HETATM   27  C7  UNL     1      58.150  38.474  44.895  1.00  0.00     0.102 C 
BRANCH  27  28
HETATM   28  C8  UNL     1      58.275  39.929  44.527  1.00  0.00     0.310 C 
BRANCH  28  29
HETATM   29  N9  UNL     1      57.078  40.688  44.518  1.00  0.00    -0.062 N 
ATOM     30  H93 UNL     1      56.940  41.120  45.432  1.00  0.00     0.275 HD
ATOM     31  H92 UNL     1      57.203  41.517  43.937  1.00  0.00     0.275 HD
ATOM     32  H91 UNL     1      56.229  40.198  44.238  1.00  0.00     0.275 HD
ENDBRANCH  28  29
BRANCH  28  33
HETATM   33  C9  UNL     1      59.240  40.603  45.436  1.00  0.00     0.266 C 
HETATM   34  N10 UNL     1      60.529  40.922  44.980  1.00  0.00    -0.060 NA
HETATM   35  O1  UNL     1      58.893  40.876  46.596  1.00  0.00    -0.274 OA
ENDBRANCH  28  33
ENDBRANCH  27  28
ENDBRANCH  25  27
ENDBRANCH  19  25
ENDBRANCH   1  19
TORSDOF 14
ENDMDL
