MODEL 1
REMARK VINA RESULT: -4.205703421      0.000      0.000
REMARK  6 active torsions:
REMARK  status: ('A' for Active; 'I' for Inactive)
REMARK    1  A    between atoms: N1_2  and  C2_4 
REMARK    2  A    between atoms: C2_4  and  C3_5 
REMARK    3  A    between atoms: C4_9  and  N3_10 
REMARK    4  A    between atoms: C5_14  and  C6_15 
REMARK    5  A    between atoms: C6_15  and  N4_16 
REMARK    6  A    between atoms: C7_20  and  N5_21 
ROOT
HETATM    1  C3  UNL     1       6.732   6.976  24.375  1.00  0.00     0.236 C 
HETATM    2  N2  UNL     1       5.762   7.669  25.185  1.00  0.00    -0.038 N 
ATOM      3  H21 UNL     1       6.189   8.223  25.927  1.00  0.00     0.280 HD
ATOM      4  H22 UNL     1       5.220   7.041  25.779  1.00  0.00     0.280 HD
HETATM    5  C4  UNL     1       4.932   8.460  24.299  1.00  0.00     0.388 C 
HETATM    6  C5  UNL     1       4.951   7.777  22.989  1.00  0.00     0.101 C 
HETATM    7  C7  UNL     1       6.269   6.992  22.969  1.00  0.00     0.225 C 
ENDROOT
BRANCH   6   8
HETATM    8  C6  UNL     1       4.846   8.655  21.777  1.00  0.00     0.240 C 
BRANCH   8   9
HETATM    9  N4  UNL     1       5.954   8.596  20.879  1.00  0.00    -0.079 N 
ATOM     10  H43 UNL     1       6.162   7.626  20.645  1.00  0.00     0.274 HD
ATOM     11  H42 UNL     1       5.679   8.948  19.962  1.00  0.00     0.274 HD
ATOM     12  H41 UNL     1       6.799   9.069  21.195  1.00  0.00     0.274 HD
ENDBRANCH   8   9
ENDBRANCH   6   8
BRANCH   5  13
HETATM   13  N3  UNL     1       5.294   9.803  24.348  1.00  0.00    -0.050 N 
ATOM     14  H33 UNL     1       5.487  10.107  25.302  1.00  0.00     0.276 HD
ATOM     15  H32 UNL     1       6.219   9.959  23.946  1.00  0.00     0.276 HD
ATOM     16  H31 UNL     1       4.586  10.387  23.902  1.00  0.00     0.276 HD
ENDBRANCH   5  13
BRANCH   7  17
HETATM   17  N5  UNL     1       5.957   5.655  22.458  1.00  0.00    -0.072 N 
ATOM     18  H53 UNL     1       6.632   4.969  22.796  1.00  0.00     0.274 HD
ATOM     19  H52 UNL     1       5.113   5.285  22.894  1.00  0.00     0.274 HD
ATOM     20  H51 UNL     1       5.886   5.627  21.441  1.00  0.00     0.274 HD
ENDBRANCH   7  17
BRANCH   1  21
HETATM   21  C2  UNL     1       8.089   7.525  24.624  1.00  0.00     0.148 C 
BRANCH  21  22
HETATM   22  N1  UNL     1       9.179   6.695  24.231  1.00  0.00    -0.423 N 
HETATM   23  C1  UNL     1       9.112   5.339  24.682  1.00  0.00     0.139 C 
ATOM     24  H1  UNL     1       9.954   7.044  23.666  1.00  0.00     0.152 HD
ENDBRANCH  21  22
ENDBRANCH   1  21
TORSDOF 6
ENDMDL
MODEL 2
REMARK VINA RESULT: -4.160981127      0.981      1.251
REMARK  6 active torsions:
REMARK  status: ('A' for Active; 'I' for Inactive)
REMARK    1  A    between atoms: N1_2  and  C2_4 
REMARK    2  A    between atoms: C2_4  and  C3_5 
REMARK    3  A    between atoms: C4_9  and  N3_10 
REMARK    4  A    between atoms: C5_14  and  C6_15 
REMARK    5  A    between atoms: C6_15  and  N4_16 
REMARK    6  A    between atoms: C7_20  and  N5_21 
ROOT
HETATM    1  C3  UNL     1       6.760   6.966  24.356  1.00  0.00     0.236 C 
HETATM    2  N2  UNL     1       5.793   7.656  25.171  1.00  0.00    -0.038 N 
ATOM      3  H21 UNL     1       6.223   8.210  25.912  1.00  0.00     0.280 HD
ATOM      4  H22 UNL     1       5.256   7.027  25.767  1.00  0.00     0.280 HD
HETATM    5  C4  UNL     1       4.958   8.447  24.290  1.00  0.00     0.388 C 
HETATM    6  C5  UNL     1       4.972   7.766  22.980  1.00  0.00     0.101 C 
HETATM    7  C7  UNL     1       6.291   6.982  22.952  1.00  0.00     0.225 C 
ENDROOT
BRANCH   6   8
HETATM    8  C6  UNL     1       4.860   8.645  21.769  1.00  0.00     0.240 C 
BRANCH   8   9
HETATM    9  N4  UNL     1       5.966   8.594  20.869  1.00  0.00    -0.079 N 
ATOM     10  H43 UNL     1       6.283   7.630  20.760  1.00  0.00     0.274 HD
ATOM     11  H42 UNL     1       5.652   8.788  19.918  1.00  0.00     0.274 HD
ATOM     12  H41 UNL     1       6.753   9.195  21.107  1.00  0.00     0.274 HD
ENDBRANCH   8   9
ENDBRANCH   6   8
BRANCH   5  13
HETATM   13  N3  UNL     1       5.318   9.791  24.339  1.00  0.00    -0.050 N 
ATOM     14  H33 UNL     1       4.793  10.296  25.052  1.00  0.00     0.276 HD
ATOM     15  H32 UNL     1       6.255   9.916  24.722  1.00  0.00     0.276 HD
ATOM     16  H31 UNL     1       5.224  10.226  23.421  1.00  0.00     0.276 HD
ENDBRANCH   5  13
BRANCH   7  17
HETATM   17  N5  UNL     1       5.979   5.646  22.441  1.00  0.00    -0.072 N 
ATOM     18  H53 UNL     1       5.861   5.661  21.428  1.00  0.00     0.274 HD
ATOM     19  H52 UNL     1       6.792   5.033  22.504  1.00  0.00     0.274 HD
ATOM     20  H51 UNL     1       5.168   5.227  22.897  1.00  0.00     0.274 HD
ENDBRANCH   7  17
BRANCH   1  21
HETATM   21  C2  UNL     1       8.118   7.517  24.599  1.00  0.00     0.148 C 
BRANCH  21  22
HETATM   22  N1  UNL     1       8.284   8.257  25.806  1.00  0.00    -0.423 N 
HETATM   23  C1  UNL     1       9.632   8.609  26.130  1.00  0.00     0.139 C 
ATOM     24  H1  UNL     1       7.495   8.518  26.397  1.00  0.00     0.152 HD
ENDBRANCH  21  22
ENDBRANCH   1  21
TORSDOF 6
ENDMDL
MODEL 3
REMARK VINA RESULT: -4.050611944      1.621      3.847
REMARK  6 active torsions:
REMARK  status: ('A' for Active; 'I' for Inactive)
REMARK    1  A    between atoms: N1_2  and  C2_4 
REMARK    2  A    between atoms: C2_4  and  C3_5 
REMARK    3  A    between atoms: C4_9  and  N3_10 
REMARK    4  A    between atoms: C5_14  and  C6_15 
REMARK    5  A    between atoms: C6_15  and  N4_16 
REMARK    6  A    between atoms: C7_20  and  N5_21 
ROOT
HETATM    1  C3  UNL     1       7.062   7.219  22.514  1.00  0.00     0.236 C 
HETATM    2  N2  UNL     1       7.803   7.424  23.733  1.00  0.00    -0.038 N 
ATOM      3  H21 UNL     1       8.053   8.401  23.885  1.00  0.00     0.280 HD
ATOM      4  H22 UNL     1       8.750   7.047  23.689  1.00  0.00     0.280 HD
HETATM    5  C4  UNL     1       7.026   6.866  24.821  1.00  0.00     0.388 C 
HETATM    6  C5  UNL     1       6.194   5.797  24.233  1.00  0.00     0.101 C 
HETATM    7  C7  UNL     1       6.034   6.183  22.757  1.00  0.00     0.225 C 
ENDROOT
BRANCH   6   8
HETATM    8  C6  UNL     1       4.851   5.572  24.864  1.00  0.00     0.240 C 
BRANCH   8   9
HETATM    9  N4  UNL     1       4.834   4.666  25.966  1.00  0.00    -0.079 N 
ATOM     10  H43 UNL     1       5.787   4.461  26.264  1.00  0.00     0.274 HD
ATOM     11  H42 UNL     1       4.482   5.137  26.800  1.00  0.00     0.274 HD
ATOM     12  H41 UNL     1       4.321   3.799  25.812  1.00  0.00     0.274 HD
ENDBRANCH   8   9
ENDBRANCH   6   8
BRANCH   5  13
HETATM   13  N3  UNL     1       6.393   7.872  25.545  1.00  0.00    -0.050 N 
ATOM     14  H33 UNL     1       6.426   7.693  26.548  1.00  0.00     0.276 HD
ATOM     15  H32 UNL     1       6.925   8.742  25.526  1.00  0.00     0.276 HD
ATOM     16  H31 UNL     1       5.436   8.008  25.218  1.00  0.00     0.276 HD
ENDBRANCH   5  13
BRANCH   7  17
HETATM   17  N5  UNL     1       6.257   4.966  21.974  1.00  0.00    -0.072 N 
ATOM     18  H53 UNL     1       5.373   4.513  21.743  1.00  0.00     0.274 HD
ATOM     19  H52 UNL     1       6.578   5.191  21.032  1.00  0.00     0.274 HD
ATOM     20  H51 UNL     1       6.893   4.312  22.430  1.00  0.00     0.274 HD
ENDBRANCH   7  17
BRANCH   1  21
HETATM   21  C2  UNL     1       6.572   8.520  21.991  1.00  0.00     0.148 C 
BRANCH  21  22
HETATM   22  N1  UNL     1       5.497   8.451  21.057  1.00  0.00    -0.423 N 
HETATM   23  C1  UNL     1       4.249   8.977  21.518  1.00  0.00     0.139 C 
ATOM     24  H1  UNL     1       5.611   8.056  20.124  1.00  0.00     0.152 HD
ENDBRANCH  21  22
ENDBRANCH   1  21
TORSDOF 6
ENDMDL
MODEL 4
REMARK VINA RESULT: -4.018606695      1.260      4.346
REMARK  6 active torsions:
REMARK  status: ('A' for Active; 'I' for Inactive)
REMARK    1  A    between atoms: N1_2  and  C2_4 
REMARK    2  A    between atoms: C2_4  and  C3_5 
REMARK    3  A    between atoms: C4_9  and  N3_10 
REMARK    4  A    between atoms: C5_14  and  C6_15 
REMARK    5  A    between atoms: C6_15  and  N4_16 
REMARK    6  A    between atoms: C7_20  and  N5_21 
ROOT
HETATM    1  C3  UNL     1       6.030   7.486  23.239  1.00  0.00     0.236 C 
HETATM    2  N2  UNL     1       5.892   6.052  23.298  1.00  0.00    -0.038 N 
ATOM      3  H21 UNL     1       6.001   5.606  22.387  1.00  0.00     0.280 HD
ATOM      4  H22 UNL     1       4.934   5.753  23.482  1.00  0.00     0.280 HD
HETATM    5  C4  UNL     1       6.834   5.558  24.282  1.00  0.00     0.388 C 
HETATM    6  C5  UNL     1       7.050   6.660  25.242  1.00  0.00     0.101 C 
HETATM    7  C7  UNL     1       6.742   7.940  24.454  1.00  0.00     0.225 C 
ENDROOT
BRANCH   6   8
HETATM    8  C6  UNL     1       8.412   6.744  25.866  1.00  0.00     0.240 C 
BRANCH   8   9
HETATM    9  N4  UNL     1       9.262   7.768  25.351  1.00  0.00    -0.079 N 
ATOM     10  H43 UNL     1       9.374   8.509  26.042  1.00  0.00     0.274 HD
ATOM     11  H42 UNL     1      10.221   7.429  25.292  1.00  0.00     0.274 HD
ATOM     12  H41 UNL     1       8.976   8.165  24.456  1.00  0.00     0.274 HD
ENDBRANCH   8   9
ENDBRANCH   6   8
BRANCH   5  13
HETATM   13  N3  UNL     1       7.946   4.994  23.664  1.00  0.00    -0.050 N 
ATOM     14  H33 UNL     1       8.126   5.415  22.753  1.00  0.00     0.276 HD
ATOM     15  H32 UNL     1       8.813   5.261  24.131  1.00  0.00     0.276 HD
ATOM     16  H31 UNL     1       7.850   3.980  23.598  1.00  0.00     0.276 HD
ENDBRANCH   5  13
BRANCH   7  17
HETATM   17  N5  UNL     1       5.911   8.780  25.320  1.00  0.00    -0.072 N 
ATOM     18  H53 UNL     1       4.920   8.593  25.168  1.00  0.00     0.274 HD
ATOM     19  H52 UNL     1       5.988   8.489  26.294  1.00  0.00     0.274 HD
ATOM     20  H51 UNL     1       6.114   9.775  25.219  1.00  0.00     0.274 HD
ENDBRANCH   7  17
BRANCH   1  21
HETATM   21  C2  UNL     1       6.629   7.887  21.940  1.00  0.00     0.148 C 
BRANCH  21  22
HETATM   22  N1  UNL     1       5.736   8.475  20.998  1.00  0.00    -0.423 N 
HETATM   23  C1  UNL     1       4.462   8.867  21.520  1.00  0.00     0.139 C 
ATOM     24  H1  UNL     1       5.987   8.608  20.018  1.00  0.00     0.152 HD
ENDBRANCH  21  22
ENDBRANCH   1  21
TORSDOF 6
ENDMDL
MODEL 5
REMARK VINA RESULT: -3.989976560      1.051      1.276
REMARK  6 active torsions:
REMARK  status: ('A' for Active; 'I' for Inactive)
REMARK    1  A    between atoms: N1_2  and  C2_4 
REMARK    2  A    between atoms: C2_4  and  C3_5 
REMARK    3  A    between atoms: C4_9  and  N3_10 
REMARK    4  A    between atoms: C5_14  and  C6_15 
REMARK    5  A    between atoms: C6_15  and  N4_16 
REMARK    6  A    between atoms: C7_20  and  N5_21 
ROOT
HETATM    1  C3  UNL     1       6.565   5.737  24.480  1.00  0.00     0.236 C 
HETATM    2  N2  UNL     1       5.504   6.395  25.200  1.00  0.00    -0.038 N 
ATOM      3  H21 UNL     1       5.742   6.580  26.175  1.00  0.00     0.280 HD
ATOM      4  H22 UNL     1       4.703   5.787  25.370  1.00  0.00     0.280 HD
HETATM    5  C4  UNL     1       5.153   7.595  24.469  1.00  0.00     0.388 C 
HETATM    6  C5  UNL     1       5.497   7.339  23.056  1.00  0.00     0.101 C 
HETATM    7  C7  UNL     1       6.604   6.277  23.103  1.00  0.00     0.225 C 
ENDROOT
BRANCH   6   8
HETATM    8  C6  UNL     1       5.943   8.524  22.251  1.00  0.00     0.240 C 
BRANCH   8   9
HETATM    9  N4  UNL     1       5.483   8.557  20.900  1.00  0.00    -0.079 N 
ATOM     10  H43 UNL     1       6.132   8.051  20.298  1.00  0.00     0.274 HD
ATOM     11  H42 UNL     1       4.652   7.974  20.800  1.00  0.00     0.274 HD
ATOM     12  H41 UNL     1       5.306   9.486  20.520  1.00  0.00     0.274 HD
ENDBRANCH   8   9
ENDBRANCH   6   8
BRANCH   5  13
HETATM   13  N3  UNL     1       5.687   8.725  25.083  1.00  0.00    -0.050 N 
ATOM     14  H33 UNL     1       5.423   8.780  26.067  1.00  0.00     0.276 HD
ATOM     15  H32 UNL     1       6.698   8.647  25.200  1.00  0.00     0.276 HD
ATOM     16  H31 UNL     1       5.430   9.571  24.576  1.00  0.00     0.276 HD
ENDBRANCH   5  13
BRANCH   7  17
HETATM   17  N5  UNL     1       6.272   5.274  22.088  1.00  0.00    -0.072 N 
ATOM     18  H53 UNL     1       6.882   4.460  22.166  1.00  0.00     0.274 HD
ATOM     19  H52 UNL     1       5.377   4.830  22.294  1.00  0.00     0.274 HD
ATOM     20  H51 UNL     1       6.284   5.650  21.140  1.00  0.00     0.274 HD
ENDBRANCH   7  17
BRANCH   1  21
HETATM   21  C2  UNL     1       7.831   5.817  25.252  1.00  0.00     0.148 C 
BRANCH  21  22
HETATM   22  N1  UNL     1       8.840   6.666  24.710  1.00  0.00    -0.423 N 
HETATM   23  C1  UNL     1       9.209   7.780  25.528  1.00  0.00     0.139 C 
ATOM     24  H1  UNL     1       9.269   6.491  23.801  1.00  0.00     0.152 HD
ENDBRANCH  21  22
ENDBRANCH   1  21
TORSDOF 6
ENDMDL
