MODEL 1
REMARK VINA RESULT: -5.475558800      0.000      0.000
REMARK  5 active torsions:
REMARK  status: ('A' for Active; 'I' for Inactive)
REMARK    1  A    between atoms: N1_1  and  C1_4 
REMARK    2  A    between atoms: C2_7  and  N3_8 
REMARK    3  A    between atoms: N3_8  and  N4_10 
REMARK    4  A    between atoms: N4_10  and  N5_11 
REMARK    5  A    between atoms: N4_10  and  C3_14 
ROOT
HETATM    1  C1  UNL     1       5.391   8.511  22.133  1.00  0.00     0.694 A 
HETATM    2  N2  UNL     1       6.192   7.712  22.859  1.00  0.00    -0.021 N 
ATOM      3  H2  UNL     1       6.899   7.141  22.395  1.00  0.00     0.203 HD
HETATM    4  C2  UNL     1       6.060   7.663  24.203  1.00  0.00     0.717 A 
HETATM    5  N6  UNL     1       5.132   8.411  24.797  1.00  0.00    -0.139 N 
ATOM      6  H6  UNL     1       5.034   8.373  25.812  1.00  0.00     0.189 HD
HETATM    7  C4  UNL     1       4.330   9.208  24.096  1.00  0.00     0.352 A 
HETATM    8  O2  UNL     1       3.436   9.929  24.677  1.00  0.00    -0.246 OA
HETATM    9  N7  UNL     1       4.452   9.265  22.762  1.00  0.00    -0.141 N 
ATOM     10  H7  UNL     1       3.842   9.876  22.220  1.00  0.00     0.189 HD
ENDROOT
BRANCH   4  11
HETATM   11  N3  UNL     1       6.876   6.783  24.979  1.00  0.00    -0.108 N 
ATOM     12  H3  UNL     1       6.597   6.522  25.925  1.00  0.00     0.208 HD
BRANCH  11  13
HETATM   13  N4  UNL     1       8.044   6.289  24.434  1.00  0.00    -0.162 N 
BRANCH  13  14
HETATM   14  N5  UNL     1       9.187   7.059  24.400  1.00  0.00    -0.321 N 
ATOM     15  H52 UNL     1       9.262   7.889  24.988  1.00  0.00     0.179 HD
ATOM     16  H51 UNL     1       9.969   6.805  23.795  1.00  0.00     0.179 HD
ENDBRANCH  13  14
BRANCH  13  17
HETATM   17  C3  UNL     1       8.054   4.983  23.899  1.00  0.00     0.394 C 
HETATM   18  O1  UNL     1       7.501   4.809  22.755  1.00  0.00    -0.280 OA
ENDBRANCH  13  17
ENDBRANCH  11  13
ENDBRANCH   4  11
BRANCH   1  19
HETATM   19  N1  UNL     1       5.471   8.593  20.850  1.00  0.00    -0.234 N 
ATOM     20  H12 UNL     1       6.358   8.348  20.409  1.00  0.00     0.174 HD
ATOM     21  H11 UNL     1       4.688   8.892  20.268  1.00  0.00     0.174 HD
ENDBRANCH   1  19
TORSDOF 5
ENDMDL
MODEL 2
REMARK VINA RESULT: -5.404111023      0.751      1.198
REMARK  5 active torsions:
REMARK  status: ('A' for Active; 'I' for Inactive)
REMARK    1  A    between atoms: N1_1  and  C1_4 
REMARK    2  A    between atoms: C2_7  and  N3_8 
REMARK    3  A    between atoms: N3_8  and  N4_10 
REMARK    4  A    between atoms: N4_10  and  N5_11 
REMARK    5  A    between atoms: N4_10  and  C3_14 
ROOT
HETATM    1  C1  UNL     1       5.439   8.527  22.157  1.00  0.00     0.694 A 
HETATM    2  N2  UNL     1       6.272   7.782  22.904  1.00  0.00    -0.021 N 
ATOM      3  H2  UNL     1       7.004   7.230  22.456  1.00  0.00     0.203 HD
HETATM    4  C2  UNL     1       6.141   7.763  24.249  1.00  0.00     0.717 A 
HETATM    5  N6  UNL     1       5.180   8.487  24.823  1.00  0.00    -0.139 N 
ATOM      6  H6  UNL     1       5.082   8.470  25.838  1.00  0.00     0.189 HD
HETATM    7  C4  UNL     1       4.346   9.230  24.100  1.00  0.00     0.352 A 
HETATM    8  O2  UNL     1       3.422   9.928  24.662  1.00  0.00    -0.246 OA
HETATM    9  N7  UNL     1       4.469   9.257  22.766  1.00  0.00    -0.141 N 
ATOM     10  H7  UNL     1       3.834   9.827  22.207  1.00  0.00     0.189 HD
ENDROOT
BRANCH   4  11
HETATM   11  N3  UNL     1       6.991   6.939  25.048  1.00  0.00    -0.108 N 
ATOM     12  H3  UNL     1       7.627   7.359  25.726  1.00  0.00     0.208 HD
BRANCH  11  13
HETATM   13  N4  UNL     1       6.942   5.568  24.893  1.00  0.00    -0.162 N 
BRANCH  13  14
HETATM   14  N5  UNL     1       5.991   4.817  25.549  1.00  0.00    -0.321 N 
ATOM     15  H52 UNL     1       6.182   4.450  26.481  1.00  0.00     0.179 HD
ATOM     16  H51 UNL     1       5.086   4.629  25.117  1.00  0.00     0.179 HD
ENDBRANCH  13  14
BRANCH  13  17
HETATM   17  C3  UNL     1       7.891   4.937  24.060  1.00  0.00     0.394 C 
HETATM   18  O1  UNL     1       7.598   4.813  22.818  1.00  0.00    -0.280 OA
ENDBRANCH  13  17
ENDBRANCH  11  13
ENDBRANCH   4  11
BRANCH   1  19
HETATM   19  N1  UNL     1       5.518   8.579  20.872  1.00  0.00    -0.234 N 
ATOM     20  H12 UNL     1       6.028   7.836  20.394  1.00  0.00     0.174 HD
ATOM     21  H11 UNL     1       5.094   9.328  20.325  1.00  0.00     0.174 HD
ENDBRANCH   1  19
TORSDOF 5
ENDMDL
MODEL 3
REMARK VINA RESULT: -5.251353476      1.277      1.384
REMARK  5 active torsions:
REMARK  status: ('A' for Active; 'I' for Inactive)
REMARK    1  A    between atoms: N1_1  and  C1_4 
REMARK    2  A    between atoms: C2_7  and  N3_8 
REMARK    3  A    between atoms: N3_8  and  N4_10 
REMARK    4  A    between atoms: N4_10  and  N5_11 
REMARK    5  A    between atoms: N4_10  and  C3_14 
ROOT
HETATM    1  C1  UNL     1       5.426   8.484  22.147  1.00  0.00     0.694 A 
HETATM    2  N2  UNL     1       6.155   7.632  22.889  1.00  0.00    -0.021 N 
ATOM      3  H2  UNL     1       6.859   7.042  22.445  1.00  0.00     0.203 HD
HETATM    4  C2  UNL     1       5.957   7.557  24.224  1.00  0.00     0.717 A 
HETATM    5  N6  UNL     1       5.034   8.331  24.793  1.00  0.00    -0.139 N 
ATOM      6  H6  UNL     1       4.886   8.273  25.801  1.00  0.00     0.189 HD
HETATM    7  C4  UNL     1       4.303   9.180  24.076  1.00  0.00     0.352 A 
HETATM    8  O2  UNL     1       3.414   9.927  24.633  1.00  0.00    -0.246 OA
HETATM    9  N7  UNL     1       4.492   9.264  22.751  1.00  0.00    -0.141 N 
ATOM     10  H7  UNL     1       3.936   9.915  22.197  1.00  0.00     0.189 HD
ENDROOT
BRANCH   4  11
HETATM   11  N3  UNL     1       6.695   6.623  25.014  1.00  0.00    -0.108 N 
ATOM     12  H3  UNL     1       6.327   6.302  25.910  1.00  0.00     0.208 HD
BRANCH  11  13
HETATM   13  N4  UNL     1       7.910   6.158  24.551  1.00  0.00    -0.162 N 
BRANCH  13  14
HETATM   14  N5  UNL     1       8.020   4.900  24.000  1.00  0.00    -0.321 N 
ATOM     15  H52 UNL     1       7.218   4.472  23.538  1.00  0.00     0.179 HD
ATOM     16  H51 UNL     1       8.902   4.388  24.039  1.00  0.00     0.179 HD
ENDBRANCH  13  14
BRANCH  13  17
HETATM   17  C3  UNL     1       9.048   6.986  24.660  1.00  0.00     0.394 C 
HETATM   18  O1  UNL     1       9.288   7.792  23.692  1.00  0.00    -0.280 OA
ENDBRANCH  13  17
ENDBRANCH  11  13
ENDBRANCH   4  11
BRANCH   1  19
HETATM   19  N1  UNL     1       5.572   8.593  20.872  1.00  0.00    -0.234 N 
ATOM     20  H12 UNL     1       5.242   9.448  20.425  1.00  0.00     0.174 HD
ATOM     21  H11 UNL     1       5.998   7.862  20.303  1.00  0.00     0.174 HD
ENDBRANCH   1  19
TORSDOF 5
ENDMDL
MODEL 4
REMARK VINA RESULT: -5.234690380      1.352      1.382
REMARK  5 active torsions:
REMARK  status: ('A' for Active; 'I' for Inactive)
REMARK    1  A    between atoms: N1_1  and  C1_4 
REMARK    2  A    between atoms: C2_7  and  N3_8 
REMARK    3  A    between atoms: N3_8  and  N4_10 
REMARK    4  A    between atoms: N4_10  and  N5_11 
REMARK    5  A    between atoms: N4_10  and  C3_14 
ROOT
HETATM    1  C1  UNL     1       5.492   8.583  22.136  1.00  0.00     0.694 A 
HETATM    2  N2  UNL     1       6.348   7.967  22.970  1.00  0.00    -0.021 N 
ATOM      3  H2  UNL     1       7.140   7.445  22.594  1.00  0.00     0.203 HD
HETATM    4  C2  UNL     1       6.162   8.039  24.306  1.00  0.00     0.717 A 
HETATM    5  N6  UNL     1       5.123   8.723  24.786  1.00  0.00    -0.139 N 
ATOM      6  H6  UNL     1       4.984   8.776  25.795  1.00  0.00     0.189 HD
HETATM    7  C4  UNL     1       4.265   9.339  23.977  1.00  0.00     0.352 A 
HETATM    8  O2  UNL     1       3.265   9.999  24.448  1.00  0.00    -0.246 OA
HETATM    9  N7  UNL     1       4.442   9.275  22.650  1.00  0.00    -0.141 N 
ATOM     10  H7  UNL     1       3.788   9.747  22.025  1.00  0.00     0.189 HD
ENDROOT
BRANCH   4  11
HETATM   11  N3  UNL     1       7.039   7.351  25.199  1.00  0.00    -0.108 N 
ATOM     12  H3  UNL     1       6.718   6.524  25.702  1.00  0.00     0.208 HD
BRANCH  11  13
HETATM   13  N4  UNL     1       8.328   7.817  25.372  1.00  0.00    -0.162 N 
BRANCH  13  14
HETATM   14  N5  UNL     1       8.579   8.916  26.166  1.00  0.00    -0.321 N 
ATOM     15  H52 UNL     1       8.172   8.976  27.099  1.00  0.00     0.179 HD
ATOM     16  H51 UNL     1       9.177   9.673  25.835  1.00  0.00     0.179 HD
ENDBRANCH  13  14
BRANCH  13  17
HETATM   17  C3  UNL     1       9.390   7.160  24.715  1.00  0.00     0.394 C 
HETATM   18  O1  UNL     1       9.125   6.566  23.611  1.00  0.00    -0.280 OA
ENDBRANCH  13  17
ENDBRANCH  11  13
ENDBRANCH   4  11
BRANCH   1  19
HETATM   19  N1  UNL     1       5.621   8.543  20.855  1.00  0.00    -0.234 N 
ATOM     20  H12 UNL     1       5.233   7.740  20.360  1.00  0.00     0.174 HD
ATOM     21  H11 UNL     1       6.094   9.277  20.327  1.00  0.00     0.174 HD
ENDBRANCH   1  19
TORSDOF 5
ENDMDL
MODEL 5
REMARK VINA RESULT: -5.188101191      1.951      3.862
REMARK  5 active torsions:
REMARK  status: ('A' for Active; 'I' for Inactive)
REMARK    1  A    between atoms: N1_1  and  C1_4 
REMARK    2  A    between atoms: C2_7  and  N3_8 
REMARK    3  A    between atoms: N3_8  and  N4_10 
REMARK    4  A    between atoms: N4_10  and  N5_11 
REMARK    5  A    between atoms: N4_10  and  C3_14 
ROOT
HETATM    1  C1  UNL     1       5.940   8.081  22.047  1.00  0.00     0.694 A 
HETATM    2  N2  UNL     1       5.844   8.679  23.247  1.00  0.00    -0.021 N 
ATOM      3  H2  UNL     1       5.467   9.624  23.317  1.00  0.00     0.203 HD
HETATM    4  C2  UNL     1       6.247   8.028  24.361  1.00  0.00     0.717 A 
HETATM    5  N6  UNL     1       6.739   6.795  24.256  1.00  0.00    -0.139 N 
ATOM      6  H6  UNL     1       7.043   6.305  25.098  1.00  0.00     0.189 HD
HETATM    7  C4  UNL     1       6.842   6.187  23.077  1.00  0.00     0.352 A 
HETATM    8  O2  UNL     1       7.317   4.993  22.984  1.00  0.00    -0.246 OA
HETATM    9  N7  UNL     1       6.444   6.822  21.966  1.00  0.00    -0.141 N 
ATOM     10  H7  UNL     1       6.518   6.360  21.060  1.00  0.00     0.189 HD
ENDROOT
BRANCH   4  11
HETATM   11  N3  UNL     1       6.192   8.672  25.635  1.00  0.00    -0.108 N 
ATOM     12  H3  UNL     1       5.433   8.465  26.285  1.00  0.00     0.208 HD
BRANCH  11  13
HETATM   13  N4  UNL     1       7.177   9.577  25.977  1.00  0.00    -0.162 N 
BRANCH  13  14
HETATM   14  N5  UNL     1       8.413   9.145  26.406  1.00  0.00    -0.321 N 
ATOM     15  H52 UNL     1       8.757   8.224  26.133  1.00  0.00     0.179 HD
ATOM     16  H51 UNL     1       9.000   9.739  26.992  1.00  0.00     0.179 HD
ENDBRANCH  13  14
BRANCH  13  17
HETATM   17  C3  UNL     1       6.899  10.958  25.894  1.00  0.00     0.394 C 
HETATM   18  O1  UNL     1       6.402  11.396  24.797  1.00  0.00    -0.280 OA
ENDBRANCH  13  17
ENDBRANCH  11  13
ENDBRANCH   4  11
BRANCH   1  19
HETATM   19  N1  UNL     1       5.574   8.656  20.954  1.00  0.00    -0.234 N 
ATOM     20  H12 UNL     1       6.003   9.551  20.717  1.00  0.00     0.174 HD
ATOM     21  H11 UNL     1       4.878   8.253  20.326  1.00  0.00     0.174 HD
ENDBRANCH   1  19
TORSDOF 5
ENDMDL
