MODEL 1
REMARK VINA RESULT: -4.766814329      0.000      0.000
REMARK  6 active torsions:
REMARK  status: ('A' for Active; 'I' for Inactive)
REMARK    1  A    between atoms: N1_2  and  C2_4 
REMARK    2  A    between atoms: N5_11  and  C4_12 
REMARK    3  A    between atoms: C4_12  and  C5_13 
REMARK    4  A    between atoms: C5_13  and  C6_14 
REMARK    5  A    between atoms: C6_14  and  N6_15 
REMARK    6  A    between atoms: N6_15  and  N7_16 
ROOT
HETATM    1  C2  UNL     1       6.411   9.302  25.573  1.00  0.00     0.697 A 
HETATM    2  N2  UNL     1       5.403  10.151  25.169  1.00  0.00    -0.161 N 
ATOM      3  H2  UNL     1       5.364  11.156  25.340  1.00  0.00     0.187 HD
HETATM    4  C3  UNL     1       4.485   9.432  24.515  1.00  0.00     0.222 A 
HETATM    5  N3  UNL     1       3.266   9.912  23.922  1.00  0.00    -0.061 NA
HETATM    6  N4  UNL     1       4.937   8.170  24.526  1.00  0.00    -0.257 N 
ATOM      7  H4  UNL     1       4.449   7.382  24.099  1.00  0.00     0.190 HD
HETATM    8  N5  UNL     1       6.101   8.073  25.162  1.00  0.00    -0.121 N 
ENDROOT
BRANCH   8   9
HETATM    9  C4  UNL     1       6.840   6.810  25.322  1.00  0.00     0.169 C 
BRANCH   9  10
HETATM   10  C5  UNL     1       7.845   6.781  24.211  1.00  0.00     0.040 C 
BRANCH  10  11
HETATM   11  C6  UNL     1       7.213   6.745  22.865  1.00  0.00     0.136 C 
BRANCH  11  12
HETATM   12  N6  UNL     1       7.441   7.948  22.135  1.00  0.00    -0.148 NA
BRANCH  12  13
HETATM   13  N7  UNL     1       6.359   8.244  21.262  1.00  0.00    -0.348 N 
ATOM     14  H72 UNL     1       5.768   7.529  20.839  1.00  0.00     0.172 HD
ATOM     15  H71 UNL     1       6.256   9.249  21.120  1.00  0.00     0.172 HD
ENDBRANCH  12  13
ENDBRANCH  11  12
ENDBRANCH  10  11
ENDBRANCH   9  10
ENDBRANCH   8   9
BRANCH   1  16
HETATM   16  N1  UNL     1       7.403   9.724  26.216  1.00  0.00    -0.229 N 
HETATM   17  C1  UNL     1       7.767  10.961  26.766  1.00  0.00     0.165 C 
ATOM     18  H1  UNL     1       8.104   9.002  26.375  1.00  0.00     0.177 HD
ENDBRANCH   1  16
TORSDOF 6
ENDMDL
MODEL 2
REMARK VINA RESULT: -4.627165797      2.124      4.290
REMARK  6 active torsions:
REMARK  status: ('A' for Active; 'I' for Inactive)
REMARK    1  A    between atoms: N1_2  and  C2_4 
REMARK    2  A    between atoms: N5_11  and  C4_12 
REMARK    3  A    between atoms: C4_12  and  C5_13 
REMARK    4  A    between atoms: C5_13  and  C6_14 
REMARK    5  A    between atoms: C6_14  and  N6_15 
REMARK    6  A    between atoms: N6_15  and  N7_16 
ROOT
HETATM    1  C2  UNL     1       5.924   6.125  24.452  1.00  0.00     0.697 A 
HETATM    2  N2  UNL     1       7.094   5.459  24.152  1.00  0.00    -0.161 N 
ATOM      3  H2  UNL     1       7.196   4.450  24.049  1.00  0.00     0.187 HD
HETATM    4  C3  UNL     1       8.070   6.363  24.022  1.00  0.00     0.222 A 
HETATM    5  N3  UNL     1       9.451   6.111  23.712  1.00  0.00    -0.061 NA
HETATM    6  N4  UNL     1       7.494   7.555  24.238  1.00  0.00    -0.257 N 
ATOM      7  H4  UNL     1       7.990   8.445  24.206  1.00  0.00     0.190 HD
HETATM    8  N5  UNL     1       6.196   7.429  24.500  1.00  0.00    -0.121 N 
ENDROOT
BRANCH   8   9
HETATM    9  C4  UNL     1       5.305   8.570  24.767  1.00  0.00     0.169 C 
BRANCH   9  10
HETATM   10  C5  UNL     1       5.232   9.342  23.485  1.00  0.00     0.040 C 
BRANCH  10  11
HETATM   11  C6  UNL     1       4.229   8.787  22.537  1.00  0.00     0.136 C 
BRANCH  11  12
HETATM   12  N6  UNL     1       4.656   8.896  21.182  1.00  0.00    -0.148 NA
BRANCH  12  13
HETATM   13  N7  UNL     1       5.986   8.424  21.013  1.00  0.00    -0.348 N 
ATOM     14  H72 UNL     1       6.698   8.481  21.741  1.00  0.00     0.172 HD
ATOM     15  H71 UNL     1       6.129   8.029  20.083  1.00  0.00     0.172 HD
ENDBRANCH  12  13
ENDBRANCH  11  12
ENDBRANCH  10  11
ENDBRANCH   9  10
ENDBRANCH   8   9
BRANCH   1  16
HETATM   16  N1  UNL     1       4.847   5.507  24.631  1.00  0.00    -0.229 N 
HETATM   17  C1  UNL     1       4.157   5.037  25.757  1.00  0.00     0.165 C 
ATOM     18  H1  UNL     1       4.363   5.299  23.759  1.00  0.00     0.177 HD
ENDBRANCH   1  16
TORSDOF 6
ENDMDL
MODEL 3
REMARK VINA RESULT: -4.570822620      1.986      3.639
REMARK  6 active torsions:
REMARK  status: ('A' for Active; 'I' for Inactive)
REMARK    1  A    between atoms: N1_2  and  C2_4 
REMARK    2  A    between atoms: N5_11  and  C4_12 
REMARK    3  A    between atoms: C4_12  and  C5_13 
REMARK    4  A    between atoms: C5_13  and  C6_14 
REMARK    5  A    between atoms: C6_14  and  N6_15 
REMARK    6  A    between atoms: N6_15  and  N7_16 
ROOT
HETATM    1  C2  UNL     1       7.837   7.269  24.585  1.00  0.00     0.697 A 
HETATM    2  N2  UNL     1       8.185   6.177  23.818  1.00  0.00    -0.161 N 
ATOM      3  H2  UNL     1       9.102   5.730  23.797  1.00  0.00     0.187 HD
HETATM    4  C3  UNL     1       7.116   5.805  23.108  1.00  0.00     0.222 A 
HETATM    5  N3  UNL     1       7.029   4.713  22.176  1.00  0.00    -0.061 NA
HETATM    6  N4  UNL     1       6.140   6.661  23.444  1.00  0.00    -0.257 N 
ATOM      7  H4  UNL     1       5.194   6.631  23.063  1.00  0.00     0.190 HD
HETATM    8  N5  UNL     1       6.560   7.553  24.336  1.00  0.00    -0.121 N 
ENDROOT
BRANCH   8   9
HETATM    9  C4  UNL     1       5.701   8.610  24.897  1.00  0.00     0.169 C 
BRANCH   9  10
HETATM   10  C5  UNL     1       4.447   8.597  24.078  1.00  0.00     0.040 C 
BRANCH  10  11
HETATM   11  C6  UNL     1       4.541   9.463  22.872  1.00  0.00     0.136 C 
BRANCH  11  12
HETATM   12  N6  UNL     1       4.342   8.727  21.668  1.00  0.00    -0.148 NA
BRANCH  12  13
HETATM   13  N7  UNL     1       5.541   8.630  20.910  1.00  0.00    -0.348 N 
ATOM     14  H72 UNL     1       5.902   9.390  20.333  1.00  0.00     0.172 HD
ATOM     15  H71 UNL     1       5.981   7.717  21.019  1.00  0.00     0.172 HD
ENDBRANCH  12  13
ENDBRANCH  11  12
ENDBRANCH  10  11
ENDBRANCH   9  10
ENDBRANCH   8   9
BRANCH   1  16
HETATM   16  N1  UNL     1       8.666   7.823  25.348  1.00  0.00    -0.229 N 
HETATM   17  C1  UNL     1      10.049   8.043  25.307  1.00  0.00     0.165 C 
ATOM     18  H1  UNL     1       8.233   8.199  26.191  1.00  0.00     0.177 HD
ENDBRANCH   1  16
TORSDOF 6
ENDMDL
MODEL 4
REMARK VINA RESULT: -4.562131230      1.589      3.303
REMARK  6 active torsions:
REMARK  status: ('A' for Active; 'I' for Inactive)
REMARK    1  A    between atoms: N1_2  and  C2_4 
REMARK    2  A    between atoms: N5_11  and  C4_12 
REMARK    3  A    between atoms: C4_12  and  C5_13 
REMARK    4  A    between atoms: C5_13  and  C6_14 
REMARK    5  A    between atoms: C6_14  and  N6_15 
REMARK    6  A    between atoms: N6_15  and  N7_16 
ROOT
HETATM    1  C2  UNL     1       7.335   8.486  25.570  1.00  0.00     0.697 A 
HETATM    2  N2  UNL     1       8.564   7.912  25.323  1.00  0.00    -0.161 N 
ATOM      3  H2  UNL     1       9.433   8.131  25.810  1.00  0.00     0.187 HD
HETATM    4  C3  UNL     1       8.422   7.021  24.337  1.00  0.00     0.222 A 
HETATM    5  N3  UNL     1       9.446   6.193  23.760  1.00  0.00    -0.061 NA
HETATM    6  N4  UNL     1       7.125   7.059  23.997  1.00  0.00    -0.257 N 
ATOM      7  H4  UNL     1       6.708   6.484  23.265  1.00  0.00     0.190 HD
HETATM    8  N5  UNL     1       6.453   7.940  24.733  1.00  0.00    -0.121 N 
ENDROOT
BRANCH   8   9
HETATM    9  C4  UNL     1       5.009   8.188  24.589  1.00  0.00     0.169 C 
BRANCH   9  10
HETATM   10  C5  UNL     1       4.880   9.283  23.574  1.00  0.00     0.040 C 
BRANCH  10  11
HETATM   11  C6  UNL     1       4.141   8.852  22.357  1.00  0.00     0.136 C 
BRANCH  11  12
HETATM   12  N6  UNL     1       4.835   9.196  21.160  1.00  0.00    -0.148 NA
BRANCH  12  13
HETATM   13  N7  UNL     1       5.995   8.395  20.980  1.00  0.00    -0.348 N 
ATOM     14  H72 UNL     1       6.759   8.355  21.654  1.00  0.00     0.172 HD
ATOM     15  H71 UNL     1       5.960   7.876  20.103  1.00  0.00     0.172 HD
ENDBRANCH  12  13
ENDBRANCH  11  12
ENDBRANCH  10  11
ENDBRANCH   9  10
ENDBRANCH   8   9
BRANCH   1  16
HETATM   16  N1  UNL     1       7.189   9.365  26.453  1.00  0.00    -0.229 N 
HETATM   17  C1  UNL     1       7.555  10.713  26.571  1.00  0.00     0.165 C 
ATOM     18  H1  UNL     1       6.689   9.020  27.272  1.00  0.00     0.177 HD
ENDBRANCH   1  16
TORSDOF 6
ENDMDL
MODEL 5
REMARK VINA RESULT: -4.527620109      1.008      2.881
REMARK  6 active torsions:
REMARK  status: ('A' for Active; 'I' for Inactive)
REMARK    1  A    between atoms: N1_2  and  C2_4 
REMARK    2  A    between atoms: N5_11  and  C4_12 
REMARK    3  A    between atoms: C4_12  and  C5_13 
REMARK    4  A    between atoms: C5_13  and  C6_14 
REMARK    5  A    between atoms: C6_14  and  N6_15 
REMARK    6  A    between atoms: N6_15  and  N7_16 
ROOT
HETATM    1  C2  UNL     1       6.283   9.837  25.175  1.00  0.00     0.697 A 
HETATM    2  N2  UNL     1       6.698  10.936  25.897  1.00  0.00    -0.161 N 
ATOM      3  H2  UNL     1       6.361  11.891  25.777  1.00  0.00     0.187 HD
HETATM    4  C3  UNL     1       7.618  10.535  26.780  1.00  0.00     0.222 A 
HETATM    5  N3  UNL     1       8.318  11.350  27.735  1.00  0.00    -0.061 NA
HETATM    6  N4  UNL     1       7.752   9.214  26.590  1.00  0.00    -0.257 N 
ATOM      7  H4  UNL     1       8.389   8.621  27.123  1.00  0.00     0.190 HD
HETATM    8  N5  UNL     1       6.952   8.776  25.623  1.00  0.00    -0.121 N 
ENDROOT
BRANCH   8   9
HETATM    9  C4  UNL     1       6.877   7.366  25.204  1.00  0.00     0.169 C 
BRANCH   9  10
HETATM   10  C5  UNL     1       7.775   7.245  24.011  1.00  0.00     0.040 C 
BRANCH  10  11
HETATM   11  C6  UNL     1       7.022   7.149  22.732  1.00  0.00     0.136 C 
BRANCH  11  12
HETATM   12  N6  UNL     1       7.164   8.324  21.937  1.00  0.00    -0.148 NA
BRANCH  12  13
HETATM   13  N7  UNL     1       6.094   8.463  21.013  1.00  0.00    -0.348 N 
ATOM     14  H72 UNL     1       6.017   7.914  20.157  1.00  0.00     0.172 HD
ATOM     15  H71 UNL     1       5.427   9.173  21.314  1.00  0.00     0.172 HD
ENDBRANCH  12  13
ENDBRANCH  11  12
ENDBRANCH  10  11
ENDBRANCH   9  10
ENDBRANCH   8   9
BRANCH   1  16
HETATM   16  N1  UNL     1       5.420   9.938  24.269  1.00  0.00    -0.229 N 
HETATM   17  C1  UNL     1       4.095   9.505  24.118  1.00  0.00     0.165 C 
ATOM     18  H1  UNL     1       5.760  10.453  23.458  1.00  0.00     0.177 HD
ENDBRANCH   1  16
TORSDOF 6
ENDMDL
