MODEL 1
REMARK VINA RESULT: -4.207751373      0.000      0.000
REMARK  6 active torsions:
REMARK  status: ('A' for Active; 'I' for Inactive)
REMARK    1  A    between atoms: C2_2  and  C3_3 
REMARK    2  A    between atoms: C3_3  and  N1_4 
REMARK    3  A    between atoms: N1_4  and  C4_7 
REMARK    4  A    between atoms: C4_7  and  N2_8 
REMARK    5  A    between atoms: C6_17  and  N6_18 
REMARK    6  A    between atoms: N6_18  and  N7_20 
ROOT
HETATM    1  N2  UNL     1       6.367   8.052  24.029  1.00  0.00    -0.082 N 
HETATM    2  N3  UNL     1       5.592   8.705  23.186  1.00  0.00    -0.114 N 
ATOM      3  H3  UNL     1       4.916   9.422  23.453  1.00  0.00     0.206 HD
HETATM    4  C5  UNL     1       5.816   8.295  21.926  1.00  0.00     0.705 A 
HETATM    5  N4  UNL     1       5.254   8.698  20.838  1.00  0.00    -0.233 N 
ATOM      6  H41 UNL     1       5.424   8.387  19.881  1.00  0.00     0.174 HD
ATOM      7  H42 UNL     1       4.530   9.415  20.779  1.00  0.00     0.174 HD
HETATM    8  N5  UNL     1       6.765   7.355  22.003  1.00  0.00    -0.018 N 
ATOM      9  H5  UNL     1       7.163   6.839  21.218  1.00  0.00     0.203 HD
HETATM   10  C6  UNL     1       7.099   7.209  23.287  1.00  0.00     0.729 A 
ENDROOT
BRANCH   1  11
HETATM   11  C4  UNL     1       6.430   8.200  25.466  1.00  0.00     0.400 C 
BRANCH  11  12
HETATM   12  N1  UNL     1       6.588   9.589  25.852  1.00  0.00    -0.057 N 
ATOM     13  H12 UNL     1       5.694  10.037  26.052  1.00  0.00     0.279 HD
ATOM     14  H11 UNL     1       6.874  10.175  25.067  1.00  0.00     0.279 HD
BRANCH  12  15
HETATM   15  C3  UNL     1       7.504   9.684  26.962  1.00  0.00     0.234 C 
BRANCH  15  16
HETATM   16  C2  UNL     1       8.296  10.949  26.930  1.00  0.00     0.023 C 
HETATM   17  C1  UNL     1       8.253  11.556  28.338  1.00  0.00     0.007 C 
ENDBRANCH  15  16
ENDBRANCH  12  15
ENDBRANCH  11  12
ENDBRANCH   1  11
BRANCH  10  18
HETATM   18  N6  UNL     1       8.067   6.320  23.838  1.00  0.00    -0.137 N 
ATOM     19  H6  UNL     1       8.905   6.723  24.256  1.00  0.00     0.205 HD
BRANCH  18  20
HETATM   20  N7  UNL     1       7.937   4.948  23.839  1.00  0.00    -0.331 N 
ATOM     21  H72 UNL     1       7.080   4.565  24.237  1.00  0.00     0.177 HD
ATOM     22  H71 UNL     1       8.642   4.311  23.470  1.00  0.00     0.177 HD
ENDBRANCH  18  20
ENDBRANCH  10  18
TORSDOF 6
ENDMDL
MODEL 2
REMARK VINA RESULT: -4.157549743      5.380      7.269
REMARK  6 active torsions:
REMARK  status: ('A' for Active; 'I' for Inactive)
REMARK    1  A    between atoms: C2_2  and  C3_3 
REMARK    2  A    between atoms: C3_3  and  N1_4 
REMARK    3  A    between atoms: N1_4  and  C4_7 
REMARK    4  A    between atoms: C4_7  and  N2_8 
REMARK    5  A    between atoms: C6_17  and  N6_18 
REMARK    6  A    between atoms: N6_18  and  N7_20 
ROOT
HETATM    1  N2  UNL     1      11.351  11.764  27.761  1.00  0.00    -0.082 N 
HETATM    2  N3  UNL     1      10.183  11.628  28.358  1.00  0.00    -0.114 N 
ATOM      3  H3  UNL     1      10.007  11.824  29.344  1.00  0.00     0.206 HD
HETATM    4  C5  UNL     1       9.256  11.197  27.485  1.00  0.00     0.705 A 
HETATM    5  N4  UNL     1       8.008  10.950  27.696  1.00  0.00    -0.233 N 
ATOM      6  H41 UNL     1       7.304  10.623  27.033  1.00  0.00     0.174 HD
ATOM      7  H42 UNL     1       7.530  11.052  28.591  1.00  0.00     0.174 HD
HETATM    8  N5  UNL     1       9.883  11.063  26.310  1.00  0.00    -0.018 N 
ATOM      9  H5  UNL     1       9.459  10.750  25.437  1.00  0.00     0.203 HD
HETATM   10  C6  UNL     1      11.160  11.409  26.483  1.00  0.00     0.729 A 
ENDROOT
BRANCH   1  11
HETATM   11  C4  UNL     1      12.596  12.202  28.350  1.00  0.00     0.400 C 
BRANCH  11  12
HETATM   12  N1  UNL     1      12.727  13.646  28.305  1.00  0.00    -0.057 N 
ATOM     13  H12 UNL     1      12.760  14.058  29.237  1.00  0.00     0.279 HD
ATOM     14  H11 UNL     1      11.875  14.098  27.974  1.00  0.00     0.279 HD
BRANCH  12  15
HETATM   15  C3  UNL     1      13.877  14.005  27.511  1.00  0.00     0.234 C 
BRANCH  15  16
HETATM   16  C2  UNL     1      13.494  14.744  26.272  1.00  0.00     0.023 C 
HETATM   17  C1  UNL     1      14.240  16.085  26.285  1.00  0.00     0.007 C 
ENDBRANCH  15  16
ENDBRANCH  12  15
ENDBRANCH  11  12
ENDBRANCH   1  11
BRANCH  10  18
HETATM   18  N6  UNL     1      12.197  11.420  25.504  1.00  0.00    -0.137 N 
ATOM     19  H6  UNL     1      12.784  12.252  25.437  1.00  0.00     0.205 HD
BRANCH  18  20
HETATM   20  N7  UNL     1      12.454  10.375  24.645  1.00  0.00    -0.331 N 
ATOM     21  H72 UNL     1      13.280   9.809  24.839  1.00  0.00     0.177 HD
ATOM     22  H71 UNL     1      11.871  10.145  23.841  1.00  0.00     0.177 HD
ENDBRANCH  18  20
ENDBRANCH  10  18
TORSDOF 6
ENDMDL
MODEL 3
REMARK VINA RESULT: -4.134772749      1.220      2.885
REMARK  6 active torsions:
REMARK  status: ('A' for Active; 'I' for Inactive)
REMARK    1  A    between atoms: C2_2  and  C3_3 
REMARK    2  A    between atoms: C3_3  and  N1_4 
REMARK    3  A    between atoms: N1_4  and  C4_7 
REMARK    4  A    between atoms: C4_7  and  N2_8 
REMARK    5  A    between atoms: C6_17  and  N6_18 
REMARK    6  A    between atoms: N6_18  and  N7_20 
ROOT
HETATM    1  N2  UNL     1       5.907   7.463  24.101  1.00  0.00    -0.082 N 
HETATM    2  N3  UNL     1       6.729   6.568  24.612  1.00  0.00    -0.114 N 
ATOM      3  H3  UNL     1       6.970   6.498  25.601  1.00  0.00     0.206 HD
HETATM    4  C5  UNL     1       7.205   5.761  23.648  1.00  0.00     0.705 A 
HETATM    5  N4  UNL     1       8.028   4.775  23.760  1.00  0.00    -0.233 N 
ATOM      6  H41 UNL     1       8.389   4.162  23.028  1.00  0.00     0.174 HD
ATOM      7  H42 UNL     1       8.450   4.455  24.632  1.00  0.00     0.174 HD
HETATM    8  N5  UNL     1       6.652   6.181  22.504  1.00  0.00    -0.018 N 
ATOM      9  H5  UNL     1       6.809   5.778  21.580  1.00  0.00     0.203 HD
HETATM   10  C6  UNL     1       5.861   7.219  22.783  1.00  0.00     0.729 A 
ENDROOT
BRANCH   1  11
HETATM   11  C4  UNL     1       5.191   8.506  24.802  1.00  0.00     0.400 C 
BRANCH  11  12
HETATM   12  N1  UNL     1       5.974   9.723  24.889  1.00  0.00    -0.057 N 
ATOM     13  H12 UNL     1       5.390  10.559  24.866  1.00  0.00     0.279 HD
ATOM     14  H11 UNL     1       6.511   9.895  24.039  1.00  0.00     0.279 HD
BRANCH  12  15
HETATM   15  C3  UNL     1       6.813   9.678  26.061  1.00  0.00     0.234 C 
BRANCH  15  16
HETATM   16  C2  UNL     1       7.399  11.013  26.383  1.00  0.00     0.023 C 
HETATM   17  C1  UNL     1       8.863  10.789  26.784  1.00  0.00     0.007 C 
ENDBRANCH  15  16
ENDBRANCH  12  15
ENDBRANCH  11  12
ENDBRANCH   1  11
BRANCH  10  18
HETATM   18  N6  UNL     1       5.072   7.981  21.873  1.00  0.00    -0.137 N 
ATOM     19  H6  UNL     1       4.063   8.001  22.013  1.00  0.00     0.205 HD
BRANCH  18  20
HETATM   20  N7  UNL     1       5.593   8.692  20.815  1.00  0.00    -0.331 N 
ATOM     21  H72 UNL     1       6.349   8.252  20.289  1.00  0.00     0.177 HD
ATOM     22  H71 UNL     1       5.268   9.618  20.537  1.00  0.00     0.177 HD
ENDBRANCH  18  20
ENDBRANCH  10  18
TORSDOF 6
ENDMDL
MODEL 4
REMARK VINA RESULT: -4.134671315      2.355      3.672
REMARK  6 active torsions:
REMARK  status: ('A' for Active; 'I' for Inactive)
REMARK    1  A    between atoms: C2_2  and  C3_3 
REMARK    2  A    between atoms: C3_3  and  N1_4 
REMARK    3  A    between atoms: N1_4  and  C4_7 
REMARK    4  A    between atoms: C4_7  and  N2_8 
REMARK    5  A    between atoms: C6_17  and  N6_18 
REMARK    6  A    between atoms: N6_18  and  N7_20 
ROOT
HETATM    1  N2  UNL     1       6.302   6.703  23.606  1.00  0.00    -0.082 N 
HETATM    2  N3  UNL     1       6.130   6.850  22.307  1.00  0.00    -0.114 N 
ATOM      3  H3  UNL     1       6.217   6.100  21.621  1.00  0.00     0.206 HD
HETATM    4  C5  UNL     1       5.822   8.126  22.014  1.00  0.00     0.705 A 
HETATM    5  N4  UNL     1       5.584   8.649  20.860  1.00  0.00    -0.233 N 
ATOM      6  H41 UNL     1       5.350   9.617  20.638  1.00  0.00     0.174 HD
ATOM      7  H42 UNL     1       5.596   8.148  19.971  1.00  0.00     0.174 HD
HETATM    8  N5  UNL     1       5.807   8.783  23.180  1.00  0.00    -0.018 N 
ATOM      9  H5  UNL     1       5.607   9.775  23.305  1.00  0.00     0.203 HD
HETATM   10  C6  UNL     1       6.100   7.913  24.148  1.00  0.00     0.729 A 
ENDROOT
BRANCH   1  11
HETATM   11  C4  UNL     1       6.641   5.493  24.320  1.00  0.00     0.400 C 
BRANCH  11  12
HETATM   12  N1  UNL     1       7.918   4.959  23.885  1.00  0.00    -0.057 N 
ATOM     13  H12 UNL     1       8.171   5.281  22.951  1.00  0.00     0.279 HD
ATOM     14  H11 UNL     1       7.869   3.960  23.689  1.00  0.00     0.279 HD
BRANCH  12  15
HETATM   15  C3  UNL     1       8.933   5.273  24.862  1.00  0.00     0.234 C 
BRANCH  15  16
HETATM   16  C2  UNL     1      10.035   6.095  24.280  1.00  0.00     0.023 C 
HETATM   17  C1  UNL     1       9.809   7.547  24.720  1.00  0.00     0.007 C 
ENDBRANCH  15  16
ENDBRANCH  12  15
ENDBRANCH  11  12
ENDBRANCH   1  11
BRANCH  10  18
HETATM   18  N6  UNL     1       6.197   8.169  25.547  1.00  0.00    -0.137 N 
ATOM     19  H6  UNL     1       5.818   7.473  26.189  1.00  0.00     0.205 HD
BRANCH  18  20
HETATM   20  N7  UNL     1       6.770   9.301  26.083  1.00  0.00    -0.331 N 
ATOM     21  H72 UNL     1       7.741   9.491  25.831  1.00  0.00     0.177 HD
ATOM     22  H71 UNL     1       6.283   9.945  26.706  1.00  0.00     0.177 HD
ENDBRANCH  18  20
ENDBRANCH  10  18
TORSDOF 6
ENDMDL
MODEL 5
REMARK VINA RESULT: -4.124493210      4.914      6.102
REMARK  6 active torsions:
REMARK  status: ('A' for Active; 'I' for Inactive)
REMARK    1  A    between atoms: C2_2  and  C3_3 
REMARK    2  A    between atoms: C3_3  and  N1_4 
REMARK    3  A    between atoms: N1_4  and  C4_7 
REMARK    4  A    between atoms: C4_7  and  N2_8 
REMARK    5  A    between atoms: C6_17  and  N6_18 
REMARK    6  A    between atoms: N6_18  and  N7_20 
ROOT
HETATM    1  N2  UNL     1      11.707  10.205  25.802  1.00  0.00    -0.082 N 
HETATM    2  N3  UNL     1      10.548  10.297  26.425  1.00  0.00    -0.114 N 
ATOM      3  H3  UNL     1      10.279  11.063  27.042  1.00  0.00     0.206 HD
HETATM    4  C5  UNL     1       9.772   9.239  26.132  1.00  0.00     0.705 A 
HETATM    5  N4  UNL     1       8.579   8.979  26.548  1.00  0.00    -0.233 N 
ATOM      6  H41 UNL     1       7.989   8.177  26.325  1.00  0.00     0.174 HD
ATOM      7  H42 UNL     1       8.036   9.565  27.183  1.00  0.00     0.174 HD
HETATM    8  N5  UNL     1      10.484   8.472  25.299  1.00  0.00    -0.018 N 
ATOM      9  H5  UNL     1      10.180   7.589  24.889  1.00  0.00     0.203 HD
HETATM   10  C6  UNL     1      11.664   9.063  25.100  1.00  0.00     0.729 A 
ENDROOT
BRANCH   1  11
HETATM   11  C4  UNL     1      12.813  11.135  25.855  1.00  0.00     0.400 C 
BRANCH  11  12
HETATM   12  N1  UNL     1      12.517  12.355  25.130  1.00  0.00    -0.057 N 
ATOM     13  H12 UNL     1      11.673  12.270  24.562  1.00  0.00     0.279 HD
ATOM     14  H11 UNL     1      13.184  12.526  24.378  1.00  0.00     0.279 HD
BRANCH  12  15
HETATM   15  C3  UNL     1      12.441  13.461  26.052  1.00  0.00     0.234 C 
BRANCH  15  16
HETATM   16  C2  UNL     1      13.791  13.895  26.519  1.00  0.00     0.023 C 
HETATM   17  C1  UNL     1      13.907  15.403  26.259  1.00  0.00     0.007 C 
ENDBRANCH  15  16
ENDBRANCH  12  15
ENDBRANCH  11  12
ENDBRANCH   1  11
BRANCH  10  18
HETATM   18  N6  UNL     1      12.740   8.604  24.286  1.00  0.00    -0.137 N 
ATOM     19  H6  UNL     1      13.582   9.178  24.235  1.00  0.00     0.205 HD
BRANCH  18  20
HETATM   20  N7  UNL     1      12.711   7.432  23.564  1.00  0.00    -0.331 N 
ATOM     21  H72 UNL     1      11.801   6.989  23.438  1.00  0.00     0.177 HD
ATOM     22  H71 UNL     1      13.538   6.994  23.158  1.00  0.00     0.177 HD
ENDBRANCH  18  20
ENDBRANCH  10  18
TORSDOF 6
ENDMDL
