MODEL 1
REMARK VINA RESULT: -6.873576996      0.000      0.000
REMARK  1 active torsions:
REMARK  status: ('A' for Active; 'I' for Inactive)
REMARK    1  A    between atoms: C5_5  and  O1_6 
ROOT
HETATM    1  C1  UNL     1      22.072  -7.048  11.418  1.00  0.00     0.015 C 
HETATM    2  C2  UNL     1      20.973  -7.349  11.819  1.00  0.00    -0.085 C 
HETATM    3  C3  UNL     1      19.641  -7.733  12.302  1.00  0.00     0.209 C 
HETATM    4  C4  UNL     1      18.770  -6.544  12.526  1.00  0.00     0.082 C 
HETATM    5  C5  UNL     1      17.693  -6.351  11.519  1.00  0.00     0.157 C 
HETATM    6  C6  UNL     1      16.978  -7.614  11.205  1.00  0.00     0.004 A 
HETATM    7  C7  UNL     1      15.607  -7.648  10.983  1.00  0.00     0.012 A 
HETATM    8  C8  UNL     1      14.967  -8.839  10.692  1.00  0.00     0.001 A 
HETATM    9  C9  UNL     1      15.724  -9.990  10.630  1.00  0.00     0.003 A 
HETATM   10  C10 UNL     1      17.084  -9.935  10.854  1.00  0.00     0.037 A 
HETATM   11  C11 UNL     1      17.738  -8.764  11.144  1.00  0.00     0.079 A 
HETATM   12  O2  UNL     1      19.097  -8.663  11.374  1.00  0.00    -0.333 OA
ENDROOT
BRANCH   5  13
HETATM   13  O1  UNL     1      18.273  -5.827  10.340  1.00  0.00    -0.391 OA
ATOM     14  H1  UNL     1      17.575  -5.514   9.776  1.00  0.00     0.210 HD
ENDBRANCH   5  13
TORSDOF 1
ENDMDL
MODEL 2
REMARK VINA RESULT: -6.527295603      1.770      3.179
REMARK  1 active torsions:
REMARK  status: ('A' for Active; 'I' for Inactive)
REMARK    1  A    between atoms: C5_5  and  O1_6 
ROOT
HETATM    1  C1  UNL     1      23.108  -7.267  14.059  1.00  0.00     0.015 C 
HETATM    2  C2  UNL     1      22.392  -7.523  13.120  1.00  0.00    -0.085 C 
HETATM    3  C3  UNL     1      21.512  -7.818  11.983  1.00  0.00     0.209 C 
HETATM    4  C4  UNL     1      21.619  -9.242  11.555  1.00  0.00     0.082 C 
HETATM    5  C5  UNL     1      20.457 -10.098  11.909  1.00  0.00     0.157 C 
HETATM    6  C6  UNL     1      19.159  -9.441  11.612  1.00  0.00     0.004 A 
HETATM    7  C7  UNL     1      18.072 -10.149  11.113  1.00  0.00     0.012 A 
HETATM    8  C8  UNL     1      16.874  -9.510  10.846  1.00  0.00     0.001 A 
HETATM    9  C9  UNL     1      16.788  -8.155  11.086  1.00  0.00     0.003 A 
HETATM   10  C10 UNL     1      17.879  -7.471  11.581  1.00  0.00     0.037 A 
HETATM   11  C11 UNL     1      19.075  -8.085  11.853  1.00  0.00     0.079 A 
HETATM   12  O2  UNL     1      20.191  -7.438  12.349  1.00  0.00    -0.333 OA
ENDROOT
BRANCH   5  13
HETATM   13  O1  UNL     1      20.530 -10.405  13.287  1.00  0.00    -0.391 OA
ATOM     14  H1  UNL     1      19.937 -11.125  13.467  1.00  0.00     0.210 HD
ENDBRANCH   5  13
TORSDOF 1
ENDMDL
MODEL 3
REMARK VINA RESULT: -6.446482368      1.278      1.777
REMARK  1 active torsions:
REMARK  status: ('A' for Active; 'I' for Inactive)
REMARK    1  A    between atoms: C5_5  and  O1_6 
ROOT
HETATM    1  C1  UNL     1      22.309  -9.250  11.481  1.00  0.00     0.015 C 
HETATM    2  C2  UNL     1      21.260  -8.872  11.945  1.00  0.00    -0.085 C 
HETATM    3  C3  UNL     1      19.976  -8.427  12.502  1.00  0.00     0.209 C 
HETATM    4  C4  UNL     1      20.022  -6.999  12.925  1.00  0.00     0.082 C 
HETATM    5  C5  UNL     1      19.286  -6.054  12.043  1.00  0.00     0.157 C 
HETATM    6  C6  UNL     1      17.944  -6.563  11.664  1.00  0.00     0.004 A 
HETATM    7  C7  UNL     1      16.840  -5.725  11.561  1.00  0.00     0.012 A 
HETATM    8  C8  UNL     1      15.601  -6.227  11.205  1.00  0.00     0.001 A 
HETATM    9  C9  UNL     1      15.490  -7.578  10.956  1.00  0.00     0.003 A 
HETATM   10  C10 UNL     1      16.598  -8.393  11.063  1.00  0.00     0.037 A 
HETATM   11  C11 UNL     1      17.835  -7.916  11.414  1.00  0.00     0.079 A 
HETATM   12  O2  UNL     1      18.970  -8.696  11.533  1.00  0.00    -0.333 OA
ENDROOT
BRANCH   5  13
HETATM   13  O1  UNL     1      20.059  -5.836  10.879  1.00  0.00    -0.391 OA
ATOM     14  H1  UNL     1      20.299  -4.916  10.846  1.00  0.00     0.210 HD
ENDBRANCH   5  13
TORSDOF 1
ENDMDL
MODEL 4
REMARK VINA RESULT: -6.297527369      1.626      2.265
REMARK  1 active torsions:
REMARK  status: ('A' for Active; 'I' for Inactive)
REMARK    1  A    between atoms: C5_5  and  O1_6 
ROOT
HETATM    1  C1  UNL     1      20.871  -3.683  12.147  1.00  0.00     0.015 C 
HETATM    2  C2  UNL     1      20.221  -4.648  12.471  1.00  0.00    -0.085 C 
HETATM    3  C3  UNL     1      19.446  -5.831  12.866  1.00  0.00     0.209 C 
HETATM    4  C4  UNL     1      17.988  -5.645  12.619  1.00  0.00     0.082 C 
HETATM    5  C5  UNL     1      17.439  -6.408  11.467  1.00  0.00     0.157 C 
HETATM    6  C6  UNL     1      17.915  -7.814  11.442  1.00  0.00     0.004 A 
HETATM    7  C7  UNL     1      17.088  -8.865  11.061  1.00  0.00     0.012 A 
HETATM    8  C8  UNL     1      17.558 -10.166  11.046  1.00  0.00     0.001 A 
HETATM    9  C9  UNL     1      18.865 -10.393  11.420  1.00  0.00     0.003 A 
HETATM   10  C10 UNL     1      19.670  -9.336  11.795  1.00  0.00     0.037 A 
HETATM   11  C11 UNL     1      19.224  -8.039  11.816  1.00  0.00     0.079 A 
HETATM   12  O2  UNL     1      19.994  -6.952  12.184  1.00  0.00    -0.333 OA
ENDROOT
BRANCH   5  13
HETATM   13  O1  UNL     1      17.824  -5.754  10.274  1.00  0.00    -0.391 OA
ATOM     14  H1  UNL     1      18.730  -5.479  10.361  1.00  0.00     0.210 HD
ENDBRANCH   5  13
TORSDOF 1
ENDMDL
MODEL 5
REMARK VINA RESULT: -6.158801807      2.502      3.819
REMARK  1 active torsions:
REMARK  status: ('A' for Active; 'I' for Inactive)
REMARK    1  A    between atoms: C5_5  and  O1_6 
ROOT
HETATM    1  C1  UNL     1      23.704  -9.761  14.144  1.00  0.00     0.015 C 
HETATM    2  C2  UNL     1      22.947  -9.614  13.215  1.00  0.00    -0.085 C 
HETATM    3  C3  UNL     1      22.023  -9.418  12.091  1.00  0.00     0.209 C 
HETATM    4  C4  UNL     1      21.551 -10.715  11.530  1.00  0.00     0.082 C 
HETATM    5  C5  UNL     1      20.142 -11.067  11.848  1.00  0.00     0.157 C 
HETATM    6  C6  UNL     1      19.217  -9.920  11.665  1.00  0.00     0.004 A 
HETATM    7  C7  UNL     1      17.938 -10.081  11.147  1.00  0.00     0.012 A 
HETATM    8  C8  UNL     1      17.097  -8.994  10.988  1.00  0.00     0.001 A 
HETATM    9  C9  UNL     1      17.561  -7.749  11.354  1.00  0.00     0.003 A 
HETATM   10  C10 UNL     1      18.835  -7.610  11.867  1.00  0.00     0.037 A 
HETATM   11  C11 UNL     1      19.684  -8.675  12.033  1.00  0.00     0.079 A 
HETATM   12  O2  UNL     1      20.965  -8.581  12.543  1.00  0.00    -0.333 OA
ENDROOT
BRANCH   5  13
HETATM   13  O1  UNL     1      20.085 -11.514  13.189  1.00  0.00    -0.391 OA
ATOM     14  H1  UNL     1      19.764 -12.409  13.193  1.00  0.00     0.210 HD
ENDBRANCH   5  13
TORSDOF 1
ENDMDL
