MODEL 1
REMARK VINA RESULT: -6.833379088      0.000      0.000
REMARK  2 active torsions:
REMARK  status: ('A' for Active; 'I' for Inactive)
REMARK    1  A    between atoms: C1_1  and  C7_11 
REMARK    2  A    between atoms: C2_2  and  C3_3 
ROOT
HETATM    1  C1  UNL     1      17.799  -6.649  11.810  1.00  0.00    -0.040 C 
HETATM    2  C2  UNL     1      18.391  -5.718  12.304  1.00  0.00    -0.023 C 
ENDROOT
BRANCH   2   3
HETATM    3  C3  UNL     1      19.104  -4.598  12.872  1.00  0.00     0.161 A 
HETATM    4  N1  UNL     1      18.625  -3.929  13.950  1.00  0.00    -0.345 N 
HETATM    5  C4  UNL     1      19.253  -2.890  14.504  1.00  0.00     0.091 A 
ATOM      6  H1  UNL     1      17.741  -4.235  14.356  1.00  0.00     0.167 HD
HETATM    7  C5  UNL     1      20.442  -2.446  13.989  1.00  0.00     0.034 A 
HETATM    8  C6  UNL     1      20.949  -3.111  12.893  1.00  0.00     0.091 A 
HETATM    9  N2  UNL     1      20.271  -4.159  12.371  1.00  0.00    -0.345 N 
ATOM     10  H2  UNL     1      20.663  -4.637  11.560  1.00  0.00     0.167 HD
ENDBRANCH   2   3
BRANCH   1  11
HETATM   11  C7  UNL     1      17.095  -7.753  11.194  1.00  0.00     0.086 A 
HETATM   12  C8  UNL     1      17.672  -9.025  11.148  1.00  0.00     0.039 A 
HETATM   13  C9  UNL     1      17.015 -10.075  10.570  1.00  0.00     0.004 A 
HETATM   14  C10 UNL     1      15.767  -9.847  10.033  1.00  0.00     0.017 A 
HETATM   15  C11 UNL     1      15.227  -8.582  10.094  1.00  0.00     0.089 A 
HETATM   16  N3  UNL     1      15.892  -7.549  10.674  1.00  0.00    -0.359 N 
ATOM     17  H3  UNL     1      15.469  -6.622  10.708  1.00  0.00     0.166 HD
ENDBRANCH   1  11
TORSDOF 2
ENDMDL
MODEL 2
REMARK VINA RESULT: -6.831392845      0.051      1.242
REMARK  2 active torsions:
REMARK  status: ('A' for Active; 'I' for Inactive)
REMARK    1  A    between atoms: C1_1  and  C7_11 
REMARK    2  A    between atoms: C2_2  and  C3_3 
ROOT
HETATM    1  C1  UNL     1      17.784  -6.663  11.819  1.00  0.00    -0.040 C 
HETATM    2  C2  UNL     1      18.379  -5.731  12.309  1.00  0.00    -0.023 C 
ENDROOT
BRANCH   2   3
HETATM    3  C3  UNL     1      19.097  -4.611  12.871  1.00  0.00     0.161 A 
HETATM    4  N1  UNL     1      20.285  -4.207  12.359  1.00  0.00    -0.345 N 
HETATM    5  C4  UNL     1      20.981  -3.178  12.850  1.00  0.00     0.091 A 
ATOM      6  H1  UNL     1      20.667  -4.713  11.561  1.00  0.00     0.167 HD
HETATM    7  C5  UNL     1      20.504  -2.471  13.923  1.00  0.00     0.034 A 
HETATM    8  C6  UNL     1      19.297  -2.865  14.460  1.00  0.00     0.091 A 
HETATM    9  N2  UNL     1      18.634  -3.915  13.923  1.00  0.00    -0.345 N 
ATOM     10  H2  UNL     1      17.743  -4.190  14.335  1.00  0.00     0.167 HD
ENDBRANCH   2   3
BRANCH   1  11
HETATM   11  C7  UNL     1      17.078  -7.769  11.209  1.00  0.00     0.086 A 
HETATM   12  C8  UNL     1      17.667  -9.034  11.138  1.00  0.00     0.039 A 
HETATM   13  C9  UNL     1      17.009 -10.085  10.565  1.00  0.00     0.004 A 
HETATM   14  C10 UNL     1      15.747  -9.866  10.059  1.00  0.00     0.017 A 
HETATM   15  C11 UNL     1      15.194  -8.608  10.145  1.00  0.00     0.089 A 
HETATM   16  N3  UNL     1      15.861  -7.574  10.718  1.00  0.00    -0.359 N 
ATOM     17  H3  UNL     1      15.429  -6.651  10.772  1.00  0.00     0.166 HD
ENDBRANCH   1  11
TORSDOF 2
ENDMDL
MODEL 3
REMARK VINA RESULT: -6.721114913      0.740      1.775
REMARK  2 active torsions:
REMARK  status: ('A' for Active; 'I' for Inactive)
REMARK    1  A    between atoms: C1_1  and  C7_11 
REMARK    2  A    between atoms: C2_2  and  C3_3 
ROOT
HETATM    1  C1  UNL     1      17.838  -6.695  11.848  1.00  0.00    -0.040 C 
HETATM    2  C2  UNL     1      18.415  -5.744  12.321  1.00  0.00    -0.023 C 
ENDROOT
BRANCH   2   3
HETATM    3  C3  UNL     1      19.116  -4.605  12.866  1.00  0.00     0.161 A 
HETATM    4  N1  UNL     1      20.287  -4.177  12.334  1.00  0.00    -0.345 N 
HETATM    5  C4  UNL     1      20.966  -3.130  12.808  1.00  0.00     0.091 A 
ATOM      6  H1  UNL     1      20.669  -4.681  11.534  1.00  0.00     0.167 HD
HETATM    7  C5  UNL     1      20.489  -2.426  13.882  1.00  0.00     0.034 A 
HETATM    8  C6  UNL     1      19.299  -2.843  14.440  1.00  0.00     0.091 A 
HETATM    9  N2  UNL     1      18.653  -3.911  13.919  1.00  0.00    -0.345 N 
ATOM     10  H2  UNL     1      17.773  -4.204  14.346  1.00  0.00     0.167 HD
ENDBRANCH   2   3
BRANCH   1  11
HETATM   11  C7  UNL     1      17.155  -7.826  11.257  1.00  0.00     0.086 A 
HETATM   12  C8  UNL     1      15.863  -7.685  10.743  1.00  0.00     0.039 A 
HETATM   13  C9  UNL     1      15.210  -8.747  10.183  1.00  0.00     0.004 A 
HETATM   14  C10 UNL     1      15.858  -9.961  10.137  1.00  0.00     0.017 A 
HETATM   15  C11 UNL     1      17.131 -10.066  10.651  1.00  0.00     0.089 A 
HETATM   16  N3  UNL     1      17.767  -9.001  11.204  1.00  0.00    -0.359 N 
ATOM     17  H3  UNL     1      18.712  -9.105  11.577  1.00  0.00     0.166 HD
ENDBRANCH   1  11
TORSDOF 2
ENDMDL
MODEL 4
REMARK VINA RESULT: -6.704369874      0.743      1.269
REMARK  2 active torsions:
REMARK  status: ('A' for Active; 'I' for Inactive)
REMARK    1  A    between atoms: C1_1  and  C7_11 
REMARK    2  A    between atoms: C2_2  and  C3_3 
ROOT
HETATM    1  C1  UNL     1      17.846  -6.692  11.853  1.00  0.00    -0.040 C 
HETATM    2  C2  UNL     1      18.427  -5.742  12.324  1.00  0.00    -0.023 C 
ENDROOT
BRANCH   2   3
HETATM    3  C3  UNL     1      19.132  -4.603  12.864  1.00  0.00     0.161 A 
HETATM    4  N1  UNL     1      18.658  -3.925  13.938  1.00  0.00    -0.345 N 
HETATM    5  C4  UNL     1      19.279  -2.868  14.467  1.00  0.00     0.091 A 
ATOM      6  H1  UNL     1      17.784  -4.237  14.361  1.00  0.00     0.167 HD
HETATM    7  C5  UNL     1      20.455  -2.416  13.928  1.00  0.00     0.034 A 
HETATM    8  C6  UNL     1      20.956  -3.090  12.835  1.00  0.00     0.091 A 
HETATM    9  N2  UNL     1      20.285  -4.156  12.339  1.00  0.00    -0.345 N 
ATOM     10  H2  UNL     1      20.673  -4.641  11.530  1.00  0.00     0.167 HD
ENDBRANCH   2   3
BRANCH   1  11
HETATM   11  C7  UNL     1      17.161  -7.824  11.266  1.00  0.00     0.086 A 
HETATM   12  C8  UNL     1      15.864  -7.686  10.765  1.00  0.00     0.039 A 
HETATM   13  C9  UNL     1      15.208  -8.747  10.209  1.00  0.00     0.004 A 
HETATM   14  C10 UNL     1      15.859  -9.960  10.155  1.00  0.00     0.017 A 
HETATM   15  C11 UNL     1      17.137 -10.063  10.657  1.00  0.00     0.089 A 
HETATM   16  N3  UNL     1      17.775  -8.998  11.206  1.00  0.00    -0.359 N 
ATOM     17  H3  UNL     1      18.723  -9.100  11.570  1.00  0.00     0.166 HD
ENDBRANCH   1  11
TORSDOF 2
ENDMDL
MODEL 5
REMARK VINA RESULT: -6.495762217      0.876      1.574
REMARK  2 active torsions:
REMARK  status: ('A' for Active; 'I' for Inactive)
REMARK    1  A    between atoms: C1_1  and  C7_11 
REMARK    2  A    between atoms: C2_2  and  C3_3 
ROOT
HETATM    1  C1  UNL     1      18.346  -6.330  12.308  1.00  0.00    -0.040 C 
HETATM    2  C2  UNL     1      18.756  -5.318  12.826  1.00  0.00    -0.023 C 
ENDROOT
BRANCH   2   3
HETATM    3  C3  UNL     1      19.268  -4.118  13.446  1.00  0.00     0.161 A 
HETATM    4  N1  UNL     1      20.297  -3.426  12.900  1.00  0.00    -0.345 N 
HETATM    5  C4  UNL     1      20.800  -2.314  13.441  1.00  0.00     0.091 A 
ATOM      6  H1  UNL     1      20.708  -3.772  12.033  1.00  0.00     0.167 HD
HETATM    7  C5  UNL     1      20.277  -1.816  14.605  1.00  0.00     0.034 A 
HETATM    8  C6  UNL     1      19.229  -2.503  15.179  1.00  0.00     0.091 A 
HETATM    9  N2  UNL     1      18.759  -3.625  14.588  1.00  0.00    -0.345 N 
ATOM     10  H2  UNL     1      17.983  -4.119  15.028  1.00  0.00     0.167 HD
ENDBRANCH   2   3
BRANCH   1  11
HETATM   11  C7  UNL     1      17.880  -7.551  11.686  1.00  0.00     0.086 A 
HETATM   12  C8  UNL     1      18.701  -8.682  11.639  1.00  0.00     0.039 A 
HETATM   13  C9  UNL     1      18.270  -9.839  11.055  1.00  0.00     0.004 A 
HETATM   14  C10 UNL     1      17.005  -9.864  10.512  1.00  0.00     0.017 A 
HETATM   15  C11 UNL     1      16.221  -8.733  10.573  1.00  0.00     0.089 A 
HETATM   16  N3  UNL     1      16.664  -7.591  11.159  1.00  0.00    -0.359 N 
ATOM     17  H3  UNL     1      16.063  -6.766  11.194  1.00  0.00     0.166 HD
ENDBRANCH   1  11
TORSDOF 2
ENDMDL
