MODEL 1
REMARK VINA RESULT: -7.016347821      0.000      0.000
REMARK  4 active torsions:
REMARK  status: ('A' for Active; 'I' for Inactive)
REMARK    1  A    between atoms: O1_1  and  N1_3 
REMARK    2  A    between atoms: C2_5  and  N2_6 
REMARK    3  A    between atoms: N2_6  and  N3_8 
REMARK    4  A    between atoms: N3_8  and  C3_10 
ROOT
HETATM    1  N2  UNL     1       3.761   3.865   7.649  1.00  0.00    -0.269 N 
ATOM      2  H2  UNL     1       3.917   3.867   8.657  1.00  0.00     0.189 HD
ENDROOT
BRANCH   1   3
HETATM    3  C2  UNL     1       4.148   2.733   6.897  1.00  0.00     0.153 A 
HETATM    4  C1  UNL     1       3.388   1.666   6.462  1.00  0.00     0.192 A 
HETATM    5  N1  UNL     1       4.213   0.844   5.779  1.00  0.00    -0.155 N 
HETATM    6  N8  UNL     1       5.440   1.381   5.792  1.00  0.00     0.007 NA
HETATM    7  N7  UNL     1       5.409   2.522   6.465  1.00  0.00    -0.265 N 
ATOM      8  H7  UNL     1       6.206   3.138   6.628  1.00  0.00     0.186 HD
BRANCH   5   9
HETATM    9  O1  UNL     1       3.880  -0.338   5.172  1.00  0.00    -0.270 OA
ATOM     10  H1  UNL     1       4.379  -0.801   4.510  1.00  0.00     0.246 HD
ENDBRANCH   5   9
ENDBRANCH   1   3
BRANCH   1  11
HETATM   11  N3  UNL     1       3.175   4.977   7.055  1.00  0.00    -0.128 N 
ATOM     12  H3  UNL     1       3.672   5.867   7.078  1.00  0.00     0.205 HD
BRANCH  11  13
HETATM   13  C3  UNL     1       1.906   4.916   6.417  1.00  0.00     0.723 A 
HETATM   14  N4  UNL     1       1.141   4.022   5.797  1.00  0.00    -0.113 N 
HETATM   15  N5  UNL     1       0.175   4.913   5.564  1.00  0.00     0.007 NA
ATOM     16  H4  UNL     1       1.251   3.030   5.582  1.00  0.00     0.203 HD
HETATM   17  N6  UNL     1       0.928   5.818   6.181  1.00  0.00    -0.113 N 
ATOM     18  H6  UNL     1       0.812   6.808   6.394  1.00  0.00     0.203 HD
ENDBRANCH  11  13
ENDBRANCH   1  11
TORSDOF 4
ENDMDL
MODEL 2
REMARK VINA RESULT: -6.895526558      2.587      5.195
REMARK  4 active torsions:
REMARK  status: ('A' for Active; 'I' for Inactive)
REMARK    1  A    between atoms: O1_1  and  N1_3 
REMARK    2  A    between atoms: C2_5  and  N2_6 
REMARK    3  A    between atoms: N2_6  and  N3_8 
REMARK    4  A    between atoms: N3_8  and  C3_10 
ROOT
HETATM    1  N2  UNL     1       2.464   1.934   5.776  1.00  0.00    -0.269 N 
ATOM      2  H2  UNL     1       2.552   1.424   4.897  1.00  0.00     0.189 HD
ENDROOT
BRANCH   1   3
HETATM    3  C2  UNL     1       1.907   3.232   5.764  1.00  0.00     0.153 A 
HETATM    4  C1  UNL     1       2.529   4.456   5.908  1.00  0.00     0.192 A 
HETATM    5  N1  UNL     1       1.570   5.402   5.819  1.00  0.00    -0.155 N 
HETATM    6  N8  UNL     1       0.396   4.787   5.628  1.00  0.00     0.007 NA
HETATM    7  N7  UNL     1       0.591   3.476   5.592  1.00  0.00    -0.265 N 
ATOM      8  H7  UNL     1      -0.133   2.771   5.459  1.00  0.00     0.186 HD
BRANCH   5   9
HETATM    9  O1  UNL     1       1.740   6.759   5.907  1.00  0.00    -0.270 OA
ATOM     10  H1  UNL     1       2.369   7.288   5.431  1.00  0.00     0.246 HD
ENDBRANCH   5   9
ENDBRANCH   1   3
BRANCH   1  11
HETATM   11  N3  UNL     1       2.897   1.330   6.951  1.00  0.00    -0.128 N 
ATOM     12  H3  UNL     1       2.217   0.841   7.533  1.00  0.00     0.205 HD
BRANCH  11  13
HETATM   13  C3  UNL     1       4.255   1.370   7.370  1.00  0.00     0.723 A 
HETATM   14  N4  UNL     1       4.950   1.448   8.502  1.00  0.00    -0.113 N 
HETATM   15  N5  UNL     1       6.120   1.422   7.862  1.00  0.00     0.007 NA
ATOM     16  H4  UNL     1       4.687   1.505   9.486  1.00  0.00     0.203 HD
HETATM   17  N6  UNL     1       5.440   1.344   6.723  1.00  0.00    -0.113 N 
ATOM     18  H6  UNL     1       5.709   1.286   5.740  1.00  0.00     0.203 HD
ENDBRANCH  11  13
ENDBRANCH   1  11
TORSDOF 4
ENDMDL
MODEL 3
REMARK VINA RESULT: -6.823735464      2.435      5.038
REMARK  4 active torsions:
REMARK  status: ('A' for Active; 'I' for Inactive)
REMARK    1  A    between atoms: O1_1  and  N1_3 
REMARK    2  A    between atoms: C2_5  and  N2_6 
REMARK    3  A    between atoms: N2_6  and  N3_8 
REMARK    4  A    between atoms: N3_8  and  C3_10 
ROOT
HETATM    1  N2  UNL     1       4.362   3.747   6.514  1.00  0.00    -0.269 N 
ATOM      2  H2  UNL     1       5.084   4.458   6.624  1.00  0.00     0.189 HD
ENDROOT
BRANCH   1   3
HETATM    3  C2  UNL     1       3.007   4.147   6.470  1.00  0.00     0.153 A 
HETATM    4  C1  UNL     1       1.968   3.647   5.712  1.00  0.00     0.192 A 
HETATM    5  N1  UNL     1       0.866   4.359   6.030  1.00  0.00    -0.155 N 
HETATM    6  N8  UNL     1       1.210   5.269   6.951  1.00  0.00     0.007 NA
HETATM    7  N7  UNL     1       2.501   5.147   7.223  1.00  0.00    -0.265 N 
ATOM      8  H7  UNL     1       3.025   5.714   7.889  1.00  0.00     0.186 HD
BRANCH   5   9
HETATM    9  O1  UNL     1      -0.394   4.202   5.515  1.00  0.00    -0.270 OA
ATOM     10  H1  UNL     1      -1.155   4.742   5.691  1.00  0.00     0.246 HD
ENDBRANCH   5   9
ENDBRANCH   1   3
BRANCH   1  11
HETATM   11  N3  UNL     1       4.738   2.413   6.414  1.00  0.00    -0.128 N 
ATOM     12  H3  UNL     1       4.575   1.920   5.536  1.00  0.00     0.205 HD
BRANCH  11  13
HETATM   13  C3  UNL     1       5.345   1.711   7.492  1.00  0.00     0.723 A 
HETATM   14  N4  UNL     1       6.471   1.052   7.747  1.00  0.00    -0.113 N 
HETATM   15  N5  UNL     1       6.101   0.773   8.998  1.00  0.00     0.007 NA
ATOM     16  H4  UNL     1       7.303   0.841   7.196  1.00  0.00     0.203 HD
HETATM   17  N6  UNL     1       4.970   1.429   8.759  1.00  0.00    -0.113 N 
ATOM     18  H6  UNL     1       4.142   1.638   9.315  1.00  0.00     0.203 HD
ENDBRANCH  11  13
ENDBRANCH   1  11
TORSDOF 4
ENDMDL
MODEL 4
REMARK VINA RESULT: -6.794983547      2.124      4.443
REMARK  4 active torsions:
REMARK  status: ('A' for Active; 'I' for Inactive)
REMARK    1  A    between atoms: O1_1  and  N1_3 
REMARK    2  A    between atoms: C2_5  and  N2_6 
REMARK    3  A    between atoms: N2_6  and  N3_8 
REMARK    4  A    between atoms: N3_8  and  C3_10 
ROOT
HETATM    1  N2  UNL     1       4.365   3.837   6.530  1.00  0.00    -0.269 N 
ATOM      2  H2  UNL     1       5.075   4.537   6.314  1.00  0.00     0.189 HD
ENDROOT
BRANCH   1   3
HETATM    3  C2  UNL     1       3.002   4.207   6.484  1.00  0.00     0.153 A 
HETATM    4  C1  UNL     1       1.982   3.707   5.700  1.00  0.00     0.192 A 
HETATM    5  N1  UNL     1       0.860   4.383   6.028  1.00  0.00    -0.155 N 
HETATM    6  N8  UNL     1       1.175   5.272   6.979  1.00  0.00     0.007 NA
HETATM    7  N7  UNL     1       2.466   5.172   7.261  1.00  0.00    -0.265 N 
ATOM      8  H7  UNL     1       2.969   5.731   7.949  1.00  0.00     0.186 HD
BRANCH   5   9
HETATM    9  O1  UNL     1      -0.390   4.212   5.495  1.00  0.00    -0.270 OA
ATOM     10  H1  UNL     1      -0.606   4.053   4.584  1.00  0.00     0.246 HD
ENDBRANCH   5   9
ENDBRANCH   1   3
BRANCH   1  11
HETATM   11  N3  UNL     1       4.767   2.549   6.862  1.00  0.00    -0.128 N 
ATOM     12  H3  UNL     1       5.683   2.413   7.288  1.00  0.00     0.205 HD
BRANCH  11  13
HETATM   13  C3  UNL     1       3.944   1.413   6.629  1.00  0.00     0.723 A 
HETATM   14  N4  UNL     1       3.018   0.702   7.266  1.00  0.00    -0.113 N 
HETATM   15  N5  UNL     1       2.862  -0.137   6.240  1.00  0.00     0.007 NA
ATOM     16  H4  UNL     1       2.589   0.772   8.190  1.00  0.00     0.203 HD
HETATM   17  N6  UNL     1       3.785   0.564   5.590  1.00  0.00    -0.113 N 
ATOM     18  H6  UNL     1       4.210   0.489   4.666  1.00  0.00     0.203 HD
ENDBRANCH  11  13
ENDBRANCH   1  11
TORSDOF 4
ENDMDL
MODEL 5
REMARK VINA RESULT: -6.699878348      1.675      2.222
REMARK  4 active torsions:
REMARK  status: ('A' for Active; 'I' for Inactive)
REMARK    1  A    between atoms: O1_1  and  N1_3 
REMARK    2  A    between atoms: C2_5  and  N2_6 
REMARK    3  A    between atoms: N2_6  and  N3_8 
REMARK    4  A    between atoms: N3_8  and  C3_10 
ROOT
HETATM    1  N2  UNL     1       1.759   2.140   6.613  1.00  0.00    -0.269 N 
ATOM      2  H2  UNL     1       1.299   1.635   7.370  1.00  0.00     0.189 HD
ENDROOT
BRANCH   1   3
HETATM    3  C2  UNL     1       3.131   1.908   6.367  1.00  0.00     0.153 A 
HETATM    4  C1  UNL     1       4.218   2.723   6.612  1.00  0.00     0.192 A 
HETATM    5  N1  UNL     1       5.317   2.053   6.207  1.00  0.00    -0.155 N 
HETATM    6  N8  UNL     1       4.926   0.865   5.727  1.00  0.00     0.007 NA
HETATM    7  N7  UNL     1       3.607   0.769   5.821  1.00  0.00    -0.265 N 
ATOM      8  H7  UNL     1       3.047  -0.031   5.528  1.00  0.00     0.186 HD
BRANCH   5   9
HETATM    9  O1  UNL     1       6.615   2.488   6.264  1.00  0.00    -0.270 OA
ATOM     10  H1  UNL     1       7.176   2.707   5.530  1.00  0.00     0.246 HD
ENDBRANCH   5   9
ENDBRANCH   1   3
BRANCH   1  11
HETATM   11  N3  UNL     1       1.017   3.037   5.853  1.00  0.00    -0.128 N 
ATOM     12  H3  UNL     1       0.272   2.679   5.256  1.00  0.00     0.205 HD
BRANCH  11  13
HETATM   13  C3  UNL     1       1.261   4.438   5.880  1.00  0.00     0.723 A 
HETATM   14  N4  UNL     1       0.755   5.529   6.448  1.00  0.00    -0.113 N 
HETATM   15  N5  UNL     1       1.651   6.327   5.864  1.00  0.00     0.007 NA
ATOM     16  H4  UNL     1      -0.023   5.694   7.088  1.00  0.00     0.203 HD
HETATM   17  N6  UNL     1       2.167   5.246   5.289  1.00  0.00    -0.113 N 
ATOM     18  H6  UNL     1       2.946   5.088   4.650  1.00  0.00     0.203 HD
ENDBRANCH  11  13
ENDBRANCH   1  11
TORSDOF 4
ENDMDL
