MODEL 1
REMARK VINA RESULT: -5.518208657      0.000      0.000
REMARK  5 active torsions:
REMARK  status: ('A' for Active; 'I' for Inactive)
REMARK    1  A    between atoms: C3_5  and  C4_6 
REMARK    2  A    between atoms: C4_6  and  N3_7 
REMARK    3  A    between atoms: C4_6  and  C5_11 
REMARK    4  A    between atoms: C5_11  and  N4_12 
REMARK    5  A    between atoms: C6_17  and  N5_18 
ROOT
HETATM    1  C1  UNL     1       1.521   5.469   6.012  1.00  0.00     0.161 C 
HETATM    2  N1  UNL     1       2.573   4.539   6.331  1.00  0.00    -0.304 N 
HETATM    3  C2  UNL     1       2.721   3.275   5.940  1.00  0.00     0.153 A 
HETATM    4  N2  UNL     1       1.824   2.519   5.129  1.00  0.00    -0.080 NA
HETATM    5  C3  UNL     1       3.948   2.810   6.432  1.00  0.00     0.130 A 
HETATM    6  O1  UNL     1       4.493   3.785   7.085  1.00  0.00    -0.278 OA
HETATM    7  C6  UNL     1       3.672   4.852   7.046  1.00  0.00     0.225 A 
ENDROOT
BRANCH   5   8
HETATM    8  C4  UNL     1       4.455   1.454   6.249  1.00  0.00     0.269 C 
BRANCH   8   9
HETATM    9  N3  UNL     1       3.392   0.596   6.987  1.00  0.00    -0.067 N 
ATOM     10  H33 UNL     1       3.738   0.093   7.804  1.00  0.00     0.275 HD
ATOM     11  H32 UNL     1       2.684   1.130   7.491  1.00  0.00     0.275 HD
ATOM     12  H31 UNL     1       3.030   0.003   6.241  1.00  0.00     0.275 HD
ENDBRANCH   8   9
BRANCH   8  13
HETATM   13  C5  UNL     1       5.707   1.195   7.086  1.00  0.00     0.269 C 
BRANCH  13  14
HETATM   14  N4  UNL     1       5.422   1.310   8.510  1.00  0.00    -0.077 N 
ATOM     15  H43 UNL     1       4.473   1.645   8.676  1.00  0.00     0.274 HD
ATOM     16  H42 UNL     1       5.344   0.394   8.952  1.00  0.00     0.274 HD
ATOM     17  H41 UNL     1       6.115   1.895   8.978  1.00  0.00     0.274 HD
ENDBRANCH  13  14
ENDBRANCH   8  13
ENDBRANCH   5   8
BRANCH   7  18
HETATM   18  N5  UNL     1       4.000   5.923   7.627  1.00  0.00    -0.365 N 
ATOM     19  H52 UNL     1       3.927   6.814   7.135  1.00  0.00     0.159 HD
ATOM     20  H51 UNL     1       4.350   6.089   8.570  1.00  0.00     0.159 HD
ENDBRANCH   7  18
TORSDOF 5
ENDMDL
MODEL 2
REMARK VINA RESULT: -5.231243719      1.256      2.535
REMARK  5 active torsions:
REMARK  status: ('A' for Active; 'I' for Inactive)
REMARK    1  A    between atoms: C3_5  and  C4_6 
REMARK    2  A    between atoms: C4_6  and  N3_7 
REMARK    3  A    between atoms: C4_6  and  C5_11 
REMARK    4  A    between atoms: C5_11  and  N4_12 
REMARK    5  A    between atoms: C6_17  and  N5_18 
ROOT
HETATM    1  C1  UNL     1       1.362   5.458   6.165  1.00  0.00     0.161 C 
HETATM    2  N1  UNL     1       2.437   4.502   6.224  1.00  0.00    -0.304 N 
HETATM    3  C2  UNL     1       3.673   4.658   6.695  1.00  0.00     0.153 A 
HETATM    4  N2  UNL     1       4.243   5.854   7.221  1.00  0.00    -0.080 NA
HETATM    5  C3  UNL     1       4.324   3.420   6.625  1.00  0.00     0.130 A 
HETATM    6  O1  UNL     1       3.481   2.571   6.130  1.00  0.00    -0.278 OA
HETATM    7  C6  UNL     1       2.322   3.206   5.870  1.00  0.00     0.225 A 
ENDROOT
BRANCH   5   8
HETATM    8  C4  UNL     1       5.712   3.188   7.012  1.00  0.00     0.269 C 
BRANCH   8   9
HETATM    9  N3  UNL     1       6.102   1.961   6.142  1.00  0.00    -0.067 N 
ATOM     10  H33 UNL     1       6.816   2.145   5.438  1.00  0.00     0.275 HD
ATOM     11  H32 UNL     1       6.628   1.238   6.632  1.00  0.00     0.275 HD
ATOM     12  H31 UNL     1       5.201   1.659   5.771  1.00  0.00     0.275 HD
ENDBRANCH   8   9
BRANCH   8  13
HETATM   13  C5  UNL     1       5.823   2.620   8.427  1.00  0.00     0.269 C 
BRANCH  13  14
HETATM   14  N4  UNL     1       5.067   1.382   8.558  1.00  0.00    -0.077 N 
ATOM     15  H43 UNL     1       4.640   1.108   7.674  1.00  0.00     0.274 HD
ATOM     16  H42 UNL     1       5.683   0.579   8.689  1.00  0.00     0.274 HD
ATOM     17  H41 UNL     1       4.375   1.450   9.305  1.00  0.00     0.274 HD
ENDBRANCH  13  14
ENDBRANCH   8  13
ENDBRANCH   5   8
BRANCH   7  18
HETATM   18  N5  UNL     1       1.351   2.571   5.374  1.00  0.00    -0.365 N 
ATOM     19  H52 UNL     1       1.505   1.924   4.601  1.00  0.00     0.159 HD
ATOM     20  H51 UNL     1       0.360   2.575   5.615  1.00  0.00     0.159 HD
ENDBRANCH   7  18
TORSDOF 5
ENDMDL
MODEL 3
REMARK VINA RESULT: -5.225240168      1.511      2.702
REMARK  5 active torsions:
REMARK  status: ('A' for Active; 'I' for Inactive)
REMARK    1  A    between atoms: C3_5  and  C4_6 
REMARK    2  A    between atoms: C4_6  and  N3_7 
REMARK    3  A    between atoms: C4_6  and  C5_11 
REMARK    4  A    between atoms: C5_11  and  N4_12 
REMARK    5  A    between atoms: C6_17  and  N5_18 
ROOT
HETATM    1  C1  UNL     1       4.901   6.171   8.216  1.00  0.00     0.161 C 
HETATM    2  N1  UNL     1       4.517   4.902   7.654  1.00  0.00    -0.304 N 
HETATM    3  C2  UNL     1       3.569   4.634   6.758  1.00  0.00     0.153 A 
HETATM    4  N2  UNL     1       2.661   5.563   6.170  1.00  0.00    -0.080 NA
HETATM    5  C3  UNL     1       3.634   3.269   6.452  1.00  0.00     0.130 A 
HETATM    6  O1  UNL     1       4.601   2.765   7.150  1.00  0.00    -0.278 OA
HETATM    7  C6  UNL     1       5.154   3.739   7.899  1.00  0.00     0.225 A 
ENDROOT
BRANCH   5   8
HETATM    8  C4  UNL     1       2.731   2.579   5.538  1.00  0.00     0.269 C 
BRANCH   8   9
HETATM    9  N3  UNL     1       1.350   2.770   6.223  1.00  0.00    -0.067 N 
ATOM     10  H33 UNL     1       1.007   1.956   6.732  1.00  0.00     0.275 HD
ATOM     11  H32 UNL     1       1.353   3.397   7.027  1.00  0.00     0.275 HD
ATOM     12  H31 UNL     1       0.759   3.071   5.448  1.00  0.00     0.275 HD
ENDBRANCH   8   9
BRANCH   8  13
HETATM   13  C5  UNL     1       2.905   1.061   5.598  1.00  0.00     0.269 C 
BRANCH  13  14
HETATM   14  N4  UNL     1       2.855   0.580   6.972  1.00  0.00    -0.077 N 
ATOM     15  H43 UNL     1       3.780   0.570   7.400  1.00  0.00     0.274 HD
ATOM     16  H42 UNL     1       2.404   1.255   7.589  1.00  0.00     0.274 HD
ATOM     17  H41 UNL     1       2.406  -0.335   7.026  1.00  0.00     0.274 HD
ENDBRANCH  13  14
ENDBRANCH   8  13
ENDBRANCH   5   8
BRANCH   7  18
HETATM   18  N5  UNL     1       6.118   3.474   8.669  1.00  0.00    -0.365 N 
ATOM     19  H52 UNL     1       5.962   3.391   9.673  1.00  0.00     0.159 HD
ATOM     20  H51 UNL     1       7.104   3.309   8.468  1.00  0.00     0.159 HD
ENDBRANCH   7  18
TORSDOF 5
ENDMDL
MODEL 4
REMARK VINA RESULT: -5.148163580      1.712      4.287
REMARK  5 active torsions:
REMARK  status: ('A' for Active; 'I' for Inactive)
REMARK    1  A    between atoms: C3_5  and  C4_6 
REMARK    2  A    between atoms: C4_6  and  N3_7 
REMARK    3  A    between atoms: C4_6  and  C5_11 
REMARK    4  A    between atoms: C5_11  and  N4_12 
REMARK    5  A    between atoms: C6_17  and  N5_18 
ROOT
HETATM    1  C1  UNL     1       6.550   3.896   8.653  1.00  0.00     0.161 C 
HETATM    2  N1  UNL     1       5.361   3.671   7.874  1.00  0.00    -0.304 N 
HETATM    3  C2  UNL     1       4.577   4.559   7.265  1.00  0.00     0.153 A 
HETATM    4  N2  UNL     1       4.716   5.978   7.285  1.00  0.00    -0.080 NA
HETATM    5  C3  UNL     1       3.596   3.856   6.554  1.00  0.00     0.130 A 
HETATM    6  O1  UNL     1       3.814   2.595   6.745  1.00  0.00    -0.278 OA
HETATM    7  C6  UNL     1       4.883   2.452   7.553  1.00  0.00     0.225 A 
ENDROOT
BRANCH   5   8
HETATM    8  C4  UNL     1       2.522   4.477   5.786  1.00  0.00     0.269 C 
BRANCH   8   9
HETATM    9  N3  UNL     1       1.902   5.463   6.814  1.00  0.00    -0.067 N 
ATOM     10  H33 UNL     1       1.373   6.233   6.405  1.00  0.00     0.275 HD
ATOM     11  H32 UNL     1       1.126   5.085   7.357  1.00  0.00     0.275 HD
ATOM     12  H31 UNL     1       2.713   5.746   7.365  1.00  0.00     0.275 HD
ENDBRANCH   8   9
BRANCH   8  13
HETATM   13  C5  UNL     1       1.364   3.511   5.537  1.00  0.00     0.269 C 
BRANCH  13  14
HETATM   14  N4  UNL     1       0.083   4.135   5.840  1.00  0.00    -0.077 N 
ATOM     15  H43 UNL     1      -0.108   4.133   6.842  1.00  0.00     0.274 HD
ATOM     16  H42 UNL     1       0.113   5.144   5.689  1.00  0.00     0.274 HD
ATOM     17  H41 UNL     1      -0.673   3.699   5.312  1.00  0.00     0.274 HD
ENDBRANCH  13  14
ENDBRANCH   8  13
ENDBRANCH   5   8
BRANCH   7  18
HETATM   18  N5  UNL     1       5.277   1.300   7.882  1.00  0.00    -0.365 N 
ATOM     19  H52 UNL     1       5.738   1.154   8.780  1.00  0.00     0.159 HD
ATOM     20  H51 UNL     1       5.217   0.409   7.388  1.00  0.00     0.159 HD
ENDBRANCH   7  18
TORSDOF 5
ENDMDL
MODEL 5
REMARK VINA RESULT: -5.085942029      1.686      3.000
REMARK  5 active torsions:
REMARK  status: ('A' for Active; 'I' for Inactive)
REMARK    1  A    between atoms: C3_5  and  C4_6 
REMARK    2  A    between atoms: C4_6  and  N3_7 
REMARK    3  A    between atoms: C4_6  and  C5_11 
REMARK    4  A    between atoms: C5_11  and  N4_12 
REMARK    5  A    between atoms: C6_17  and  N5_18 
ROOT
HETATM    1  C1  UNL     1       6.735   4.111   7.464  1.00  0.00     0.161 C 
HETATM    2  N1  UNL     1       5.347   4.000   7.100  1.00  0.00    -0.304 N 
HETATM    3  C2  UNL     1       4.721   3.004   6.475  1.00  0.00     0.153 A 
HETATM    4  N2  UNL     1       5.310   1.808   5.969  1.00  0.00    -0.080 NA
HETATM    5  C3  UNL     1       3.356   3.311   6.428  1.00  0.00     0.130 A 
HETATM    6  O1  UNL     1       3.199   4.453   7.016  1.00  0.00    -0.278 OA
HETATM    7  C6  UNL     1       4.400   4.901   7.431  1.00  0.00     0.225 A 
ENDROOT
BRANCH   5   8
HETATM    8  C4  UNL     1       2.340   2.483   5.786  1.00  0.00     0.269 C 
BRANCH   8   9
HETATM    9  N3  UNL     1       1.117   3.439   5.724  1.00  0.00    -0.067 N 
ATOM     10  H33 UNL     1       1.304   4.394   6.029  1.00  0.00     0.275 HD
ATOM     11  H32 UNL     1       0.818   3.692   4.783  1.00  0.00     0.275 HD
ATOM     12  H31 UNL     1       0.420   2.941   6.276  1.00  0.00     0.275 HD
ENDBRANCH   8   9
BRANCH   8  13
HETATM   13  C5  UNL     1       1.832   1.380   6.714  1.00  0.00     0.269 C 
BRANCH  13  14
HETATM   14  N4  UNL     1       2.786   0.283   6.799  1.00  0.00    -0.077 N 
ATOM     15  H43 UNL     1       2.545  -0.474   6.159  1.00  0.00     0.274 HD
ATOM     16  H42 UNL     1       3.690   0.540   6.404  1.00  0.00     0.274 HD
ATOM     17  H41 UNL     1       2.878  -0.053   7.759  1.00  0.00     0.274 HD
ENDBRANCH  13  14
ENDBRANCH   8  13
ENDBRANCH   5   8
BRANCH   7  18
HETATM   18  N5  UNL     1       4.489   6.007   8.030  1.00  0.00    -0.365 N 
ATOM     19  H52 UNL     1       3.776   6.723   7.890  1.00  0.00     0.159 HD
ATOM     20  H51 UNL     1       5.190   6.356   8.684  1.00  0.00     0.159 HD
ENDBRANCH   7  18
TORSDOF 5
ENDMDL
