MODEL 1
REMARK VINA RESULT: -5.262855783      0.000      0.000
REMARK  5 active torsions:
REMARK  status: ('A' for Active; 'I' for Inactive)
REMARK    1  A    between atoms: N1_1  and  C1_4 
REMARK    2  A    between atoms: C2_9  and  S1_10 
REMARK    3  A    between atoms: S1_10  and  C3_11 
REMARK    4  A    between atoms: C3_11  and  N4_12 
REMARK    5  A    between atoms: C3_11  and  N5_16 
ROOT
HETATM    1  C1  UNL     1       1.210   4.474   6.146  1.00  0.00     0.692 A 
HETATM    2  N2  UNL     1       1.728   5.686   6.394  1.00  0.00    -0.130 N 
ATOM      3  H2  UNL     1       1.226   6.571   6.323  1.00  0.00     0.205 HD
HETATM    4  N3  UNL     1       2.991   5.547   6.745  1.00  0.00    -0.265 N 
ATOM      5  H3  UNL     1       3.623   6.309   6.989  1.00  0.00     0.189 HD
HETATM    6  C2  UNL     1       3.314   4.243   6.731  1.00  0.00     0.178 A 
HETATM    7  N6  UNL     1       2.199   3.594   6.358  1.00  0.00    -0.168 N 
ATOM      8  H6  UNL     1       2.117   2.582   6.253  1.00  0.00     0.186 HD
ENDROOT
BRANCH   6   9
HETATM    9  S1  UNL     1       4.880   3.481   7.118  1.00  0.00    -0.031 SA
BRANCH   9  10
HETATM   10  C3  UNL     1       4.601   1.753   7.523  1.00  0.00     0.447 C 
BRANCH  10  11
HETATM   11  N4  UNL     1       5.409   1.318   8.642  1.00  0.00    -0.041 N 
ATOM     12  H43 UNL     1       5.207   0.349   8.889  1.00  0.00     0.277 HD
ATOM     13  H42 UNL     1       6.388   1.217   8.375  1.00  0.00     0.277 HD
ATOM     14  H41 UNL     1       5.308   1.933   9.450  1.00  0.00     0.277 HD
ENDBRANCH  10  11
BRANCH  10  15
HETATM   15  N5  UNL     1       4.847   0.927   6.338  1.00  0.00    -0.041 N 
ATOM     16  H53 UNL     1       5.592   0.247   6.491  1.00  0.00     0.277 HD
ATOM     17  H52 UNL     1       4.085   0.272   6.161  1.00  0.00     0.277 HD
ATOM     18  H51 UNL     1       5.033   1.528   5.535  1.00  0.00     0.277 HD
ENDBRANCH  10  15
ENDBRANCH   9  10
ENDBRANCH   6   9
BRANCH   1  19
HETATM   19  N1  UNL     1      -0.013   4.207   5.774  1.00  0.00    -0.233 N 
ATOM     20  H12 UNL     1      -0.397   4.276   4.832  1.00  0.00     0.174 HD
ATOM     21  H11 UNL     1      -0.777   3.887   6.370  1.00  0.00     0.174 HD
ENDBRANCH   1  19
TORSDOF 5
ENDMDL
MODEL 2
REMARK VINA RESULT: -5.227273113      1.343      2.131
REMARK  5 active torsions:
REMARK  status: ('A' for Active; 'I' for Inactive)
REMARK    1  A    between atoms: N1_1  and  C1_4 
REMARK    2  A    between atoms: C2_9  and  S1_10 
REMARK    3  A    between atoms: S1_10  and  C3_11 
REMARK    4  A    between atoms: C3_11  and  N4_12 
REMARK    5  A    between atoms: C3_11  and  N5_16 
ROOT
HETATM    1  C1  UNL     1       1.387   4.806   6.074  1.00  0.00     0.692 A 
HETATM    2  N2  UNL     1       0.454   3.910   5.722  1.00  0.00    -0.130 N 
ATOM      3  H2  UNL     1      -0.528   4.118   5.538  1.00  0.00     0.205 HD
HETATM    4  N3  UNL     1       1.012   2.718   5.651  1.00  0.00    -0.265 N 
ATOM      5  H3  UNL     1       0.529   1.854   5.403  1.00  0.00     0.189 HD
HETATM    6  C2  UNL     1       2.316   2.820   5.955  1.00  0.00     0.178 A 
HETATM    7  N6  UNL     1       2.531   4.121   6.214  1.00  0.00    -0.168 N 
ATOM      8  H6  UNL     1       3.429   4.525   6.478  1.00  0.00     0.186 HD
ENDROOT
BRANCH   6   9
HETATM    9  S1  UNL     1       3.548   1.532   6.017  1.00  0.00    -0.031 SA
BRANCH   9  10
HETATM   10  C3  UNL     1       4.929   2.095   7.019  1.00  0.00     0.447 C 
BRANCH  10  11
HETATM   11  N4  UNL     1       6.199   1.913   6.350  1.00  0.00    -0.041 N 
ATOM     12  H43 UNL     1       6.287   0.968   5.974  1.00  0.00     0.277 HD
ATOM     13  H42 UNL     1       6.235   2.438   5.476  1.00  0.00     0.277 HD
ATOM     14  H41 UNL     1       6.988   2.145   6.953  1.00  0.00     0.277 HD
ENDBRANCH  10  11
BRANCH  10  15
HETATM   15  N5  UNL     1       4.907   1.409   8.313  1.00  0.00    -0.041 N 
ATOM     16  H53 UNL     1       4.556   2.008   9.061  1.00  0.00     0.277 HD
ATOM     17  H52 UNL     1       4.189   0.686   8.354  1.00  0.00     0.277 HD
ATOM     18  H51 UNL     1       5.836   1.041   8.520  1.00  0.00     0.277 HD
ENDBRANCH  10  15
ENDBRANCH   9  10
ENDBRANCH   6   9
BRANCH   1  19
HETATM   19  N1  UNL     1       1.214   6.090   6.244  1.00  0.00    -0.233 N 
ATOM     20  H12 UNL     1       0.331   6.600   6.213  1.00  0.00     0.174 HD
ATOM     21  H11 UNL     1       1.937   6.784   6.436  1.00  0.00     0.174 HD
ENDBRANCH   1  19
TORSDOF 5
ENDMDL
MODEL 3
REMARK VINA RESULT: -5.165111984      1.390      4.874
REMARK  5 active torsions:
REMARK  status: ('A' for Active; 'I' for Inactive)
REMARK    1  A    between atoms: N1_1  and  C1_4 
REMARK    2  A    between atoms: C2_9  and  S1_10 
REMARK    3  A    between atoms: S1_10  and  C3_11 
REMARK    4  A    between atoms: C3_11  and  N4_12 
REMARK    5  A    between atoms: C3_11  and  N5_16 
ROOT
HETATM    1  C1  UNL     1       4.896   1.618   8.163  1.00  0.00     0.692 A 
HETATM    2  N2  UNL     1       3.923   0.928   7.551  1.00  0.00    -0.130 N 
ATOM      3  H2  UNL     1       3.765  -0.077   7.637  1.00  0.00     0.205 HD
HETATM    4  N3  UNL     1       3.205   1.757   6.821  1.00  0.00    -0.265 N 
ATOM      5  H3  UNL     1       2.401   1.497   6.251  1.00  0.00     0.189 HD
HETATM    6  C2  UNL     1       3.699   3.000   6.947  1.00  0.00     0.178 A 
HETATM    7  N6  UNL     1       4.746   2.896   7.782  1.00  0.00    -0.168 N 
ATOM      8  H6  UNL     1       5.337   3.671   8.082  1.00  0.00     0.186 HD
ENDROOT
BRANCH   6   9
HETATM    9  S1  UNL     1       3.123   4.508   6.188  1.00  0.00    -0.031 SA
BRANCH   9  10
HETATM   10  C3  UNL     1       1.352   4.655   6.455  1.00  0.00     0.447 C 
BRANCH  10  11
HETATM   11  N4  UNL     1       0.600   3.712   5.655  1.00  0.00    -0.041 N 
ATOM     12  H43 UNL     1      -0.384   3.703   5.922  1.00  0.00     0.277 HD
ATOM     13  H42 UNL     1       0.504   4.037   4.694  1.00  0.00     0.277 HD
ATOM     14  H41 UNL     1       1.000   2.774   5.689  1.00  0.00     0.277 HD
ENDBRANCH  10  11
BRANCH  10  15
HETATM   15  N5  UNL     1       0.929   6.032   6.190  1.00  0.00    -0.041 N 
ATOM     16  H53 UNL     1       1.721   6.652   6.017  1.00  0.00     0.277 HD
ATOM     17  H52 UNL     1       0.469   6.126   5.284  1.00  0.00     0.277 HD
ATOM     18  H51 UNL     1       0.342   6.362   6.956  1.00  0.00     0.277 HD
ENDBRANCH  10  15
ENDBRANCH   9  10
ENDBRANCH   6   9
BRANCH   1  19
HETATM   19  N1  UNL     1       5.806   1.141   8.970  1.00  0.00    -0.233 N 
ATOM     20  H12 UNL     1       5.841   0.203   9.371  1.00  0.00     0.174 HD
ATOM     21  H11 UNL     1       6.627   1.632   9.324  1.00  0.00     0.174 HD
ENDBRANCH   1  19
TORSDOF 5
ENDMDL
MODEL 4
REMARK VINA RESULT: -5.133179732      2.018      2.788
REMARK  5 active torsions:
REMARK  status: ('A' for Active; 'I' for Inactive)
REMARK    1  A    between atoms: N1_1  and  C1_4 
REMARK    2  A    between atoms: C2_9  and  S1_10 
REMARK    3  A    between atoms: S1_10  and  C3_11 
REMARK    4  A    between atoms: C3_11  and  N4_12 
REMARK    5  A    between atoms: C3_11  and  N5_16 
ROOT
HETATM    1  C1  UNL     1       1.906   2.424   6.226  1.00  0.00     0.692 A 
HETATM    2  N2  UNL     1       1.892   1.261   6.894  1.00  0.00    -0.130 N 
ATOM      3  H2  UNL     1       1.056   0.775   7.220  1.00  0.00     0.205 HD
HETATM    4  N3  UNL     1       3.132   0.849   7.060  1.00  0.00    -0.265 N 
ATOM      5  H3  UNL     1       3.411  -0.009   7.537  1.00  0.00     0.189 HD
HETATM    6  C2  UNL     1       3.973   1.736   6.503  1.00  0.00     0.178 A 
HETATM    7  N6  UNL     1       3.196   2.705   5.991  1.00  0.00    -0.168 N 
ATOM      8  H6  UNL     1       3.537   3.530   5.497  1.00  0.00     0.186 HD
ENDROOT
BRANCH   6   9
HETATM    9  S1  UNL     1       5.755   1.686   6.430  1.00  0.00    -0.031 SA
BRANCH   9  10
HETATM   10  C3  UNL     1       6.413   1.952   8.080  1.00  0.00     0.447 C 
BRANCH  10  11
HETATM   11  N4  UNL     1       6.243   0.792   8.929  1.00  0.00    -0.041 N 
ATOM     12  H43 UNL     1       6.536  -0.061   8.451  1.00  0.00     0.277 HD
ATOM     13  H42 UNL     1       6.920   0.791   9.692  1.00  0.00     0.277 HD
ATOM     14  H41 UNL     1       5.290   0.709   9.281  1.00  0.00     0.277 HD
ENDBRANCH  10  11
BRANCH  10  15
HETATM   15  N5  UNL     1       5.789   3.138   8.672  1.00  0.00    -0.041 N 
ATOM     16  H53 UNL     1       4.796   3.204   8.446  1.00  0.00     0.277 HD
ATOM     17  H52 UNL     1       5.704   3.063   9.686  1.00  0.00     0.277 HD
ATOM     18  H51 UNL     1       6.304   3.972   8.389  1.00  0.00     0.277 HD
ENDBRANCH  10  15
ENDBRANCH   9  10
ENDBRANCH   6   9
BRANCH   1  19
HETATM   19  N1  UNL     1       0.870   3.137   5.875  1.00  0.00    -0.233 N 
ATOM     20  H12 UNL     1      -0.038   3.173   6.340  1.00  0.00     0.174 HD
ATOM     21  H11 UNL     1       0.806   3.772   5.079  1.00  0.00     0.174 HD
ENDBRANCH   1  19
TORSDOF 5
ENDMDL
MODEL 5
REMARK VINA RESULT: -5.122134187      1.654      4.947
REMARK  5 active torsions:
REMARK  status: ('A' for Active; 'I' for Inactive)
REMARK    1  A    between atoms: N1_1  and  C1_4 
REMARK    2  A    between atoms: C2_9  and  S1_10 
REMARK    3  A    between atoms: S1_10  and  C3_11 
REMARK    4  A    between atoms: C3_11  and  N4_12 
REMARK    5  A    between atoms: C3_11  and  N5_16 
ROOT
HETATM    1  C1  UNL     1       5.751   1.713   7.040  1.00  0.00     0.692 A 
HETATM    2  N2  UNL     1       5.131   1.285   8.149  1.00  0.00    -0.130 N 
ATOM      3  H2  UNL     1       5.593   0.938   8.990  1.00  0.00     0.205 HD
HETATM    4  N3  UNL     1       3.829   1.384   7.976  1.00  0.00    -0.265 N 
ATOM      5  H3  UNL     1       3.120   1.126   8.663  1.00  0.00     0.189 HD
HETATM    6  C2  UNL     1       3.580   1.879   6.752  1.00  0.00     0.178 A 
HETATM    7  N6  UNL     1       4.783   2.077   6.187  1.00  0.00    -0.168 N 
ATOM      8  H6  UNL     1       4.935   2.449   5.249  1.00  0.00     0.186 HD
ENDROOT
BRANCH   6   9
HETATM    9  S1  UNL     1       2.005   2.221   5.989  1.00  0.00    -0.031 SA
BRANCH   9  10
HETATM   10  C3  UNL     1       1.585   3.945   6.268  1.00  0.00     0.447 C 
BRANCH  10  11
HETATM   11  N4  UNL     1       0.223   4.245   5.879  1.00  0.00    -0.041 N 
ATOM     12  H43 UNL     1       0.107   4.187   4.868  1.00  0.00     0.277 HD
ATOM     13  H42 UNL     1      -0.413   3.498   6.158  1.00  0.00     0.277 HD
ATOM     14  H41 UNL     1      -0.088   5.148   6.236  1.00  0.00     0.277 HD
ENDBRANCH  10  11
BRANCH  10  15
HETATM   15  N5  UNL     1       2.540   4.803   5.563  1.00  0.00    -0.041 N 
ATOM     16  H53 UNL     1       2.900   5.549   6.159  1.00  0.00     0.277 HD
ATOM     17  H52 UNL     1       3.421   4.325   5.376  1.00  0.00     0.277 HD
ATOM     18  H51 UNL     1       2.110   5.165   4.712  1.00  0.00     0.277 HD
ENDBRANCH  10  15
ENDBRANCH   9  10
ENDBRANCH   6   9
BRANCH   1  19
HETATM   19  N1  UNL     1       7.040   1.767   6.835  1.00  0.00    -0.233 N 
ATOM     20  H12 UNL     1       7.547   1.417   6.021  1.00  0.00     0.174 HD
ATOM     21  H11 UNL     1       7.742   2.168   7.457  1.00  0.00     0.174 HD
ENDBRANCH   1  19
TORSDOF 5
ENDMDL
