MODEL 1
REMARK VINA RESULT: -6.223129162      0.000      0.000
REMARK  4 active torsions:
REMARK  status: ('A' for Active; 'I' for Inactive)
REMARK    1  A    between atoms: N1_1  and  C1_5 
REMARK    2  A    between atoms: C3_7  and  N2_8 
REMARK    3  A    between atoms: C4_12  and  N3_13 
REMARK    4  A    between atoms: N3_13  and  C5_15 
ROOT
HETATM    1  C1  UNL     1       5.762   2.991   6.604  1.00  0.00     0.210 C 
HETATM    2  C2  UNL     1       5.653   1.493   6.907  1.00  0.00     0.070 C 
HETATM    3  C3  UNL     1       4.282   1.813   7.518  1.00  0.00     0.210 C 
HETATM    4  C4  UNL     1       4.268   3.002   6.585  1.00  0.00     0.160 C 
ENDROOT
BRANCH   4   5
HETATM    5  N3  UNL     1       3.613   4.173   7.030  1.00  0.00    -0.215 N 
ATOM      6  H3  UNL     1       4.051   4.790   7.714  1.00  0.00     0.178 HD
BRANCH   5   7
HETATM    7  C5  UNL     1       2.314   4.472   6.491  1.00  0.00     0.707 A 
HETATM    8  N4  UNL     1       1.847   5.671   6.091  1.00  0.00    -0.114 N 
HETATM    9  N5  UNL     1       0.607   5.543   5.654  1.00  0.00     0.009 NA
ATOM     10  H4  UNL     1       2.371   6.545   6.122  1.00  0.00     0.203 HD
HETATM   11  N6  UNL     1       0.267   4.269   5.769  1.00  0.00    -0.212 N 
HETATM   12  N7  UNL     1       1.293   3.615   6.273  1.00  0.00    -0.118 N 
ATOM     13  H6  UNL     1      -0.633   3.864   5.511  1.00  0.00     0.206 HD
ATOM     14  H7  UNL     1       1.314   2.614   6.468  1.00  0.00     0.207 HD
ENDBRANCH   5   7
ENDBRANCH   4   5
BRANCH   1  15
HETATM   15  N1  UNL     1       6.386   3.661   7.720  1.00  0.00    -0.073 N 
ATOM     16  H13 UNL     1       6.005   3.357   8.616  1.00  0.00     0.274 HD
ATOM     17  H12 UNL     1       7.350   3.358   7.862  1.00  0.00     0.274 HD
ATOM     18  H11 UNL     1       6.313   4.671   7.593  1.00  0.00     0.274 HD
ENDBRANCH   1  15
BRANCH   3  19
HETATM   19  N2  UNL     1       3.348   0.774   7.233  1.00  0.00    -0.073 N 
ATOM     20  H23 UNL     1       3.361   0.513   6.246  1.00  0.00     0.274 HD
ATOM     21  H22 UNL     1       3.643  -0.119   7.631  1.00  0.00     0.274 HD
ATOM     22  H21 UNL     1       2.412   1.035   7.542  1.00  0.00     0.274 HD
ENDBRANCH   3  19
TORSDOF 4
ENDMDL
MODEL 2
REMARK VINA RESULT: -6.158026849      0.838      2.293
REMARK  4 active torsions:
REMARK  status: ('A' for Active; 'I' for Inactive)
REMARK    1  A    between atoms: N1_1  and  C1_5 
REMARK    2  A    between atoms: C3_7  and  N2_8 
REMARK    3  A    between atoms: C4_12  and  N3_13 
REMARK    4  A    between atoms: N3_13  and  C5_15 
ROOT
HETATM    1  C1  UNL     1       3.808   1.675   7.658  1.00  0.00     0.210 C 
HETATM    2  C2  UNL     1       5.312   1.525   7.917  1.00  0.00     0.070 C 
HETATM    3  C3  UNL     1       5.518   2.265   6.588  1.00  0.00     0.210 C 
HETATM    4  C4  UNL     1       4.162   2.880   6.848  1.00  0.00     0.160 C 
ENDROOT
BRANCH   4   5
HETATM    5  N3  UNL     1       3.354   3.178   5.727  1.00  0.00    -0.215 N 
ATOM      6  H3  UNL     1       3.605   2.842   4.797  1.00  0.00     0.178 HD
BRANCH   5   7
HETATM    7  C5  UNL     1       2.170   3.968   5.933  1.00  0.00     0.707 A 
HETATM    8  N4  UNL     1       0.888   3.567   5.830  1.00  0.00    -0.114 N 
HETATM    9  N5  UNL     1       0.083   4.579   6.094  1.00  0.00     0.009 NA
ATOM     10  H4  UNL     1       0.586   2.624   5.585  1.00  0.00     0.203 HD
HETATM   11  N6  UNL     1       0.833   5.634   6.367  1.00  0.00    -0.212 N 
HETATM   12  N7  UNL     1       2.096   5.273   6.273  1.00  0.00    -0.118 N 
ATOM     13  H6  UNL     1       0.493   6.565   6.609  1.00  0.00     0.206 HD
ATOM     14  H7  UNL     1       2.897   5.885   6.432  1.00  0.00     0.207 HD
ENDBRANCH   5   7
ENDBRANCH   4   5
BRANCH   1  15
HETATM   15  N1  UNL     1       3.334   0.530   6.917  1.00  0.00    -0.073 N 
ATOM     16  H13 UNL     1       2.317   0.458   6.928  1.00  0.00     0.274 HD
ATOM     17  H12 UNL     1       3.460   0.642   5.911  1.00  0.00     0.274 HD
ATOM     18  H11 UNL     1       3.785  -0.313   7.272  1.00  0.00     0.274 HD
ENDBRANCH   1  15
BRANCH   3  19
HETATM   19  N2  UNL     1       6.637   3.144   6.669  1.00  0.00    -0.073 N 
ATOM     20  H23 UNL     1       7.165   3.007   7.532  1.00  0.00     0.274 HD
ATOM     21  H22 UNL     1       7.367   2.890   6.002  1.00  0.00     0.274 HD
ATOM     22  H21 UNL     1       6.343   4.114   6.556  1.00  0.00     0.274 HD
ENDBRANCH   3  19
TORSDOF 4
ENDMDL
MODEL 3
REMARK VINA RESULT: -6.140874258      1.210      2.084
REMARK  4 active torsions:
REMARK  status: ('A' for Active; 'I' for Inactive)
REMARK    1  A    between atoms: N1_1  and  C1_5 
REMARK    2  A    between atoms: C3_7  and  N2_8 
REMARK    3  A    between atoms: C4_12  and  N3_13 
REMARK    4  A    between atoms: N3_13  and  C5_15 
ROOT
HETATM    1  C1  UNL     1       5.059   1.868   7.631  1.00  0.00     0.210 C 
HETATM    2  C2  UNL     1       6.205   2.754   8.131  1.00  0.00     0.070 C 
HETATM    3  C3  UNL     1       5.708   3.800   7.124  1.00  0.00     0.210 C 
HETATM    4  C4  UNL     1       4.358   3.136   7.269  1.00  0.00     0.160 C 
ENDROOT
BRANCH   4   5
HETATM    5  N3  UNL     1       3.513   3.120   6.135  1.00  0.00    -0.215 N 
ATOM      6  H3  UNL     1       3.793   2.639   5.281  1.00  0.00     0.178 HD
BRANCH   5   7
HETATM    7  C5  UNL     1       2.249   3.800   6.221  1.00  0.00     0.707 A 
HETATM    8  N4  UNL     1       1.985   4.966   6.842  1.00  0.00    -0.114 N 
HETATM    9  N5  UNL     1       0.708   5.267   6.700  1.00  0.00     0.009 NA
ATOM     10  H4  UNL     1       2.669   5.531   7.347  1.00  0.00     0.203 HD
HETATM   11  N6  UNL     1       0.141   4.304   5.991  1.00  0.00    -0.212 N 
HETATM   12  N7  UNL     1       1.066   3.414   5.697  1.00  0.00    -0.118 N 
ATOM     13  H6  UNL     1      -0.842   4.259   5.720  1.00  0.00     0.206 HD
ATOM     14  H7  UNL     1       0.913   2.563   5.156  1.00  0.00     0.207 HD
ENDBRANCH   5   7
ENDBRANCH   4   5
BRANCH   1  15
HETATM   15  N1  UNL     1       5.524   1.063   6.526  1.00  0.00    -0.073 N 
ATOM     16  H13 UNL     1       4.989   0.201   6.424  1.00  0.00     0.274 HD
ATOM     17  H12 UNL     1       5.300   1.480   5.623  1.00  0.00     0.274 HD
ATOM     18  H11 UNL     1       6.523   0.886   6.633  1.00  0.00     0.274 HD
ENDBRANCH   1  15
BRANCH   3  19
HETATM   19  N2  UNL     1       5.827   5.115   7.662  1.00  0.00    -0.073 N 
ATOM     20  H23 UNL     1       5.022   5.696   7.426  1.00  0.00     0.274 HD
ATOM     21  H22 UNL     1       5.726   5.119   8.678  1.00  0.00     0.274 HD
ATOM     22  H21 UNL     1       6.703   5.547   7.369  1.00  0.00     0.274 HD
ENDBRANCH   3  19
TORSDOF 4
ENDMDL
MODEL 4
REMARK VINA RESULT: -6.108825637      1.169      2.246
REMARK  4 active torsions:
REMARK  status: ('A' for Active; 'I' for Inactive)
REMARK    1  A    between atoms: N1_1  and  C1_5 
REMARK    2  A    between atoms: C3_7  and  N2_8 
REMARK    3  A    between atoms: C4_12  and  N3_13 
REMARK    4  A    between atoms: N3_13  and  C5_15 
ROOT
HETATM    1  C1  UNL     1       4.935   1.856   7.629  1.00  0.00     0.210 C 
HETATM    2  C2  UNL     1       6.044   2.795   8.115  1.00  0.00     0.070 C 
HETATM    3  C3  UNL     1       5.499   3.809   7.100  1.00  0.00     0.210 C 
HETATM    4  C4  UNL     1       4.179   3.090   7.257  1.00  0.00     0.160 C 
ENDROOT
BRANCH   4   5
HETATM    5  N3  UNL     1       3.331   3.027   6.128  1.00  0.00    -0.215 N 
ATOM      6  H3  UNL     1       3.548   2.410   5.345  1.00  0.00     0.178 HD
BRANCH   5   7
HETATM    7  C5  UNL     1       2.155   3.855   6.113  1.00  0.00     0.707 A 
HETATM    8  N4  UNL     1       0.918   3.516   5.702  1.00  0.00    -0.114 N 
HETATM    9  N5  UNL     1       0.105   4.546   5.842  1.00  0.00     0.009 NA
ATOM     10  H4  UNL     1       0.651   2.601   5.337  1.00  0.00     0.203 HD
HETATM   11  N6  UNL     1       0.806   5.552   6.341  1.00  0.00    -0.212 N 
HETATM   12  N7  UNL     1       2.047   5.141   6.508  1.00  0.00    -0.118 N 
ATOM     13  H6  UNL     1       0.449   6.482   6.558  1.00  0.00     0.206 HD
ATOM     14  H7  UNL     1       2.808   5.708   6.880  1.00  0.00     0.207 HD
ENDBRANCH   5   7
ENDBRANCH   4   5
BRANCH   1  15
HETATM   15  N1  UNL     1       5.429   1.060   6.530  1.00  0.00    -0.073 N 
ATOM     16  H13 UNL     1       6.448   1.034   6.500  1.00  0.00     0.274 HD
ATOM     17  H12 UNL     1       5.263   0.064   6.670  1.00  0.00     0.274 HD
ATOM     18  H11 UNL     1       5.026   1.401   5.657  1.00  0.00     0.274 HD
ENDBRANCH   1  15
BRANCH   3  19
HETATM   19  N2  UNL     1       5.565   5.134   7.625  1.00  0.00    -0.073 N 
ATOM     20  H23 UNL     1       4.640   5.492   7.864  1.00  0.00     0.274 HD
ATOM     21  H22 UNL     1       5.981   5.151   8.556  1.00  0.00     0.274 HD
ATOM     22  H21 UNL     1       6.055   5.753   6.980  1.00  0.00     0.274 HD
ENDBRANCH   3  19
TORSDOF 4
ENDMDL
MODEL 5
REMARK VINA RESULT: -5.893368187      0.606      1.179
REMARK  4 active torsions:
REMARK  status: ('A' for Active; 'I' for Inactive)
REMARK    1  A    between atoms: N1_1  and  C1_5 
REMARK    2  A    between atoms: C3_7  and  N2_8 
REMARK    3  A    between atoms: C4_12  and  N3_13 
REMARK    4  A    between atoms: N3_13  and  C5_15 
ROOT
HETATM    1  C1  UNL     1       5.584   3.028   6.890  1.00  0.00     0.210 C 
HETATM    2  C2  UNL     1       5.652   1.556   6.467  1.00  0.00     0.070 C 
HETATM    3  C3  UNL     1       4.159   1.487   6.813  1.00  0.00     0.210 C 
HETATM    4  C4  UNL     1       4.137   2.970   6.525  1.00  0.00     0.160 C 
ENDROOT
BRANCH   4   5
HETATM    5  N3  UNL     1       3.239   3.768   7.271  1.00  0.00    -0.215 N 
ATOM      6  H3  UNL     1       3.402   3.955   8.260  1.00  0.00     0.178 HD
BRANCH   5   7
HETATM    7  C5  UNL     1       2.088   4.307   6.597  1.00  0.00     0.707 A 
HETATM    8  N4  UNL     1       1.050   3.626   6.074  1.00  0.00    -0.114 N 
HETATM    9  N5  UNL     1       0.189   4.471   5.538  1.00  0.00     0.009 NA
ATOM     10  H4  UNL     1       0.945   2.612   6.090  1.00  0.00     0.203 HD
HETATM   11  N6  UNL     1       0.662   5.695   5.709  1.00  0.00    -0.212 N 
HETATM   12  N7  UNL     1       1.809   5.604   6.349  1.00  0.00    -0.118 N 
ATOM     13  H6  UNL     1       0.216   6.559   5.399  1.00  0.00     0.206 HD
ATOM     14  H7  UNL     1       2.397   6.393   6.617  1.00  0.00     0.207 HD
ENDBRANCH   5   7
ENDBRANCH   4   5
BRANCH   1  15
HETATM   15  N1  UNL     1       5.879   3.135   8.299  1.00  0.00    -0.073 N 
ATOM     16  H13 UNL     1       6.204   4.067   8.555  1.00  0.00     0.274 HD
ATOM     17  H12 UNL     1       5.036   3.113   8.873  1.00  0.00     0.274 HD
ATOM     18  H11 UNL     1       6.545   2.409   8.562  1.00  0.00     0.274 HD
ENDBRANCH   1  15
BRANCH   3  19
HETATM   19  N2  UNL     1       3.465   0.652   5.888  1.00  0.00    -0.073 N 
ATOM     20  H23 UNL     1       3.784   0.802   4.930  1.00  0.00     0.274 HD
ATOM     21  H22 UNL     1       3.734  -0.327   5.988  1.00  0.00     0.274 HD
ATOM     22  H21 UNL     1       2.457   0.778   5.975  1.00  0.00     0.274 HD
ENDBRANCH   3  19
TORSDOF 4
ENDMDL
