MODEL 1
REMARK VINA RESULT: -5.832549493      0.000      0.000
REMARK  2 active torsions:
REMARK  status: ('A' for Active; 'I' for Inactive)
REMARK       I    between atoms: N2_7  and  C4_9 
REMARK       I    between atoms: C4_9  and  N3_10 
REMARK       I    between atoms: C4_9  and  N4_14 
REMARK    1  A    between atoms: C5_18  and  N5_19 
REMARK    2  A    between atoms: N5_19  and  N6_21 
ROOT
HETATM    1  C1  UNL     1       2.214   3.381   5.741  1.00  0.00     0.073 C 
HETATM    2  C2  UNL     1       3.408   3.118   6.583  1.00  0.00     0.061 A 
HETATM    3  N1  UNL     1       4.317   3.987   7.046  1.00  0.00    -0.261 N 
ATOM      4  H1  UNL     1       4.305   4.991   6.871  1.00  0.00     0.194 HD
HETATM    5  O1  UNL     1       5.213   3.367   7.748  1.00  0.00    -0.217 OA
HETATM    6  C3  UNL     1       4.969   2.079   7.798  1.00  0.00     0.199 A 
HETATM    7  N2  UNL     1       5.609   1.133   8.383  1.00  0.00    -0.318 N 
ATOM      8  H2  UNL     1       5.235   0.189   8.290  1.00  0.00     0.165 HD
HETATM    9  C4  UNL     1       6.801   1.293   9.153  1.00  0.00     0.482 C 
HETATM   10  N3  UNL     1       6.681   2.334  10.164  1.00  0.00    -0.033 N 
ATOM     11  H31 UNL     1       7.532   2.449  10.714  1.00  0.00     0.278 HD
ATOM     12  H32 UNL     1       5.875   2.166  10.767  1.00  0.00     0.278 HD
ATOM     13  H33 UNL     1       6.394   3.218   9.747  1.00  0.00     0.278 HD
HETATM   14  N4  UNL     1       7.967   1.601   8.361  1.00  0.00    -0.033 N 
ATOM     15  H41 UNL     1       8.819   1.716   8.911  1.00  0.00     0.278 HD
ATOM     16  H42 UNL     1       7.801   2.423   7.781  1.00  0.00     0.278 HD
ATOM     17  H43 UNL     1       8.101   0.901   7.632  1.00  0.00     0.278 HD
HETATM   18  C5  UNL     1       3.819   1.883   7.062  1.00  0.00     0.125 A 
ENDROOT
BRANCH  18  19
HETATM   19  N5  UNL     1       3.128   0.661   6.802  1.00  0.00    -0.301 N 
ATOM     20  H5  UNL     1       2.380   0.359   7.427  1.00  0.00     0.186 HD
BRANCH  19  21
HETATM   21  N6  UNL     1       3.468  -0.123   5.704  1.00  0.00    -0.344 N 
ATOM     22  H62 UNL     1       2.881  -0.079   4.870  1.00  0.00     0.176 HD
ATOM     23  H61 UNL     1       4.287  -0.729   5.734  1.00  0.00     0.176 HD
ENDBRANCH  19  21
ENDBRANCH  18  19
TORSDOF 2
ENDMDL
MODEL 2
REMARK VINA RESULT: -5.732436462      1.268      2.704
REMARK  2 active torsions:
REMARK  status: ('A' for Active; 'I' for Inactive)
REMARK       I    between atoms: N2_7  and  C4_9 
REMARK       I    between atoms: C4_9  and  N3_10 
REMARK       I    between atoms: C4_9  and  N4_14 
REMARK    1  A    between atoms: C5_18  and  N5_19 
REMARK    2  A    between atoms: N5_19  and  N6_21 
ROOT
HETATM    1  C1  UNL     1       1.508   2.956   5.718  1.00  0.00     0.073 C 
HETATM    2  C2  UNL     1       2.656   2.429   6.497  1.00  0.00     0.061 A 
HETATM    3  N1  UNL     1       2.863   1.187   6.953  1.00  0.00    -0.261 N 
ATOM      4  H1  UNL     1       2.225   0.403   6.818  1.00  0.00     0.194 HD
HETATM    5  O1  UNL     1       3.990   1.125   7.592  1.00  0.00    -0.217 OA
HETATM    6  C3  UNL     1       4.592   2.290   7.604  1.00  0.00     0.199 A 
HETATM    7  N2  UNL     1       5.712   2.642   8.124  1.00  0.00    -0.318 N 
ATOM      8  H2  UNL     1       5.994   3.615   8.011  1.00  0.00     0.165 HD
HETATM    9  C4  UNL     1       6.594   1.783   8.848  1.00  0.00     0.482 C 
HETATM   10  N3  UNL     1       6.895   0.553   8.130  1.00  0.00    -0.033 N 
ATOM     11  H31 UNL     1       7.525  -0.060   8.647  1.00  0.00     0.278 HD
ATOM     12  H32 UNL     1       7.261   0.753   7.199  1.00  0.00     0.278 HD
ATOM     13  H33 UNL     1       6.040   0.063   7.869  1.00  0.00     0.278 HD
HETATM   14  N4  UNL     1       6.100   1.407  10.150  1.00  0.00    -0.033 N 
ATOM     15  H41 UNL     1       6.730   0.793  10.667  1.00  0.00     0.278 HD
ATOM     16  H42 UNL     1       5.173   0.988  10.076  1.00  0.00     0.278 HD
ATOM     17  H43 UNL     1       5.872   2.234  10.701  1.00  0.00     0.278 HD
HETATM   18  C5  UNL     1       3.766   3.150   6.911  1.00  0.00     0.125 A 
ENDROOT
BRANCH  18  19
HETATM   19  N5  UNL     1       3.960   4.538   6.636  1.00  0.00    -0.301 N 
ATOM     20  H5  UNL     1       4.379   4.825   5.751  1.00  0.00     0.186 HD
BRANCH  19  21
HETATM   21  N6  UNL     1       3.584   5.501   7.566  1.00  0.00    -0.344 N 
ATOM     22  H62 UNL     1       2.602   5.563   7.839  1.00  0.00     0.176 HD
ATOM     23  H61 UNL     1       4.277   6.133   7.967  1.00  0.00     0.176 HD
ENDBRANCH  19  21
ENDBRANCH  18  19
TORSDOF 2
ENDMDL
MODEL 3
REMARK VINA RESULT: -5.722812855      2.560      3.427
REMARK  2 active torsions:
REMARK  status: ('A' for Active; 'I' for Inactive)
REMARK       I    between atoms: N2_7  and  C4_9 
REMARK       I    between atoms: C4_9  and  N3_10 
REMARK       I    between atoms: C4_9  and  N4_14 
REMARK    1  A    between atoms: C5_18  and  N5_19 
REMARK    2  A    between atoms: N5_19  and  N6_21 
ROOT
HETATM    1  C1  UNL     1       1.964   2.641   5.488  1.00  0.00     0.073 C 
HETATM    2  C2  UNL     1       2.792   3.716   6.089  1.00  0.00     0.061 A 
HETATM    3  N1  UNL     1       2.588   5.040   6.076  1.00  0.00    -0.261 N 
ATOM      4  H1  UNL     1       1.797   5.503   5.629  1.00  0.00     0.194 HD
HETATM    5  O1  UNL     1       3.539   5.647   6.713  1.00  0.00    -0.217 OA
HETATM    6  C3  UNL     1       4.418   4.793   7.180  1.00  0.00     0.199 A 
HETATM    7  N2  UNL     1       5.491   4.989   7.856  1.00  0.00    -0.318 N 
ATOM      8  H2  UNL     1       6.034   4.167   8.120  1.00  0.00     0.165 HD
HETATM    9  C4  UNL     1       5.988   6.262   8.270  1.00  0.00     0.482 C 
HETATM   10  N3  UNL     1       4.978   7.067   8.944  1.00  0.00    -0.033 N 
ATOM     11  H31 UNL     1       5.333   7.977   9.239  1.00  0.00     0.278 HD
ATOM     12  H32 UNL     1       4.571   6.560   9.730  1.00  0.00     0.278 HD
ATOM     13  H33 UNL     1       4.146   7.170   8.365  1.00  0.00     0.278 HD
HETATM   14  N4  UNL     1       6.516   7.059   7.190  1.00  0.00    -0.033 N 
ATOM     15  H41 UNL     1       6.871   7.969   7.485  1.00  0.00     0.278 HD
ATOM     16  H42 UNL     1       5.822   7.167   6.450  1.00  0.00     0.278 HD
ATOM     17  H43 UNL     1       7.232   6.542   6.679  1.00  0.00     0.278 HD
HETATM   18  C5  UNL     1       3.971   3.545   6.799  1.00  0.00     0.125 A 
ENDROOT
BRANCH  18  19
HETATM   19  N5  UNL     1       4.566   2.272   7.055  1.00  0.00    -0.301 N 
ATOM     20  H5  UNL     1       5.379   1.975   6.516  1.00  0.00     0.186 HD
BRANCH  19  21
HETATM   21  N6  UNL     1       4.045   1.434   8.036  1.00  0.00    -0.344 N 
ATOM     22  H62 UNL     1       3.409   1.828   8.730  1.00  0.00     0.176 HD
ATOM     23  H61 UNL     1       4.295   0.446   8.058  1.00  0.00     0.176 HD
ENDBRANCH  19  21
ENDBRANCH  18  19
TORSDOF 2
ENDMDL
MODEL 4
REMARK VINA RESULT: -5.620008980      1.817      3.264
REMARK  2 active torsions:
REMARK  status: ('A' for Active; 'I' for Inactive)
REMARK       I    between atoms: N2_7  and  C4_9 
REMARK       I    between atoms: C4_9  and  N3_10 
REMARK       I    between atoms: C4_9  and  N4_14 
REMARK    1  A    between atoms: C5_18  and  N5_19 
REMARK    2  A    between atoms: N5_19  and  N6_21 
ROOT
HETATM    1  C1  UNL     1       0.585   4.391   5.784  1.00  0.00     0.073 C 
HETATM    2  C2  UNL     1       1.747   3.560   6.187  1.00  0.00     0.061 A 
HETATM    3  N1  UNL     1       1.853   2.225   6.220  1.00  0.00    -0.261 N 
ATOM      4  H1  UNL     1       1.113   1.574   5.959  1.00  0.00     0.194 HD
HETATM    5  O1  UNL     1       3.033   1.878   6.631  1.00  0.00    -0.217 OA
HETATM    6  C3  UNL     1       3.772   2.930   6.893  1.00  0.00     0.199 A 
HETATM    7  N2  UNL     1       4.981   3.014   7.316  1.00  0.00    -0.318 N 
ATOM      8  H2  UNL     1       5.364   3.948   7.453  1.00  0.00     0.165 HD
HETATM    9  C4  UNL     1       5.833   1.906   7.610  1.00  0.00     0.482 C 
HETATM   10  N3  UNL     1       5.891   0.938   6.524  1.00  0.00    -0.033 N 
ATOM     11  H31 UNL     1       6.499   0.146   6.734  1.00  0.00     0.278 HD
ATOM     12  H32 UNL     1       6.162   1.386   5.648  1.00  0.00     0.278 HD
ATOM     13  H33 UNL     1       4.957   0.622   6.265  1.00  0.00     0.278 HD
HETATM   14  N4  UNL     1       5.459   1.186   8.803  1.00  0.00    -0.033 N 
ATOM     15  H41 UNL     1       6.067   0.395   9.013  1.00  0.00     0.278 HD
ATOM     16  H42 UNL     1       4.485   0.886   8.752  1.00  0.00     0.278 HD
ATOM     17  H43 UNL     1       5.402   1.818   9.601  1.00  0.00     0.278 HD
HETATM   18  C5  UNL     1       2.979   4.026   6.620  1.00  0.00     0.125 A 
ENDROOT
BRANCH  18  19
HETATM   19  N5  UNL     1       3.307   5.410   6.740  1.00  0.00    -0.301 N 
ATOM     20  H5  UNL     1       2.993   6.069   6.027  1.00  0.00     0.186 HD
BRANCH  19  21
HETATM   21  N6  UNL     1       4.052   5.868   7.821  1.00  0.00    -0.344 N 
ATOM     22  H62 UNL     1       3.570   6.352   8.580  1.00  0.00     0.176 HD
ATOM     23  H61 UNL     1       5.061   5.723   7.854  1.00  0.00     0.176 HD
ENDBRANCH  19  21
ENDBRANCH  18  19
TORSDOF 2
ENDMDL
MODEL 5
REMARK VINA RESULT: -5.518850099      1.727      1.971
REMARK  2 active torsions:
REMARK  status: ('A' for Active; 'I' for Inactive)
REMARK       I    between atoms: N2_7  and  C4_9 
REMARK       I    between atoms: C4_9  and  N3_10 
REMARK       I    between atoms: C4_9  and  N4_14 
REMARK    1  A    between atoms: C5_18  and  N5_19 
REMARK    2  A    between atoms: N5_19  and  N6_21 
ROOT
HETATM    1  C1  UNL     1       0.818   4.830   5.957  1.00  0.00     0.073 C 
HETATM    2  C2  UNL     1       2.191   4.514   6.424  1.00  0.00     0.061 A 
HETATM    3  N1  UNL     1       3.128   5.343   6.900  1.00  0.00    -0.261 N 
ATOM      4  H1  UNL     1       3.014   6.351   7.009  1.00  0.00     0.194 HD
HETATM    5  O1  UNL     1       4.202   4.682   7.202  1.00  0.00    -0.217 OA
HETATM    6  C3  UNL     1       4.056   3.403   6.954  1.00  0.00     0.199 A 
HETATM    7  N2  UNL     1       4.874   2.426   7.113  1.00  0.00    -0.318 N 
ATOM      8  H2  UNL     1       4.547   1.496   6.851  1.00  0.00     0.165 HD
HETATM    9  C4  UNL     1       6.202   2.534   7.626  1.00  0.00     0.482 C 
HETATM   10  N3  UNL     1       6.261   3.268   8.882  1.00  0.00    -0.033 N 
ATOM     11  H31 UNL     1       7.209   3.346   9.249  1.00  0.00     0.278 HD
ATOM     12  H32 UNL     1       5.632   2.860   9.575  1.00  0.00     0.278 HD
ATOM     13  H33 UNL     1       5.829   4.187   8.789  1.00  0.00     0.278 HD
HETATM   14  N4  UNL     1       7.126   3.168   6.718  1.00  0.00    -0.033 N 
ATOM     15  H41 UNL     1       8.075   3.245   7.085  1.00  0.00     0.278 HD
ATOM     16  H42 UNL     1       6.777   4.082   6.430  1.00  0.00     0.278 HD
ATOM     17  H43 UNL     1       7.127   2.692   5.816  1.00  0.00     0.278 HD
HETATM   18  C5  UNL     1       2.779   3.258   6.454  1.00  0.00     0.125 A 
ENDROOT
BRANCH  18  19
HETATM   19  N5  UNL     1       2.123   2.063   6.028  1.00  0.00    -0.301 N 
ATOM     20  H5  UNL     1       1.915   1.925   5.039  1.00  0.00     0.186 HD
BRANCH  19  21
HETATM   21  N6  UNL     1       1.764   1.086   6.951  1.00  0.00    -0.344 N 
ATOM     22  H62 UNL     1       1.063   1.313   7.657  1.00  0.00     0.176 HD
ATOM     23  H61 UNL     1       2.196   0.163   6.922  1.00  0.00     0.176 HD
ENDBRANCH  19  21
ENDBRANCH  18  19
TORSDOF 2
ENDMDL
