MODEL 1
REMARK VINA RESULT: -5.375069844      0.000      0.000
REMARK  7 active torsions:
REMARK  status: ('A' for Active; 'I' for Inactive)
REMARK    1  A    between atoms: N1_1  and  C1_4 
REMARK    2  A    between atoms: C2_7  and  N3_8 
REMARK    3  A    between atoms: N4_11  and  C3_12 
REMARK    4  A    between atoms: C3_12  and  C4_13 
REMARK    5  A    between atoms: C4_13  and  C5_14 
REMARK    6  A    between atoms: C5_14  and  N5_15 
REMARK    7  A    between atoms: N6_19  and  O1_20 
ROOT
HETATM    1  C1  UNL     1       1.293   3.548   6.073  1.00  0.00     0.733 A 
HETATM    2  N2  UNL     1       1.393   2.247   6.354  1.00  0.00    -0.018 N 
ATOM      3  H2  UNL     1       0.629   1.572   6.380  1.00  0.00     0.203 HD
HETATM    4  C2  UNL     1       2.703   1.991   6.599  1.00  0.00     0.709 A 
HETATM    5  N4  UNL     1       3.419   3.147   6.469  1.00  0.00    -0.082 N 
HETATM    6  N6  UNL     1       2.528   4.066   6.149  1.00  0.00     0.033 N 
ENDROOT
BRANCH   5   7
HETATM    7  C3  UNL     1       4.835   3.259   6.654  1.00  0.00     0.173 C 
BRANCH   7   8
HETATM    8  C4  UNL     1       5.204   3.804   8.026  1.00  0.00     0.050 C 
BRANCH   8   9
HETATM    9  C5  UNL     1       5.758   5.210   7.783  1.00  0.00     0.231 C 
BRANCH   9  10
HETATM   10  N5  UNL     1       4.791   6.229   8.092  1.00  0.00    -0.079 N 
ATOM     11  H53 UNL     1       4.295   6.018   8.957  1.00  0.00     0.274 HD
ATOM     12  H52 UNL     1       5.244   7.098   8.374  1.00  0.00     0.274 HD
ATOM     13  H51 UNL     1       4.142   6.383   7.320  1.00  0.00     0.274 HD
ENDBRANCH   9  10
ENDBRANCH   8   9
ENDBRANCH   7   8
ENDBRANCH   5   7
BRANCH   4  14
HETATM   14  N3  UNL     1       3.220   0.853   6.908  1.00  0.00    -0.233 N 
ATOM     15  H32 UNL     1       2.678   0.004   7.073  1.00  0.00     0.174 HD
ATOM     16  H31 UNL     1       4.211   0.645   7.026  1.00  0.00     0.174 HD
ENDBRANCH   4  14
BRANCH   6  17
HETATM   17  O1  UNL     1       2.885   5.395   5.931  1.00  0.00    -0.254 OA
ATOM     18  H1  UNL     1       2.737   6.125   6.520  1.00  0.00     0.247 HD
ENDBRANCH   6  17
BRANCH   1  19
HETATM   19  N1  UNL     1       0.197   4.153   5.789  1.00  0.00    -0.231 N 
ATOM     20  H12 UNL     1      -0.185   4.363   4.867  1.00  0.00     0.174 HD
ATOM     21  H11 UNL     1      -0.462   4.518   6.477  1.00  0.00     0.174 HD
ENDBRANCH   1  19
TORSDOF 7
ENDMDL
MODEL 2
REMARK VINA RESULT: -5.327658120      1.897      3.633
REMARK  7 active torsions:
REMARK  status: ('A' for Active; 'I' for Inactive)
REMARK    1  A    between atoms: N1_1  and  C1_4 
REMARK    2  A    between atoms: C2_7  and  N3_8 
REMARK    3  A    between atoms: N4_11  and  C3_12 
REMARK    4  A    between atoms: C3_12  and  C4_13 
REMARK    5  A    between atoms: C4_13  and  C5_14 
REMARK    6  A    between atoms: C5_14  and  N5_15 
REMARK    7  A    between atoms: N6_19  and  O1_20 
ROOT
HETATM    1  C1  UNL     1       3.638   1.040   6.170  1.00  0.00     0.733 A 
HETATM    2  N2  UNL     1       4.482   1.355   7.155  1.00  0.00    -0.018 N 
ATOM      3  H2  UNL     1       5.042   0.702   7.706  1.00  0.00     0.203 HD
HETATM    4  C2  UNL     1       4.457   2.705   7.287  1.00  0.00     0.709 A 
HETATM    5  N4  UNL     1       3.588   3.229   6.374  1.00  0.00    -0.082 N 
HETATM    6  N6  UNL     1       3.113   2.188   5.718  1.00  0.00     0.033 N 
ENDROOT
BRANCH   5   7
HETATM    7  C3  UNL     1       3.303   4.626   6.221  1.00  0.00     0.173 C 
BRANCH   7   8
HETATM    8  C4  UNL     1       2.040   5.049   6.955  1.00  0.00     0.050 C 
BRANCH   8   9
HETATM    9  C5  UNL     1       0.982   5.275   5.872  1.00  0.00     0.231 C 
BRANCH   9  10
HETATM   10  N5  UNL     1       0.057   4.177   5.789  1.00  0.00    -0.079 N 
ATOM     11  H53 UNL     1       0.019   3.657   6.665  1.00  0.00     0.274 HD
ATOM     12  H52 UNL     1      -0.908   4.507   5.755  1.00  0.00     0.274 HD
ATOM     13  H51 UNL     1       0.266   3.563   5.002  1.00  0.00     0.274 HD
ENDBRANCH   9  10
ENDBRANCH   8   9
ENDBRANCH   7   8
ENDBRANCH   5   7
BRANCH   4  14
HETATM   14  N3  UNL     1       5.132   3.409   8.129  1.00  0.00    -0.233 N 
ATOM     15  H32 UNL     1       6.006   3.885   7.905  1.00  0.00     0.174 HD
ATOM     16  H31 UNL     1       4.896   3.585   9.105  1.00  0.00     0.174 HD
ENDBRANCH   4  14
BRANCH   6  17
HETATM   17  O1  UNL     1       2.182   2.327   4.690  1.00  0.00    -0.254 OA
ATOM     18  H1  UNL     1       1.237   2.340   4.781  1.00  0.00     0.247 HD
ENDBRANCH   6  17
BRANCH   1  19
HETATM   19  N1  UNL     1       3.401  -0.154   5.763  1.00  0.00    -0.231 N 
ATOM     20  H12 UNL     1       3.910  -0.692   5.062  1.00  0.00     0.174 HD
ATOM     21  H11 UNL     1       2.641  -0.744   6.102  1.00  0.00     0.174 HD
ENDBRANCH   1  19
TORSDOF 7
ENDMDL
MODEL 3
REMARK VINA RESULT: -5.299875418      1.168      1.698
REMARK  7 active torsions:
REMARK  status: ('A' for Active; 'I' for Inactive)
REMARK    1  A    between atoms: N1_1  and  C1_4 
REMARK    2  A    between atoms: C2_7  and  N3_8 
REMARK    3  A    between atoms: N4_11  and  C3_12 
REMARK    4  A    between atoms: C3_12  and  C4_13 
REMARK    5  A    between atoms: C4_13  and  C5_14 
REMARK    6  A    between atoms: C5_14  and  N5_15 
REMARK    7  A    between atoms: N6_19  and  O1_20 
ROOT
HETATM    1  C1  UNL     1       1.345   3.675   6.075  1.00  0.00     0.733 A 
HETATM    2  N2  UNL     1       1.425   2.343   6.101  1.00  0.00    -0.018 N 
ATOM      3  H2  UNL     1       0.649   1.687   5.999  1.00  0.00     0.203 HD
HETATM    4  C2  UNL     1       2.730   2.024   6.286  1.00  0.00     0.709 A 
HETATM    5  N4  UNL     1       3.464   3.173   6.377  1.00  0.00    -0.082 N 
HETATM    6  N6  UNL     1       2.587   4.150   6.244  1.00  0.00     0.033 N 
ENDROOT
BRANCH   5   7
HETATM    7  C3  UNL     1       4.883   3.225   6.575  1.00  0.00     0.173 C 
BRANCH   7   8
HETATM    8  C4  UNL     1       5.261   3.567   8.008  1.00  0.00     0.050 C 
BRANCH   8   9
HETATM    9  C5  UNL     1       6.261   2.494   8.444  1.00  0.00     0.231 C 
BRANCH   9  10
HETATM   10  N5  UNL     1       5.605   1.273   8.829  1.00  0.00    -0.079 N 
ATOM     11  H53 UNL     1       5.353   1.285   9.817  1.00  0.00     0.274 HD
ATOM     12  H52 UNL     1       4.671   1.211   8.425  1.00  0.00     0.274 HD
ATOM     13  H51 UNL     1       6.164   0.452   8.598  1.00  0.00     0.274 HD
ENDBRANCH   9  10
ENDBRANCH   8   9
ENDBRANCH   7   8
ENDBRANCH   5   7
BRANCH   4  14
HETATM   14  N3  UNL     1       3.230   0.840   6.369  1.00  0.00    -0.233 N 
ATOM     15  H32 UNL     1       3.568   0.305   5.568  1.00  0.00     0.174 HD
ATOM     16  H31 UNL     1       3.354   0.288   7.217  1.00  0.00     0.174 HD
ENDBRANCH   4  14
BRANCH   6  17
HETATM   17  O1  UNL     1       2.966   5.490   6.283  1.00  0.00    -0.254 OA
ATOM     18  H1  UNL     1       2.605   6.163   6.847  1.00  0.00     0.247 HD
ENDBRANCH   6  17
BRANCH   1  19
HETATM   19  N1  UNL     1       0.257   4.340   5.917  1.00  0.00    -0.231 N 
ATOM     20  H12 UNL     1      -0.257   4.509   5.053  1.00  0.00     0.174 HD
ATOM     21  H11 UNL     1      -0.253   4.806   6.667  1.00  0.00     0.174 HD
ENDBRANCH   1  19
TORSDOF 7
ENDMDL
MODEL 4
REMARK VINA RESULT: -5.241735427      1.773      3.603
REMARK  7 active torsions:
REMARK  status: ('A' for Active; 'I' for Inactive)
REMARK    1  A    between atoms: N1_1  and  C1_4 
REMARK    2  A    between atoms: C2_7  and  N3_8 
REMARK    3  A    between atoms: N4_11  and  C3_12 
REMARK    4  A    between atoms: C3_12  and  C4_13 
REMARK    5  A    between atoms: C4_13  and  C5_14 
REMARK    6  A    between atoms: C5_14  and  N5_15 
REMARK    7  A    between atoms: N6_19  and  O1_20 
ROOT
HETATM    1  C1  UNL     1       5.058   2.699   8.035  1.00  0.00     0.733 A 
HETATM    2  N2  UNL     1       4.582   1.452   7.998  1.00  0.00    -0.018 N 
ATOM      3  H2  UNL     1       4.914   0.661   8.550  1.00  0.00     0.203 HD
HETATM    4  C2  UNL     1       3.575   1.436   7.090  1.00  0.00     0.709 A 
HETATM    5  N4  UNL     1       3.428   2.686   6.560  1.00  0.00    -0.082 N 
HETATM    6  N6  UNL     1       4.345   3.421   7.159  1.00  0.00     0.033 N 
ENDROOT
BRANCH   5   7
HETATM    7  C3  UNL     1       2.459   3.046   5.567  1.00  0.00     0.173 C 
BRANCH   7   8
HETATM    8  C4  UNL     1       1.114   3.421   6.171  1.00  0.00     0.050 C 
BRANCH   8   9
HETATM    9  C5  UNL     1       0.822   4.845   5.691  1.00  0.00     0.231 C 
BRANCH   9  10
HETATM   10  N5  UNL     1       1.741   5.798   6.250  1.00  0.00    -0.079 N 
ATOM     11  H53 UNL     1       2.570   5.338   6.626  1.00  0.00     0.274 HD
ATOM     12  H52 UNL     1       2.185   6.357   5.521  1.00  0.00     0.274 HD
ATOM     13  H51 UNL     1       1.296   6.391   6.950  1.00  0.00     0.274 HD
ENDBRANCH   9  10
ENDBRANCH   8   9
ENDBRANCH   7   8
ENDBRANCH   5   7
BRANCH   4  14
HETATM   14  N3  UNL     1       2.854   0.421   6.758  1.00  0.00    -0.233 N 
ATOM     15  H32 UNL     1       3.234  -0.468   6.431  1.00  0.00     0.174 HD
ATOM     16  H31 UNL     1       1.836   0.364   6.774  1.00  0.00     0.174 HD
ENDBRANCH   4  14
BRANCH   6  17
HETATM   17  O1  UNL     1       4.505   4.775   6.874  1.00  0.00    -0.254 OA
ATOM     18  H1  UNL     1       3.836   5.447   6.924  1.00  0.00     0.247 HD
ENDBRANCH   6  17
BRANCH   1  19
HETATM   19  N1  UNL     1       6.024   3.092   8.785  1.00  0.00    -0.231 N 
ATOM     20  H12 UNL     1       6.427   4.026   8.854  1.00  0.00     0.174 HD
ATOM     21  H11 UNL     1       6.533   2.495   9.437  1.00  0.00     0.174 HD
ENDBRANCH   1  19
TORSDOF 7
ENDMDL
MODEL 5
REMARK VINA RESULT: -5.206928626      2.135      4.315
REMARK  7 active torsions:
REMARK  status: ('A' for Active; 'I' for Inactive)
REMARK    1  A    between atoms: N1_1  and  C1_4 
REMARK    2  A    between atoms: C2_7  and  N3_8 
REMARK    3  A    between atoms: N4_11  and  C3_12 
REMARK    4  A    between atoms: C3_12  and  C4_13 
REMARK    5  A    between atoms: C4_13  and  C5_14 
REMARK    6  A    between atoms: C5_14  and  N5_15 
REMARK    7  A    between atoms: N6_19  and  O1_20 
ROOT
HETATM    1  C1  UNL     1       5.394   2.003   7.744  1.00  0.00     0.733 A 
HETATM    2  N2  UNL     1       5.325   3.206   8.320  1.00  0.00    -0.018 N 
ATOM      3  H2  UNL     1       5.870   3.527   9.120  1.00  0.00     0.203 HD
HETATM    4  C2  UNL     1       4.395   3.921   7.640  1.00  0.00     0.709 A 
HETATM    5  N4  UNL     1       3.883   3.151   6.634  1.00  0.00    -0.082 N 
HETATM    6  N6  UNL     1       4.515   1.998   6.732  1.00  0.00     0.033 N 
ENDROOT
BRANCH   5   7
HETATM    7  C3  UNL     1       2.875   3.577   5.708  1.00  0.00     0.173 C 
BRANCH   7   8
HETATM    8  C4  UNL     1       1.473   3.185   6.148  1.00  0.00     0.050 C 
BRANCH   8   9
HETATM    9  C5  UNL     1       0.568   4.353   5.752  1.00  0.00     0.231 C 
BRANCH   9  10
HETATM   10  N5  UNL     1       1.011   5.595   6.327  1.00  0.00    -0.079 N 
ATOM     11  H53 UNL     1       1.841   5.460   6.904  1.00  0.00     0.274 HD
ATOM     12  H52 UNL     1       1.406   6.212   5.617  1.00  0.00     0.274 HD
ATOM     13  H51 UNL     1       0.268   6.059   6.849  1.00  0.00     0.274 HD
ENDBRANCH   9  10
ENDBRANCH   8   9
ENDBRANCH   7   8
ENDBRANCH   5   7
BRANCH   4  14
HETATM   14  N3  UNL     1       4.029   5.133   7.879  1.00  0.00    -0.233 N 
ATOM     15  H32 UNL     1       3.581   5.435   8.744  1.00  0.00     0.174 HD
ATOM     16  H31 UNL     1       4.133   5.935   7.258  1.00  0.00     0.174 HD
ENDBRANCH   4  14
BRANCH   6  17
HETATM   17  O1  UNL     1       4.258   0.940   5.862  1.00  0.00    -0.254 OA
ATOM     18  H1  UNL     1       4.234   0.981   4.914  1.00  0.00     0.247 HD
ENDBRANCH   6  17
BRANCH   1  19
HETATM   19  N1  UNL     1       6.172   1.054   8.123  1.00  0.00    -0.231 N 
ATOM     20  H12 UNL     1       6.404   0.195   7.626  1.00  0.00     0.174 HD
ATOM     21  H11 UNL     1       6.680   1.037   9.008  1.00  0.00     0.174 HD
ENDBRANCH   1  19
TORSDOF 7
ENDMDL
