MODEL 1
REMARK VINA RESULT: -5.324771809      0.000      0.000
REMARK  6 active torsions:
REMARK  status: ('A' for Active; 'I' for Inactive)
REMARK    1  A    between atoms: N1_1  and  C1_4 
REMARK    2  A    between atoms: N3_8  and  C3_9 
REMARK    3  A    between atoms: C3_9  and  C4_10 
REMARK    4  A    between atoms: C4_10  and  C5_11 
REMARK    5  A    between atoms: C5_11  and  N4_12 
REMARK    6  A    between atoms: C5_11  and  N5_16 
ROOT
HETATM    1  C3  UNL     1       2.280   1.529   6.492  1.00  0.00     0.173 C 
ENDROOT
BRANCH   1   2
HETATM    2  N3  UNL     1       3.664   1.596   6.874  1.00  0.00    -0.233 N 
HETATM    3  N2  UNL     1       4.733   1.855   6.110  1.00  0.00    -0.292 N 
HETATM    4  C2  UNL     1       5.850   1.823   6.860  1.00  0.00     0.158 A 
ATOM      5  H2  UNL     1       4.706   2.049   5.108  1.00  0.00     0.188 HD
HETATM    6  C1  UNL     1       5.416   1.527   8.143  1.00  0.00     0.132 A 
HETATM    7  N6  UNL     1       4.078   1.395   8.121  1.00  0.00    -0.268 N 
ATOM      8  H6  UNL     1       3.484   1.179   8.922  1.00  0.00     0.190 HD
BRANCH   6   9
HETATM    9  N1  UNL     1       6.216   1.410   9.165  1.00  0.00    -0.383 N 
ATOM     10  H12 UNL     1       7.212   1.624   9.209  1.00  0.00     0.157 HD
ATOM     11  H11 UNL     1       5.916   1.073  10.080  1.00  0.00     0.157 HD
ENDBRANCH   6   9
ENDBRANCH   1   2
BRANCH   1  12
HETATM   12  C4  UNL     1       1.920   2.501   5.395  1.00  0.00     0.085 C 
BRANCH  12  13
HETATM   13  C5  UNL     1       1.566   3.820   6.094  1.00  0.00     0.379 C 
BRANCH  13  14
HETATM   14  N4  UNL     1       0.201   4.188   5.878  1.00  0.00    -0.050 N 
ATOM     15  H43 UNL     1      -0.137   3.845   4.978  1.00  0.00     0.276 HD
ATOM     16  H42 UNL     1      -0.425   3.668   6.493  1.00  0.00     0.276 HD
ATOM     17  H41 UNL     1       0.059   5.194   5.969  1.00  0.00     0.276 HD
ENDBRANCH  13  14
BRANCH  13  18
HETATM   18  N5  UNL     1       2.496   4.805   5.618  1.00  0.00    -0.050 N 
ATOM     19  H53 UNL     1       3.302   4.400   5.144  1.00  0.00     0.276 HD
ATOM     20  H52 UNL     1       2.140   5.346   4.829  1.00  0.00     0.276 HD
ATOM     21  H51 UNL     1       2.750   5.383   6.420  1.00  0.00     0.276 HD
ENDBRANCH  13  18
ENDBRANCH  12  13
ENDBRANCH   1  12
TORSDOF 6
ENDMDL
MODEL 2
REMARK VINA RESULT: -5.257174675      0.693      1.429
REMARK  6 active torsions:
REMARK  status: ('A' for Active; 'I' for Inactive)
REMARK    1  A    between atoms: N1_1  and  C1_4 
REMARK    2  A    between atoms: N3_8  and  C3_9 
REMARK    3  A    between atoms: C3_9  and  C4_10 
REMARK    4  A    between atoms: C4_10  and  C5_11 
REMARK    5  A    between atoms: C5_11  and  N4_12 
REMARK    6  A    between atoms: C5_11  and  N5_16 
ROOT
HETATM    1  C3  UNL     1       2.274   1.533   6.549  1.00  0.00     0.173 C 
ENDROOT
BRANCH   1   2
HETATM    2  N3  UNL     1       3.656   1.579   6.938  1.00  0.00    -0.233 N 
HETATM    3  N2  UNL     1       4.193   1.386   8.150  1.00  0.00    -0.292 N 
HETATM    4  C2  UNL     1       5.531   1.518   8.084  1.00  0.00     0.158 A 
ATOM      5  H2  UNL     1       3.667   1.172   8.998  1.00  0.00     0.188 HD
HETATM    6  C1  UNL     1       5.802   1.805   6.755  1.00  0.00     0.132 A 
HETATM    7  N6  UNL     1       4.639   1.834   6.079  1.00  0.00    -0.268 N 
ATOM      8  H6  UNL     1       4.530   2.020   5.082  1.00  0.00     0.190 HD
BRANCH   6   9
HETATM    9  N1  UNL     1       7.003   2.003   6.291  1.00  0.00    -0.383 N 
ATOM     10  H12 UNL     1       7.887   1.677   6.681  1.00  0.00     0.157 HD
ATOM     11  H11 UNL     1       7.199   2.534   5.443  1.00  0.00     0.157 HD
ENDBRANCH   6   9
ENDBRANCH   1   2
BRANCH   1  12
HETATM   12  C4  UNL     1       1.935   2.507   5.448  1.00  0.00     0.085 C 
BRANCH  12  13
HETATM   13  C5  UNL     1       1.571   3.826   6.142  1.00  0.00     0.379 C 
BRANCH  13  14
HETATM   14  N4  UNL     1       0.217   4.205   5.888  1.00  0.00    -0.050 N 
ATOM     15  H43 UNL     1       0.167   4.994   5.242  1.00  0.00     0.276 HD
ATOM     16  H42 UNL     1      -0.265   3.506   5.324  1.00  0.00     0.276 HD
ATOM     17  H41 UNL     1      -0.292   4.400   6.751  1.00  0.00     0.276 HD
ENDBRANCH  13  14
BRANCH  13  18
HETATM   18  N5  UNL     1       2.523   4.805   5.698  1.00  0.00    -0.050 N 
ATOM     19  H53 UNL     1       3.476   4.448   5.656  1.00  0.00     0.276 HD
ATOM     20  H52 UNL     1       2.428   5.039   4.710  1.00  0.00     0.276 HD
ATOM     21  H51 UNL     1       2.424   5.613   6.314  1.00  0.00     0.276 HD
ENDBRANCH  13  18
ENDBRANCH  12  13
ENDBRANCH   1  12
TORSDOF 6
ENDMDL
MODEL 3
REMARK VINA RESULT: -5.141639170      1.319      4.820
REMARK  6 active torsions:
REMARK  status: ('A' for Active; 'I' for Inactive)
REMARK    1  A    between atoms: N1_1  and  C1_4 
REMARK    2  A    between atoms: N3_8  and  C3_9 
REMARK    3  A    between atoms: C3_9  and  C4_10 
REMARK    4  A    between atoms: C4_10  and  C5_11 
REMARK    5  A    between atoms: C5_11  and  N4_12 
REMARK    6  A    between atoms: C5_11  and  N5_16 
ROOT
HETATM    1  C3  UNL     1       3.982   1.551   6.333  1.00  0.00     0.173 C 
ENDROOT
BRANCH   1   2
HETATM    2  N3  UNL     1       3.144   2.712   6.224  1.00  0.00    -0.233 N 
HETATM    3  N2  UNL     1       3.495   4.005   6.239  1.00  0.00    -0.292 N 
HETATM    4  C2  UNL     1       2.401   4.778   6.109  1.00  0.00     0.158 A 
ATOM      5  H2  UNL     1       4.450   4.352   6.335  1.00  0.00     0.188 HD
HETATM    6  C1  UNL     1       1.340   3.891   6.010  1.00  0.00     0.132 A 
HETATM    7  N6  UNL     1       1.824   2.638   6.082  1.00  0.00    -0.268 N 
ATOM      8  H6  UNL     1       1.273   1.780   6.036  1.00  0.00     0.190 HD
BRANCH   6   9
HETATM    9  N1  UNL     1       0.100   4.264   5.869  1.00  0.00    -0.383 N 
ATOM     10  H12 UNL     1      -0.335   4.702   5.058  1.00  0.00     0.157 HD
ATOM     11  H11 UNL     1      -0.607   4.155   6.596  1.00  0.00     0.157 HD
ENDBRANCH   6   9
ENDBRANCH   1   2
BRANCH   1  12
HETATM   12  C4  UNL     1       5.454   1.873   6.259  1.00  0.00     0.085 C 
BRANCH  12  13
HETATM   13  C5  UNL     1       6.017   1.629   7.666  1.00  0.00     0.379 C 
BRANCH  13  14
HETATM   14  N4  UNL     1       7.013   0.605   7.670  1.00  0.00    -0.050 N 
ATOM     15  H43 UNL     1       6.867  -0.058   6.909  1.00  0.00     0.276 HD
ATOM     16  H42 UNL     1       7.924   0.971   7.393  1.00  0.00     0.276 HD
ATOM     17  H41 UNL     1       7.065   0.129   8.572  1.00  0.00     0.276 HD
ENDBRANCH  13  14
BRANCH  13  18
HETATM   18  N5  UNL     1       4.898   1.330   8.514  1.00  0.00    -0.050 N 
ATOM     19  H53 UNL     1       4.044   1.815   8.239  1.00  0.00     0.276 HD
ATOM     20  H52 UNL     1       4.549   0.379   8.399  1.00  0.00     0.276 HD
ATOM     21  H51 UNL     1       5.188   1.540   9.470  1.00  0.00     0.276 HD
ENDBRANCH  13  18
ENDBRANCH  12  13
ENDBRANCH   1  12
TORSDOF 6
ENDMDL
MODEL 4
REMARK VINA RESULT: -5.125068728      0.626      1.213
REMARK  6 active torsions:
REMARK  status: ('A' for Active; 'I' for Inactive)
REMARK    1  A    between atoms: N1_1  and  C1_4 
REMARK    2  A    between atoms: N3_8  and  C3_9 
REMARK    3  A    between atoms: C3_9  and  C4_10 
REMARK    4  A    between atoms: C4_10  and  C5_11 
REMARK    5  A    between atoms: C5_11  and  N4_12 
REMARK    6  A    between atoms: C5_11  and  N5_16 
ROOT
HETATM    1  C3  UNL     1       3.041   1.361   5.808  1.00  0.00     0.173 C 
ENDROOT
BRANCH   1   2
HETATM    2  N3  UNL     1       4.258   1.474   6.565  1.00  0.00    -0.233 N 
HETATM    3  N2  UNL     1       5.507   1.671   6.121  1.00  0.00    -0.292 N 
HETATM    4  C2  UNL     1       6.359   1.716   7.161  1.00  0.00     0.158 A 
ATOM      5  H2  UNL     1       5.771   1.772   5.141  1.00  0.00     0.188 HD
HETATM    6  C1  UNL     1       5.570   1.535   8.286  1.00  0.00     0.132 A 
HETATM    7  N6  UNL     1       4.292   1.391   7.892  1.00  0.00    -0.268 N 
ATOM      8  H6  UNL     1       3.489   1.244   8.504  1.00  0.00     0.190 HD
BRANCH   6   9
HETATM    9  N1  UNL     1       6.040   1.518   9.501  1.00  0.00    -0.383 N 
ATOM     10  H12 UNL     1       6.028   2.271  10.188  1.00  0.00     0.157 HD
ATOM     11  H11 UNL     1       6.496   0.707   9.918  1.00  0.00     0.157 HD
ENDBRANCH   6   9
ENDBRANCH   1   2
BRANCH   1  12
HETATM   12  C4  UNL     1       1.896   2.138   6.409  1.00  0.00     0.085 C 
BRANCH  12  13
HETATM   13  C5  UNL     1       1.757   3.414   5.568  1.00  0.00     0.379 C 
BRANCH  13  14
HETATM   14  N4  UNL     1       2.747   4.387   5.910  1.00  0.00    -0.050 N 
ATOM     15  H43 UNL     1       2.590   4.761   6.846  1.00  0.00     0.276 HD
ATOM     16  H42 UNL     1       3.657   3.953   6.060  1.00  0.00     0.276 HD
ATOM     17  H41 UNL     1       2.802   5.133   5.216  1.00  0.00     0.276 HD
ENDBRANCH  13  14
BRANCH  13  18
HETATM   18  N5  UNL     1       0.414   3.888   5.750  1.00  0.00    -0.050 N 
ATOM     19  H53 UNL     1       0.144   4.599   5.071  1.00  0.00     0.276 HD
ATOM     20  H52 UNL     1      -0.293   3.196   5.502  1.00  0.00     0.276 HD
ATOM     21  H51 UNL     1       0.342   4.208   6.716  1.00  0.00     0.276 HD
ENDBRANCH  13  18
ENDBRANCH  12  13
ENDBRANCH   1  12
TORSDOF 6
ENDMDL
MODEL 5
REMARK VINA RESULT: -5.019545103      0.989      1.106
REMARK  6 active torsions:
REMARK  status: ('A' for Active; 'I' for Inactive)
REMARK    1  A    between atoms: N1_1  and  C1_4 
REMARK    2  A    between atoms: N3_8  and  C3_9 
REMARK    3  A    between atoms: C3_9  and  C4_10 
REMARK    4  A    between atoms: C4_10  and  C5_11 
REMARK    5  A    between atoms: C5_11  and  N4_12 
REMARK    6  A    between atoms: C5_11  and  N5_16 
ROOT
HETATM    1  C3  UNL     1       3.069   2.722   6.092  1.00  0.00     0.173 C 
ENDROOT
BRANCH   1   2
HETATM    2  N3  UNL     1       4.282   2.251   6.703  1.00  0.00    -0.233 N 
HETATM    3  N2  UNL     1       5.447   1.937   6.121  1.00  0.00    -0.292 N 
HETATM    4  C2  UNL     1       6.330   1.536   7.053  1.00  0.00     0.158 A 
ATOM      5  H2  UNL     1       5.636   1.993   5.120  1.00  0.00     0.188 HD
HETATM    6  C1  UNL     1       5.649   1.618   8.258  1.00  0.00     0.132 A 
HETATM    7  N6  UNL     1       4.401   2.059   8.013  1.00  0.00    -0.268 N 
ATOM      8  H6  UNL     1       3.674   2.217   8.711  1.00  0.00     0.190 HD
BRANCH   6   9
HETATM    9  N1  UNL     1       6.178   1.309   9.408  1.00  0.00    -0.383 N 
ATOM     10  H12 UNL     1       6.508   1.942  10.136  1.00  0.00     0.157 HD
ATOM     11  H11 UNL     1       6.328   0.351   9.720  1.00  0.00     0.157 HD
ENDBRANCH   6   9
ENDBRANCH   1   2
BRANCH   1  12
HETATM   12  C4  UNL     1       2.908   4.220   6.172  1.00  0.00     0.085 C 
BRANCH  12  13
HETATM   13  C5  UNL     1       1.420   4.476   6.445  1.00  0.00     0.379 C 
BRANCH  13  14
HETATM   14  N4  UNL     1       0.581   3.641   5.646  1.00  0.00    -0.050 N 
ATOM     15  H43 UNL     1      -0.311   3.460   6.108  1.00  0.00     0.276 HD
ATOM     16  H42 UNL     1       0.237   4.138   4.824  1.00  0.00     0.276 HD
ATOM     17  H41 UNL     1       1.047   2.771   5.385  1.00  0.00     0.276 HD
ENDBRANCH  13  14
BRANCH  13  18
HETATM   18  N5  UNL     1       1.193   5.877   6.228  1.00  0.00    -0.050 N 
ATOM     19  H53 UNL     1       1.678   6.472   6.898  1.00  0.00     0.276 HD
ATOM     20  H52 UNL     1       1.648   6.232   5.387  1.00  0.00     0.276 HD
ATOM     21  H51 UNL     1       0.182   6.016   6.227  1.00  0.00     0.276 HD
ENDBRANCH  13  18
ENDBRANCH  12  13
ENDBRANCH   1  12
TORSDOF 6
ENDMDL
