MODEL 1
REMARK VINA RESULT: -6.342413845      0.000      0.000
REMARK  12 active torsions:
REMARK  status: ('A' for Active; 'I' for Inactive)
REMARK    1  A    between atoms: C2_2  and  C3_3 
REMARK    2  A    between atoms: C3_3  and  N1_4 
REMARK    3  A    between atoms: N1_4  and  C4_7 
REMARK    4  A    between atoms: C4_7  and  C5_8 
REMARK    5  A    between atoms: C6_9  and  C7_10 
REMARK    6  A    between atoms: C7_10  and  N2_11 
REMARK    7  A    between atoms: C7_10  and  C8_15 
REMARK    8  A    between atoms: C8_15  and  N3_16 
REMARK    9  A    between atoms: C8_15  and  O1_20 
REMARK   10  A    between atoms: C9_24  and  N5_25 
REMARK   11  A    between atoms: C12_30  and  O2_31 
REMARK   12  A    between atoms: C13_35  and  N8_36 
ROOT
HETATM    1  C5  UNL     1      -6.272  -4.754  -8.663  1.00  0.00     0.037 A 
HETATM    2  C6  UNL     1      -5.879  -3.528  -9.215  1.00  0.00     0.073 A 
HETATM    3  N4  UNL     1      -4.716  -2.981  -8.841  1.00  0.00    -0.192 N 
ATOM      4  H4  UNL     1      -4.437  -2.088  -9.247  1.00  0.00     0.184 HD
HETATM    5  C9  UNL     1      -3.900  -3.574  -7.944  1.00  0.00     0.689 A 
HETATM    6  N7  UNL     1      -4.285  -4.723  -7.436  1.00  0.00    -0.176 N 
ATOM      7  H7  UNL     1      -3.660  -5.160  -6.759  1.00  0.00     0.186 HD
HETATM    8  C13 UNL     1      -5.452  -5.396  -7.731  1.00  0.00     0.124 A 
ENDROOT
BRANCH   2   9
HETATM    9  C7  UNL     1      -6.730  -2.825 -10.218  1.00  0.00     0.289 C 
BRANCH   9  10
HETATM   10  N2  UNL     1      -7.554  -1.843  -9.551  1.00  0.00    -0.065 N 
ATOM     11  H23 UNL     1      -7.583  -1.986  -8.541  1.00  0.00     0.275 HD
ATOM     12  H22 UNL     1      -7.129  -0.916  -9.555  1.00  0.00     0.275 HD
ATOM     13  H21 UNL     1      -8.487  -1.841  -9.965  1.00  0.00     0.275 HD
ENDBRANCH   9  10
BRANCH   9  14
HETATM   14  C8  UNL     1      -5.836  -2.070 -11.199  1.00  0.00     0.352 C 
BRANCH  14  15
HETATM   15  N3  UNL     1      -6.572  -1.697 -12.387  1.00  0.00    -0.051 N 
ATOM     16  H33 UNL     1      -7.230  -2.424 -12.667  1.00  0.00     0.277 HD
ATOM     17  H32 UNL     1      -7.241  -0.949 -12.197  1.00  0.00     0.277 HD
ATOM     18  H31 UNL     1      -5.937  -1.450 -13.146  1.00  0.00     0.277 HD
ENDBRANCH  14  15
BRANCH  14  19
HETATM   19  O1  UNL     1      -4.760  -2.839 -11.633  1.00  0.00    -0.368 OA
ATOM     20  H1  UNL     1      -3.926  -2.405 -11.495  1.00  0.00     0.212 HD
ENDBRANCH  14  19
ENDBRANCH   9  14
ENDBRANCH   2   9
BRANCH   1  21
HETATM   21  C4  UNL     1      -7.555  -5.335  -9.044  1.00  0.00     0.276 C 
BRANCH  21  22
HETATM   22  N1  UNL     1      -8.674  -4.859  -8.294  1.00  0.00    -0.071 N 
ATOM     23  H12 UNL     1      -9.334  -4.343  -8.878  1.00  0.00     0.277 HD
ATOM     24  H11 UNL     1      -8.414  -4.103  -7.660  1.00  0.00     0.277 HD
BRANCH  22  25
HETATM   25  C3  UNL     1      -9.320  -5.978  -7.585  1.00  0.00     0.232 C 
BRANCH  25  26
HETATM   26  C2  UNL     1      -9.138  -5.823  -6.110  1.00  0.00     0.023 C 
HETATM   27  C1  UNL     1      -9.129  -4.318  -5.825  1.00  0.00     0.007 C 
ENDBRANCH  25  26
ENDBRANCH  22  25
ENDBRANCH  21  22
ENDBRANCH   1  21
BRANCH   8  28
HETATM   28  N8  UNL     1      -5.746  -6.446  -7.210  1.00  0.00    -0.385 N 
ATOM     29  H82 UNL     1      -6.351  -6.502  -6.390  1.00  0.00     0.157 HD
ATOM     30  H81 UNL     1      -5.425  -7.348  -7.561  1.00  0.00     0.157 HD
ENDBRANCH   8  28
BRANCH   5  31
HETATM   31  N5  UNL     1      -2.670  -2.923  -7.599  1.00  0.00    -0.151 N 
HETATM   32  C10 UNL     1      -1.873  -3.141  -6.443  1.00  0.00     0.199 C 
HETATM   33  N6  UNL     1      -0.684  -2.676  -6.633  1.00  0.00    -0.381 N 
HETATM   34  C11 UNL     1      -0.558  -2.094  -7.947  1.00  0.00     0.175 C 
ATOM     35  H6  UNL     1       0.067  -2.715  -5.945  1.00  0.00     0.160 HD
HETATM   36  C12 UNL     1      -1.994  -1.904  -8.368  1.00  0.00     0.261 C 
BRANCH  36  37
HETATM   37  O2  UNL     1      -2.148  -2.065  -9.744  1.00  0.00    -0.374 OA
ATOM     38  H2  UNL     1      -1.351  -2.348 -10.177  1.00  0.00     0.212 HD
ENDBRANCH  36  37
ENDBRANCH   5  31
TORSDOF 12
ENDMDL
MODEL 2
REMARK VINA RESULT: -6.205331642      0.834      1.379
REMARK  12 active torsions:
REMARK  status: ('A' for Active; 'I' for Inactive)
REMARK    1  A    between atoms: C2_2  and  C3_3 
REMARK    2  A    between atoms: C3_3  and  N1_4 
REMARK    3  A    between atoms: N1_4  and  C4_7 
REMARK    4  A    between atoms: C4_7  and  C5_8 
REMARK    5  A    between atoms: C6_9  and  C7_10 
REMARK    6  A    between atoms: C7_10  and  N2_11 
REMARK    7  A    between atoms: C7_10  and  C8_15 
REMARK    8  A    between atoms: C8_15  and  N3_16 
REMARK    9  A    between atoms: C8_15  and  O1_20 
REMARK   10  A    between atoms: C9_24  and  N5_25 
REMARK   11  A    between atoms: C12_30  and  O2_31 
REMARK   12  A    between atoms: C13_35  and  N8_36 
ROOT
HETATM    1  C5  UNL     1      -6.274  -4.826  -8.689  1.00  0.00     0.037 A 
HETATM    2  C6  UNL     1      -5.903  -3.582  -9.213  1.00  0.00     0.073 A 
HETATM    3  N4  UNL     1      -4.749  -3.023  -8.827  1.00  0.00    -0.192 N 
ATOM      4  H4  UNL     1      -4.486  -2.117  -9.213  1.00  0.00     0.184 HD
HETATM    5  C9  UNL     1      -3.923  -3.621  -7.944  1.00  0.00     0.689 A 
HETATM    6  N7  UNL     1      -4.287  -4.788  -7.462  1.00  0.00    -0.176 N 
ATOM      7  H7  UNL     1      -3.654  -5.229  -6.795  1.00  0.00     0.186 HD
HETATM    8  C13 UNL     1      -5.443  -5.475  -7.771  1.00  0.00     0.124 A 
ENDROOT
BRANCH   2   9
HETATM    9  C7  UNL     1      -6.767  -2.871 -10.200  1.00  0.00     0.289 C 
BRANCH   9  10
HETATM   10  N2  UNL     1      -7.604  -1.916  -9.511  1.00  0.00    -0.065 N 
ATOM     11  H23 UNL     1      -8.422  -2.355  -9.088  1.00  0.00     0.275 HD
ATOM     12  H22 UNL     1      -7.168  -1.566  -8.658  1.00  0.00     0.275 HD
ATOM     13  H21 UNL     1      -7.860  -1.162 -10.150  1.00  0.00     0.275 HD
ENDBRANCH   9  10
BRANCH   9  14
HETATM   14  C8  UNL     1      -5.886  -2.083 -11.167  1.00  0.00     0.352 C 
BRANCH  14  15
HETATM   15  N3  UNL     1      -6.631  -1.695 -12.345  1.00  0.00    -0.051 N 
ATOM     16  H33 UNL     1      -6.419  -0.739 -12.628  1.00  0.00     0.277 HD
ATOM     17  H32 UNL     1      -6.297  -2.180 -13.179  1.00  0.00     0.277 HD
ATOM     18  H31 UNL     1      -7.632  -1.833 -12.204  1.00  0.00     0.277 HD
ENDBRANCH  14  15
BRANCH  14  19
HETATM   19  O1  UNL     1      -4.800  -2.827 -11.619  1.00  0.00    -0.368 OA
ATOM     20  H1  UNL     1      -4.007  -2.307 -11.680  1.00  0.00     0.212 HD
ENDBRANCH  14  19
ENDBRANCH   9  14
ENDBRANCH   2   9
BRANCH   1  21
HETATM   21  C4  UNL     1      -7.548  -5.420  -9.082  1.00  0.00     0.276 C 
BRANCH  21  22
HETATM   22  N1  UNL     1      -8.639  -5.128  -8.208  1.00  0.00    -0.071 N 
ATOM     23  H12 UNL     1      -9.050  -4.214  -8.402  1.00  0.00     0.277 HD
ATOM     24  H11 UNL     1      -8.327  -4.953  -7.253  1.00  0.00     0.277 HD
BRANCH  22  25
HETATM   25  C3  UNL     1      -9.640  -6.208  -8.273  1.00  0.00     0.232 C 
BRANCH  25  26
HETATM   26  C2  UNL     1      -9.542  -6.921  -9.582  1.00  0.00     0.023 C 
HETATM   27  C1  UNL     1     -10.975  -7.228 -10.023  1.00  0.00     0.007 C 
ENDBRANCH  25  26
ENDBRANCH  22  25
ENDBRANCH  21  22
ENDBRANCH   1  21
BRANCH   8  28
HETATM   28  N8  UNL     1      -5.719  -6.541  -7.274  1.00  0.00    -0.385 N 
ATOM     29  H82 UNL     1      -5.276  -7.413  -7.565  1.00  0.00     0.157 HD
ATOM     30  H81 UNL     1      -6.399  -6.643  -6.522  1.00  0.00     0.157 HD
ENDBRANCH   8  28
BRANCH   5  31
HETATM   31  N5  UNL     1      -2.703  -2.958  -7.585  1.00  0.00    -0.151 N 
HETATM   32  C10 UNL     1      -1.916  -3.168  -6.421  1.00  0.00     0.199 C 
HETATM   33  N6  UNL     1      -0.731  -2.690  -6.598  1.00  0.00    -0.381 N 
HETATM   34  C11 UNL     1      -0.597  -2.104  -7.910  1.00  0.00     0.175 C 
ATOM     35  H6  UNL     1       0.014  -2.722  -5.902  1.00  0.00     0.160 HD
HETATM   36  C12 UNL     1      -2.031  -1.930  -8.345  1.00  0.00     0.261 C 
BRANCH  36  37
HETATM   37  O2  UNL     1      -2.169  -2.091  -9.723  1.00  0.00    -0.374 OA
ATOM     38  H2  UNL     1      -3.012  -2.449  -9.974  1.00  0.00     0.212 HD
ENDBRANCH  36  37
ENDBRANCH   5  31
TORSDOF 12
ENDMDL
MODEL 3
REMARK VINA RESULT: -6.008619545      1.783      3.451
REMARK  12 active torsions:
REMARK  status: ('A' for Active; 'I' for Inactive)
REMARK    1  A    between atoms: C2_2  and  C3_3 
REMARK    2  A    between atoms: C3_3  and  N1_4 
REMARK    3  A    between atoms: N1_4  and  C4_7 
REMARK    4  A    between atoms: C4_7  and  C5_8 
REMARK    5  A    between atoms: C6_9  and  C7_10 
REMARK    6  A    between atoms: C7_10  and  N2_11 
REMARK    7  A    between atoms: C7_10  and  C8_15 
REMARK    8  A    between atoms: C8_15  and  N3_16 
REMARK    9  A    between atoms: C8_15  and  O1_20 
REMARK   10  A    between atoms: C9_24  and  N5_25 
REMARK   11  A    between atoms: C12_30  and  O2_31 
REMARK   12  A    between atoms: C13_35  and  N8_36 
ROOT
HETATM    1  C5  UNL     1      -6.244  -3.593  -9.611  1.00  0.00     0.037 A 
HETATM    2  C6  UNL     1      -5.781  -4.166  -8.420  1.00  0.00     0.073 A 
HETATM    3  N4  UNL     1      -4.594  -3.789  -7.928  1.00  0.00    -0.192 N 
ATOM      4  H4  UNL     1      -4.264  -4.211  -7.060  1.00  0.00     0.184 HD
HETATM    5  C9  UNL     1      -3.822  -2.869  -8.542  1.00  0.00     0.689 A 
HETATM    6  N7  UNL     1      -4.272  -2.343  -9.658  1.00  0.00    -0.176 N 
ATOM      7  H7  UNL     1      -3.678  -1.649 -10.113  1.00  0.00     0.186 HD
HETATM    8  C13 UNL     1      -5.470  -2.637 -10.276  1.00  0.00     0.124 A 
ENDROOT
BRANCH   2   9
HETATM    9  C7  UNL     1      -6.590  -5.182  -7.686  1.00  0.00     0.289 C 
BRANCH   9  10
HETATM   10  N2  UNL     1      -5.724  -6.236  -7.208  1.00  0.00    -0.065 N 
ATOM     11  H23 UNL     1      -5.799  -7.082  -7.773  1.00  0.00     0.275 HD
ATOM     12  H22 UNL     1      -4.739  -6.033  -7.379  1.00  0.00     0.275 HD
ATOM     13  H21 UNL     1      -5.915  -6.414  -6.222  1.00  0.00     0.275 HD
ENDBRANCH   9  10
BRANCH   9  14
HETATM   14  C8  UNL     1      -7.226  -4.531  -6.460  1.00  0.00     0.352 C 
BRANCH  14  15
HETATM   15  N3  UNL     1      -8.467  -5.188  -6.113  1.00  0.00    -0.051 N 
ATOM     16  H33 UNL     1      -8.541  -6.108  -6.547  1.00  0.00     0.277 HD
ATOM     17  H32 UNL     1      -8.480  -5.478  -5.135  1.00  0.00     0.277 HD
ATOM     18  H31 UNL     1      -9.267  -4.598  -6.342  1.00  0.00     0.277 HD
ENDBRANCH  14  15
BRANCH  14  19
HETATM   19  O1  UNL     1      -7.540  -3.192  -6.675  1.00  0.00    -0.368 OA
ATOM     20  H1  UNL     1      -7.262  -2.637  -5.956  1.00  0.00     0.212 HD
ENDBRANCH  14  19
ENDBRANCH   9  14
ENDBRANCH   2   9
BRANCH   1  21
HETATM   21  C4  UNL     1      -7.521  -4.027 -10.167  1.00  0.00     0.276 C 
BRANCH  21  22
HETATM   22  N1  UNL     1      -8.663  -3.344  -9.648  1.00  0.00    -0.071 N 
ATOM     23  H12 UNL     1      -8.953  -2.573 -10.250  1.00  0.00     0.277 HD
ATOM     24  H11 UNL     1      -8.438  -2.804  -8.812  1.00  0.00     0.277 HD
BRANCH  22  25
HETATM   25  C3  UNL     1      -9.759  -4.300  -9.410  1.00  0.00     0.232 C 
BRANCH  25  26
HETATM   26  C2  UNL     1      -9.462  -5.599 -10.086  1.00  0.00     0.023 C 
HETATM   27  C1  UNL     1      -9.922  -6.706  -9.132  1.00  0.00     0.007 C 
ENDBRANCH  25  26
ENDBRANCH  22  25
ENDBRANCH  21  22
ENDBRANCH   1  21
BRANCH   8  28
HETATM   28  N8  UNL     1      -5.811  -2.122 -11.313  1.00  0.00    -0.385 N 
ATOM     29  H82 UNL     1      -6.791  -1.981 -11.560  1.00  0.00     0.157 HD
ATOM     30  H81 UNL     1      -5.147  -1.778 -12.006  1.00  0.00     0.157 HD
ENDBRANCH   8  28
BRANCH   5  31
HETATM   31  N5  UNL     1      -2.565  -2.519  -7.947  1.00  0.00    -0.151 N 
HETATM   32  C10 UNL     1      -1.795  -3.292  -7.036  1.00  0.00     0.199 C 
HETATM   33  N6  UNL     1      -0.582  -2.854  -7.001  1.00  0.00    -0.381 N 
HETATM   34  C11 UNL     1      -0.409  -1.732  -7.891  1.00  0.00     0.175 C 
ATOM     35  H6  UNL     1       0.157  -3.249  -6.420  1.00  0.00     0.160 HD
HETATM   36  C12 UNL     1      -1.829  -1.295  -8.157  1.00  0.00     0.261 C 
BRANCH  36  37
HETATM   37  O2  UNL     1      -1.972  -0.785  -9.447  1.00  0.00    -0.374 OA
ATOM     38  H2  UNL     1      -2.510  -1.334 -10.006  1.00  0.00     0.212 HD
ENDBRANCH  36  37
ENDBRANCH   5  31
TORSDOF 12
ENDMDL
MODEL 4
REMARK VINA RESULT: -5.956777533      1.978      4.192
REMARK  12 active torsions:
REMARK  status: ('A' for Active; 'I' for Inactive)
REMARK    1  A    between atoms: C2_2  and  C3_3 
REMARK    2  A    between atoms: C3_3  and  N1_4 
REMARK    3  A    between atoms: N1_4  and  C4_7 
REMARK    4  A    between atoms: C4_7  and  C5_8 
REMARK    5  A    between atoms: C6_9  and  C7_10 
REMARK    6  A    between atoms: C7_10  and  N2_11 
REMARK    7  A    between atoms: C7_10  and  C8_15 
REMARK    8  A    between atoms: C8_15  and  N3_16 
REMARK    9  A    between atoms: C8_15  and  O1_20 
REMARK   10  A    between atoms: C9_24  and  N5_25 
REMARK   11  A    between atoms: C12_30  and  O2_31 
REMARK   12  A    between atoms: C13_35  and  N8_36 
ROOT
HETATM    1  C5  UNL     1      -5.882  -3.153 -10.046  1.00  0.00     0.037 A 
HETATM    2  C6  UNL     1      -5.457  -3.817  -8.888  1.00  0.00     0.073 A 
HETATM    3  N4  UNL     1      -4.288  -3.479  -8.329  1.00  0.00    -0.192 N 
ATOM      4  H4  UNL     1      -3.986  -3.967  -7.486  1.00  0.00     0.184 HD
HETATM    5  C9  UNL     1      -3.498  -2.515  -8.843  1.00  0.00     0.689 A 
HETATM    6  N7  UNL     1      -3.913  -1.903  -9.930  1.00  0.00    -0.176 N 
ATOM      7  H7  UNL     1      -3.306  -1.176 -10.310  1.00  0.00     0.186 HD
HETATM    8  C13 UNL     1      -5.089  -2.148 -10.608  1.00  0.00     0.124 A 
ENDROOT
BRANCH   2   9
HETATM    9  C7  UNL     1      -6.287  -4.886  -8.263  1.00  0.00     0.289 C 
BRANCH   9  10
HETATM   10  N2  UNL     1      -5.784  -6.182  -8.658  1.00  0.00    -0.065 N 
ATOM     11  H23 UNL     1      -5.864  -6.336  -9.663  1.00  0.00     0.275 HD
ATOM     12  H22 UNL     1      -4.769  -6.241  -8.581  1.00  0.00     0.275 HD
ATOM     13  H21 UNL     1      -6.254  -6.910  -8.119  1.00  0.00     0.275 HD
ENDBRANCH   9  10
BRANCH   9  14
HETATM   14  C8  UNL     1      -6.162  -4.799  -6.743  1.00  0.00     0.352 C 
BRANCH  14  15
HETATM   15  N3  UNL     1      -6.935  -5.841  -6.101  1.00  0.00    -0.051 N 
ATOM     16  H33 UNL     1      -6.498  -6.155  -5.235  1.00  0.00     0.277 HD
ATOM     17  H32 UNL     1      -7.806  -5.478  -5.713  1.00  0.00     0.277 HD
ATOM     18  H31 UNL     1      -7.102  -6.617  -6.742  1.00  0.00     0.277 HD
ENDBRANCH  14  15
BRANCH  14  19
HETATM   19  O1  UNL     1      -6.641  -3.592  -6.242  1.00  0.00    -0.368 OA
ATOM     20  H1  UNL     1      -6.166  -3.309  -5.470  1.00  0.00     0.212 HD
ENDBRANCH  14  19
ENDBRANCH   9  14
ENDBRANCH   2   9
BRANCH   1  21
HETATM   21  C4  UNL     1      -7.139  -3.542 -10.676  1.00  0.00     0.276 C 
BRANCH  21  22
HETATM   22  N1  UNL     1      -8.281  -2.803 -10.240  1.00  0.00    -0.071 N 
ATOM     23  H12 UNL     1      -8.050  -2.147  -9.494  1.00  0.00     0.277 HD
ATOM     24  H11 UNL     1      -8.941  -3.388  -9.726  1.00  0.00     0.277 HD
BRANCH  22  25
HETATM   25  C3  UNL     1      -8.917  -2.132 -11.388  1.00  0.00     0.232 C 
BRANCH  25  26
HETATM   26  C2  UNL     1      -8.696  -2.928 -12.634  1.00  0.00     0.023 C 
HETATM   27  C1  UNL     1      -8.406  -1.922 -13.751  1.00  0.00     0.007 C 
ENDBRANCH  25  26
ENDBRANCH  22  25
ENDBRANCH  21  22
ENDBRANCH   1  21
BRANCH   8  28
HETATM   28  N8  UNL     1      -5.397  -1.553 -11.613  1.00  0.00    -0.385 N 
ATOM     29  H82 UNL     1      -5.536  -2.023 -12.507  1.00  0.00     0.157 HD
ATOM     30  H81 UNL     1      -5.553  -0.546 -11.635  1.00  0.00     0.157 HD
ENDBRANCH   8  28
BRANCH   5  31
HETATM   31  N5  UNL     1      -2.263  -2.212  -8.182  1.00  0.00    -0.151 N 
HETATM   32  C10 UNL     1      -1.512  -3.060  -7.324  1.00  0.00     0.199 C 
HETATM   33  N6  UNL     1      -0.305  -2.618  -7.212  1.00  0.00    -0.381 N 
HETATM   34  C11 UNL     1      -0.117  -1.417  -7.989  1.00  0.00     0.175 C 
ATOM     35  H6  UNL     1       0.421  -3.060  -6.648  1.00  0.00     0.160 HD
HETATM   36  C12 UNL     1      -1.533  -0.968  -8.256  1.00  0.00     0.261 C 
BRANCH  36  37
HETATM   37  O2  UNL     1      -1.644  -0.342  -9.497  1.00  0.00    -0.374 OA
ATOM     38  H2  UNL     1      -2.339  -0.703 -10.035  1.00  0.00     0.212 HD
ENDBRANCH  36  37
ENDBRANCH   5  31
TORSDOF 12
ENDMDL
MODEL 5
REMARK VINA RESULT: -5.829170348      1.929      3.712
REMARK  12 active torsions:
REMARK  status: ('A' for Active; 'I' for Inactive)
REMARK    1  A    between atoms: C2_2  and  C3_3 
REMARK    2  A    between atoms: C3_3  and  N1_4 
REMARK    3  A    between atoms: N1_4  and  C4_7 
REMARK    4  A    between atoms: C4_7  and  C5_8 
REMARK    5  A    between atoms: C6_9  and  C7_10 
REMARK    6  A    between atoms: C7_10  and  N2_11 
REMARK    7  A    between atoms: C7_10  and  C8_15 
REMARK    8  A    between atoms: C8_15  and  N3_16 
REMARK    9  A    between atoms: C8_15  and  O1_20 
REMARK   10  A    between atoms: C9_24  and  N5_25 
REMARK   11  A    between atoms: C12_30  and  O2_31 
REMARK   12  A    between atoms: C13_35  and  N8_36 
ROOT
HETATM    1  C5  UNL     1      -6.235  -3.564  -9.597  1.00  0.00     0.037 A 
HETATM    2  C6  UNL     1      -5.773  -4.147  -8.411  1.00  0.00     0.073 A 
HETATM    3  N4  UNL     1      -4.582  -3.782  -7.919  1.00  0.00    -0.192 N 
ATOM      4  H4  UNL     1      -4.252  -4.211  -7.055  1.00  0.00     0.184 HD
HETATM    5  C9  UNL     1      -3.805  -2.864  -8.530  1.00  0.00     0.689 A 
HETATM    6  N7  UNL     1      -4.254  -2.328  -9.642  1.00  0.00    -0.176 N 
ATOM      7  H7  UNL     1      -3.657  -1.636 -10.095  1.00  0.00     0.186 HD
HETATM    8  C13 UNL     1      -5.456  -2.610 -10.258  1.00  0.00     0.124 A 
ENDROOT
BRANCH   2   9
HETATM    9  C7  UNL     1      -6.587  -5.162  -7.681  1.00  0.00     0.289 C 
BRANCH   9  10
HETATM   10  N2  UNL     1      -5.730  -6.230  -7.221  1.00  0.00    -0.065 N 
ATOM     11  H23 UNL     1      -5.491  -6.135  -6.234  1.00  0.00     0.275 HD
ATOM     12  H22 UNL     1      -6.221  -7.123  -7.168  1.00  0.00     0.275 HD
ATOM     13  H21 UNL     1      -4.900  -6.282  -7.813  1.00  0.00     0.275 HD
ENDBRANCH   9  10
BRANCH   9  14
HETATM   14  C8  UNL     1      -7.206  -4.516  -6.442  1.00  0.00     0.352 C 
BRANCH  14  15
HETATM   15  N3  UNL     1      -8.466  -5.145  -6.108  1.00  0.00    -0.051 N 
ATOM     16  H33 UNL     1      -8.814  -4.833  -5.202  1.00  0.00     0.277 HD
ATOM     17  H32 UNL     1      -9.227  -4.799  -6.693  1.00  0.00     0.277 HD
ATOM     18  H31 UNL     1      -8.388  -6.161  -6.153  1.00  0.00     0.277 HD
ENDBRANCH  14  15
BRANCH  14  19
HETATM   19  O1  UNL     1      -7.482  -3.165  -6.632  1.00  0.00    -0.368 OA
ATOM     20  H1  UNL     1      -8.402  -2.965  -6.510  1.00  0.00     0.212 HD
ENDBRANCH  14  19
ENDBRANCH   9  14
ENDBRANCH   2   9
BRANCH   1  21
HETATM   21  C4  UNL     1      -7.517  -3.986 -10.152  1.00  0.00     0.276 C 
BRANCH  21  22
HETATM   22  N1  UNL     1      -8.657  -3.335  -9.588  1.00  0.00    -0.071 N 
ATOM     23  H12 UNL     1      -8.415  -2.794  -8.757  1.00  0.00     0.277 HD
ATOM     24  H11 UNL     1      -9.298  -3.999  -9.152  1.00  0.00     0.277 HD
BRANCH  22  25
HETATM   25  C3  UNL     1      -9.326  -2.510 -10.610  1.00  0.00     0.232 C 
BRANCH  25  26
HETATM   26  C2  UNL     1      -9.061  -1.062 -10.353  1.00  0.00     0.023 C 
HETATM   27  C1  UNL     1      -9.050  -0.881  -8.832  1.00  0.00     0.007 C 
ENDBRANCH  25  26
ENDBRANCH  22  25
ENDBRANCH  21  22
ENDBRANCH   1  21
BRANCH   8  28
HETATM   28  N8  UNL     1      -5.796  -2.086 -11.291  1.00  0.00    -0.385 N 
ATOM     29  H82 UNL     1      -5.706  -1.082 -11.453  1.00  0.00     0.157 HD
ATOM     30  H81 UNL     1      -6.182  -2.608 -12.078  1.00  0.00     0.157 HD
ENDBRANCH   8  28
BRANCH   5  31
HETATM   31  N5  UNL     1      -2.544  -2.527  -7.937  1.00  0.00    -0.151 N 
HETATM   32  C10 UNL     1      -1.781  -3.308  -7.027  1.00  0.00     0.199 C 
HETATM   33  N6  UNL     1      -0.564  -2.882  -6.993  1.00  0.00    -0.381 N 
HETATM   34  C11 UNL     1      -0.380  -1.762  -7.884  1.00  0.00     0.175 C 
ATOM     35  H6  UNL     1       0.172  -3.284  -6.413  1.00  0.00     0.160 HD
HETATM   36  C12 UNL     1      -1.795  -1.310  -8.148  1.00  0.00     0.261 C 
BRANCH  36  37
HETATM   37  O2  UNL     1      -1.935  -0.799  -9.438  1.00  0.00    -0.374 OA
ATOM     38  H2  UNL     1      -1.136  -0.409  -9.772  1.00  0.00     0.212 HD
ENDBRANCH  36  37
ENDBRANCH   5  31
TORSDOF 12
ENDMDL
