MODEL 1
REMARK VINA RESULT: -7.226068970      0.000      0.000
REMARK  9 active torsions:
REMARK  status: ('A' for Active; 'I' for Inactive)
REMARK    1  A    between atoms: N1_1  and  C1_5 
REMARK    2  A    between atoms: C1_5  and  C2_6 
REMARK    3  A    between atoms: N2_8  and  C4_9 
REMARK    4  A    between atoms: C4_9  and  C5_10 
REMARK    5  A    between atoms: C5_10  and  N3_11 
REMARK    6  A    between atoms: C5_10  and  C6_15 
REMARK    7  A    between atoms: C6_15  and  N4_16 
REMARK    8  A    between atoms: N4_16  and  N5_18 
REMARK    9  A    between atoms: N6_20  and  C7_22 
ROOT
HETATM    1  C5  UNL     1      -6.442  -1.322 -11.347  1.00  0.00     0.222 C 
ENDROOT
BRANCH   1   2
HETATM    2  C4  UNL     1      -6.966  -2.740 -11.268  1.00  0.00     0.184 C 
BRANCH   2   3
HETATM    3  N2  UNL     1      -7.123  -3.175  -9.902  1.00  0.00    -0.285 N 
HETATM    4  C3  UNL     1      -7.286  -4.415  -9.451  1.00  0.00     0.140 A 
HETATM    5  C2  UNL     1      -7.398  -4.392  -8.078  1.00  0.00     0.069 A 
HETATM    6  N11 UNL     1      -7.293  -3.095  -7.737  1.00  0.00    -0.287 N 
HETATM    7  N10 UNL     1      -7.131  -2.391  -8.844  1.00  0.00    -0.241 N 
ATOM      8  H11 UNL     1      -7.332  -2.720  -6.789  1.00  0.00     0.188 HD
ATOM      9  H10 UNL     1      -7.025  -1.377  -8.875  1.00  0.00     0.208 HD
BRANCH   5  10
HETATM   10  C1  UNL     1      -7.590  -5.574  -7.204  1.00  0.00     0.289 C 
BRANCH  10  11
HETATM   11  N1  UNL     1      -6.433  -5.750  -6.388  1.00  0.00    -0.074 N 
ATOM     12  H13 UNL     1      -6.325  -6.715  -6.075  1.00  0.00     0.274 HD
ATOM     13  H12 UNL     1      -5.568  -5.674  -6.922  1.00  0.00     0.274 HD
ATOM     14  H11 UNL     1      -6.467  -5.093  -5.609  1.00  0.00     0.274 HD
ENDBRANCH  10  11
ENDBRANCH   5  10
ENDBRANCH   2   3
ENDBRANCH   1   2
BRANCH   1  15
HETATM   15  N3  UNL     1      -7.336  -0.437 -12.026  1.00  0.00    -0.072 N 
ATOM     16  H33 UNL     1      -7.070  -0.329 -13.005  1.00  0.00     0.274 HD
ATOM     17  H32 UNL     1      -8.252  -0.868 -12.148  1.00  0.00     0.274 HD
ATOM     18  H31 UNL     1      -7.417   0.470 -11.568  1.00  0.00     0.274 HD
ENDBRANCH   1  15
BRANCH   1  19
HETATM   19  C6  UNL     1      -5.106  -1.273 -12.046  1.00  0.00     0.175 C 
BRANCH  19  20
HETATM   20  N4  UNL     1      -4.421  -2.536 -11.905  1.00  0.00    -0.320 N 
ATOM     21  H4  UNL     1      -4.626  -3.273 -12.579  1.00  0.00     0.181 HD
BRANCH  20  22
HETATM   22  N5  UNL     1      -3.500  -2.804 -10.904  1.00  0.00    -0.245 N 
HETATM   23  N6  UNL     1      -3.442  -2.030  -9.906  1.00  0.00    -0.269 N 
ATOM     24  H6  UNL     1      -4.076  -1.232  -9.872  1.00  0.00     0.190 HD
ATOM     25  H5  UNL     1      -2.881  -3.611 -10.972  1.00  0.00     0.208 HD
BRANCH  23  26
HETATM   26  C7  UNL     1      -2.533  -2.219  -8.829  1.00  0.00     0.155 A 
HETATM   27  N7  UNL     1      -1.282  -1.727  -8.896  1.00  0.00    -0.292 N 
HETATM   28  C8  UNL     1      -0.435  -1.915  -7.868  1.00  0.00     0.328 A 
ATOM     29  H7  UNL     1      -0.977  -1.214  -9.723  1.00  0.00     0.172 HD
HETATM   30  O1  UNL     1       0.734  -1.459  -7.925  1.00  0.00    -0.247 OA
HETATM   31  N8  UNL     1      -0.789  -2.587  -6.750  1.00  0.00    -0.274 N 
HETATM   32  C9  UNL     1      -2.028  -3.100  -6.630  1.00  0.00     0.277 A 
ATOM     33  H8  UNL     1      -0.115  -2.706  -5.994  1.00  0.00     0.173 HD
HETATM   34  O2  UNL     1      -2.425  -3.729  -5.633  1.00  0.00    -0.266 OA
HETATM   35  C10 UNL     1      -2.908  -2.907  -7.694  1.00  0.00     0.159 A 
HETATM   36  N9  UNL     1      -4.240  -3.413  -7.657  1.00  0.00    -0.092 NA
ENDBRANCH  23  26
ENDBRANCH  20  22
ENDBRANCH  19  20
ENDBRANCH   1  19
TORSDOF 9
ENDMDL
MODEL 2
REMARK VINA RESULT: -7.057566543      1.028      2.101
REMARK  9 active torsions:
REMARK  status: ('A' for Active; 'I' for Inactive)
REMARK    1  A    between atoms: N1_1  and  C1_5 
REMARK    2  A    between atoms: C1_5  and  C2_6 
REMARK    3  A    between atoms: N2_8  and  C4_9 
REMARK    4  A    between atoms: C4_9  and  C5_10 
REMARK    5  A    between atoms: C5_10  and  N3_11 
REMARK    6  A    between atoms: C5_10  and  C6_15 
REMARK    7  A    between atoms: C6_15  and  N4_16 
REMARK    8  A    between atoms: N4_16  and  N5_18 
REMARK    9  A    between atoms: N6_20  and  C7_22 
ROOT
HETATM    1  C5  UNL     1      -7.187  -1.757 -11.616  1.00  0.00     0.222 C 
ENDROOT
BRANCH   1   2
HETATM    2  C4  UNL     1      -7.218  -3.172 -11.080  1.00  0.00     0.184 C 
BRANCH   2   3
HETATM    3  N2  UNL     1      -7.231  -3.196  -9.637  1.00  0.00    -0.285 N 
HETATM    4  C3  UNL     1      -6.394  -3.826  -8.821  1.00  0.00     0.140 A 
HETATM    5  C2  UNL     1      -6.761  -3.589  -7.514  1.00  0.00     0.069 A 
HETATM    6  N11 UNL     1      -7.845  -2.796  -7.592  1.00  0.00    -0.287 N 
HETATM    7  N10 UNL     1      -8.104  -2.577  -8.869  1.00  0.00    -0.241 N 
ATOM      8  H11 UNL     1      -8.374  -2.427  -6.802  1.00  0.00     0.188 HD
ATOM      9  H10 UNL     1      -8.876  -2.007  -9.214  1.00  0.00     0.208 HD
BRANCH   5  10
HETATM   10  C1  UNL     1      -6.076  -4.117  -6.312  1.00  0.00     0.289 C 
BRANCH  10  11
HETATM   11  N1  UNL     1      -5.334  -5.284  -6.665  1.00  0.00    -0.074 N 
ATOM     12  H13 UNL     1      -5.074  -5.293  -7.652  1.00  0.00     0.274 HD
ATOM     13  H12 UNL     1      -4.394  -5.280  -6.269  1.00  0.00     0.274 HD
ATOM     14  H11 UNL     1      -5.863  -6.114  -6.398  1.00  0.00     0.274 HD
ENDBRANCH  10  11
ENDBRANCH   5  10
ENDBRANCH   2   3
ENDBRANCH   1   2
BRANCH   1  15
HETATM   15  N3  UNL     1      -7.243  -1.703 -13.043  1.00  0.00    -0.072 N 
ATOM     16  H33 UNL     1      -7.708  -0.851 -13.359  1.00  0.00     0.274 HD
ATOM     17  H32 UNL     1      -6.316  -1.543 -13.439  1.00  0.00     0.274 HD
ATOM     18  H31 UNL     1      -7.677  -2.529 -13.453  1.00  0.00     0.274 HD
ENDBRANCH   1  15
BRANCH   1  19
HETATM   19  C6  UNL     1      -5.947  -1.028 -11.163  1.00  0.00     0.175 C 
BRANCH  19  20
HETATM   20  N4  UNL     1      -4.766  -1.715 -11.629  1.00  0.00    -0.320 N 
ATOM     21  H4  UNL     1      -4.644  -1.833 -12.635  1.00  0.00     0.181 HD
BRANCH  20  22
HETATM   22  N5  UNL     1      -3.788  -2.222 -10.788  1.00  0.00    -0.245 N 
HETATM   23  N6  UNL     1      -3.644  -1.707  -9.642  1.00  0.00    -0.269 N 
ATOM     24  H6  UNL     1      -4.254  -0.935  -9.375  1.00  0.00     0.190 HD
ATOM     25  H5  UNL     1      -3.195  -2.995 -11.088  1.00  0.00     0.208 HD
BRANCH  23  26
HETATM   26  C7  UNL     1      -2.670  -2.156  -8.707  1.00  0.00     0.155 A 
HETATM   27  N7  UNL     1      -2.934  -3.191  -7.889  1.00  0.00    -0.292 N 
HETATM   28  C8  UNL     1      -2.001  -3.603  -7.012  1.00  0.00     0.328 A 
ATOM     29  H7  UNL     1      -3.837  -3.663  -7.935  1.00  0.00     0.172 HD
HETATM   30  O1  UNL     1      -2.243  -4.569  -6.245  1.00  0.00    -0.247 OA
HETATM   31  N8  UNL     1      -0.789  -3.013  -6.911  1.00  0.00    -0.274 N 
HETATM   32  C9  UNL     1      -0.472  -1.973  -7.705  1.00  0.00     0.277 A 
ATOM     33  H8  UNL     1      -0.112  -3.358  -6.231  1.00  0.00     0.173 HD
HETATM   34  O2  UNL     1       0.621  -1.382  -7.670  1.00  0.00    -0.266 OA
HETATM   35  C10 UNL     1      -1.437  -1.545  -8.616  1.00  0.00     0.159 A 
HETATM   36  N9  UNL     1      -1.192  -0.452  -9.498  1.00  0.00    -0.092 NA
ENDBRANCH  23  26
ENDBRANCH  20  22
ENDBRANCH  19  20
ENDBRANCH   1  19
TORSDOF 9
ENDMDL
MODEL 3
REMARK VINA RESULT: -6.970318329      2.585      4.850
REMARK  9 active torsions:
REMARK  status: ('A' for Active; 'I' for Inactive)
REMARK    1  A    between atoms: N1_1  and  C1_5 
REMARK    2  A    between atoms: C1_5  and  C2_6 
REMARK    3  A    between atoms: N2_8  and  C4_9 
REMARK    4  A    between atoms: C4_9  and  C5_10 
REMARK    5  A    between atoms: C5_10  and  N3_11 
REMARK    6  A    between atoms: C5_10  and  C6_15 
REMARK    7  A    between atoms: C6_15  and  N4_16 
REMARK    8  A    between atoms: N4_16  and  N5_18 
REMARK    9  A    between atoms: N6_20  and  C7_22 
ROOT
HETATM    1  C5  UNL     1      -6.089  -0.642 -12.958  1.00  0.00     0.222 C 
ENDROOT
BRANCH   1   2
HETATM    2  C4  UNL     1      -7.475  -0.054 -12.808  1.00  0.00     0.184 C 
BRANCH   2   3
HETATM    3  N2  UNL     1      -7.431   1.291 -12.286  1.00  0.00    -0.285 N 
HETATM    4  C3  UNL     1      -7.131   2.411 -12.934  1.00  0.00     0.140 A 
HETATM    5  C2  UNL     1      -7.207   3.478 -12.065  1.00  0.00     0.069 A 
HETATM    6  N11 UNL     1      -7.564   2.944 -10.883  1.00  0.00    -0.287 N 
HETATM    7  N10 UNL     1      -7.690   1.638 -11.043  1.00  0.00    -0.241 N 
ATOM      8  H11 UNL     1      -7.711   3.458 -10.014  1.00  0.00     0.188 HD
ATOM      9  H10 UNL     1      -7.953   0.987 -10.303  1.00  0.00     0.208 HD
BRANCH   5  10
HETATM   10  C1  UNL     1      -6.942   4.895 -12.407  1.00  0.00     0.289 C 
BRANCH  10  11
HETATM   11  N1  UNL     1      -5.716   5.305 -11.804  1.00  0.00    -0.074 N 
ATOM     12  H13 UNL     1      -5.863   5.952 -11.029  1.00  0.00     0.274 HD
ATOM     13  H12 UNL     1      -5.271   4.551 -11.281  1.00  0.00     0.274 HD
ATOM     14  H11 UNL     1      -5.102   5.694 -12.519  1.00  0.00     0.274 HD
ENDBRANCH  10  11
ENDBRANCH   5  10
ENDBRANCH   2   3
ENDBRANCH   1   2
BRANCH   1  15
HETATM   15  N3  UNL     1      -5.952  -1.448 -14.130  1.00  0.00    -0.072 N 
ATOM     16  H33 UNL     1      -6.649  -1.195 -14.831  1.00  0.00     0.274 HD
ATOM     17  H32 UNL     1      -5.104  -1.205 -14.642  1.00  0.00     0.274 HD
ATOM     18  H31 UNL     1      -5.983  -2.447 -13.929  1.00  0.00     0.274 HD
ENDBRANCH   1  15
BRANCH   1  19
HETATM   19  C6  UNL     1      -5.720  -1.481 -11.760  1.00  0.00     0.175 C 
BRANCH  19  20
HETATM   20  N4  UNL     1      -4.470  -2.164 -11.993  1.00  0.00    -0.320 N 
ATOM     21  H4  UNL     1      -4.196  -2.349 -12.958  1.00  0.00     0.181 HD
BRANCH  20  22
HETATM   22  N5  UNL     1      -3.620  -2.580 -10.981  1.00  0.00    -0.245 N 
HETATM   23  N6  UNL     1      -3.364  -1.783 -10.033  1.00  0.00    -0.269 N 
ATOM     24  H6  UNL     1      -3.793  -0.858 -10.047  1.00  0.00     0.190 HD
ATOM     25  H5  UNL     1      -3.208  -3.513 -11.000  1.00  0.00     0.208 HD
BRANCH  23  26
HETATM   26  C7  UNL     1      -2.506  -2.116  -8.949  1.00  0.00     0.155 A 
HETATM   27  N7  UNL     1      -1.217  -1.728  -8.953  1.00  0.00    -0.292 N 
HETATM   28  C8  UNL     1      -0.420  -2.051  -7.920  1.00  0.00     0.328 A 
ATOM     29  H7  UNL     1      -0.847  -1.191  -9.737  1.00  0.00     0.172 HD
HETATM   30  O1  UNL     1       0.785  -1.693  -7.919  1.00  0.00    -0.247 OA
HETATM   31  N8  UNL     1      -0.861  -2.761  -6.857  1.00  0.00    -0.274 N 
HETATM   32  C9  UNL     1      -2.141  -3.174  -6.801  1.00  0.00     0.277 A 
ATOM     33  H8  UNL     1      -0.221  -2.984  -6.095  1.00  0.00     0.173 HD
HETATM   34  O2  UNL     1      -2.618  -3.830  -5.858  1.00  0.00    -0.266 OA
HETATM   35  C10 UNL     1      -2.970  -2.840  -7.871  1.00  0.00     0.159 A 
HETATM   36  N9  UNL     1      -4.340  -3.234  -7.900  1.00  0.00    -0.092 NA
ENDBRANCH  23  26
ENDBRANCH  20  22
ENDBRANCH  19  20
ENDBRANCH   1  19
TORSDOF 9
ENDMDL
MODEL 4
REMARK VINA RESULT: -6.866589199      1.138      1.449
REMARK  9 active torsions:
REMARK  status: ('A' for Active; 'I' for Inactive)
REMARK    1  A    between atoms: N1_1  and  C1_5 
REMARK    2  A    between atoms: C1_5  and  C2_6 
REMARK    3  A    between atoms: N2_8  and  C4_9 
REMARK    4  A    between atoms: C4_9  and  C5_10 
REMARK    5  A    between atoms: C5_10  and  N3_11 
REMARK    6  A    between atoms: C5_10  and  C6_15 
REMARK    7  A    between atoms: C6_15  and  N4_16 
REMARK    8  A    between atoms: N4_16  and  N5_18 
REMARK    9  A    between atoms: N6_20  and  C7_22 
ROOT
HETATM    1  C5  UNL     1      -6.543  -2.467 -10.371  1.00  0.00     0.222 C 
ENDROOT
BRANCH   1   2
HETATM    2  C4  UNL     1      -7.365  -3.736 -10.439  1.00  0.00     0.184 C 
BRANCH   2   3
HETATM    3  N2  UNL     1      -7.306  -4.477  -9.202  1.00  0.00    -0.285 N 
HETATM    4  C3  UNL     1      -8.237  -4.572  -8.259  1.00  0.00     0.140 A 
HETATM    5  C2  UNL     1      -7.778  -5.379  -7.241  1.00  0.00     0.069 A 
HETATM    6  N11 UNL     1      -6.544  -5.757  -7.620  1.00  0.00    -0.287 N 
HETATM    7  N10 UNL     1      -6.287  -5.204  -8.793  1.00  0.00    -0.241 N 
ATOM      8  H11 UNL     1      -5.916  -6.364  -7.094  1.00  0.00     0.188 HD
ATOM      9  H10 UNL     1      -5.417  -5.325  -9.312  1.00  0.00     0.208 HD
BRANCH   5  10
HETATM   10  C1  UNL     1      -8.523  -5.729  -6.009  1.00  0.00     0.289 C 
BRANCH  10  11
HETATM   11  N1  UNL     1      -9.431  -4.675  -5.691  1.00  0.00    -0.074 N 
ATOM     12  H13 UNL     1      -9.047  -3.755  -5.910  1.00  0.00     0.274 HD
ATOM     13  H12 UNL     1     -10.232  -4.651  -6.322  1.00  0.00     0.274 HD
ATOM     14  H11 UNL     1      -9.711  -4.754  -4.714  1.00  0.00     0.274 HD
ENDBRANCH  10  11
ENDBRANCH   5  10
ENDBRANCH   2   3
ENDBRANCH   1   2
BRANCH   1  15
HETATM   15  N3  UNL     1      -7.252  -1.378  -9.775  1.00  0.00    -0.072 N 
ATOM     16  H33 UNL     1      -6.722  -0.978  -9.001  1.00  0.00     0.274 HD
ATOM     17  H32 UNL     1      -7.271  -0.571 -10.398  1.00  0.00     0.274 HD
ATOM     18  H31 UNL     1      -8.193  -1.634  -9.480  1.00  0.00     0.274 HD
ENDBRANCH   1  15
BRANCH   1  19
HETATM   19  C6  UNL     1      -6.085  -2.040 -11.743  1.00  0.00     0.175 C 
BRANCH  19  20
HETATM   20  N4  UNL     1      -4.649  -2.149 -11.848  1.00  0.00    -0.320 N 
ATOM     21  H4  UNL     1      -4.210  -1.886 -12.730  1.00  0.00     0.181 HD
BRANCH  20  22
HETATM   22  N5  UNL     1      -3.834  -2.590 -10.817  1.00  0.00    -0.245 N 
HETATM   23  N6  UNL     1      -3.335  -1.737 -10.028  1.00  0.00    -0.269 N 
ATOM     24  H6  UNL     1      -3.551  -0.751 -10.177  1.00  0.00     0.190 HD
ATOM     25  H5  UNL     1      -3.640  -3.584 -10.698  1.00  0.00     0.208 HD
BRANCH  23  26
HETATM   26  C7  UNL     1      -2.488  -2.088  -8.941  1.00  0.00     0.155 A 
HETATM   27  N7  UNL     1      -1.194  -1.716  -8.934  1.00  0.00    -0.292 N 
HETATM   28  C8  UNL     1      -0.407  -2.057  -7.898  1.00  0.00     0.328 A 
ATOM     29  H7  UNL     1      -0.812  -1.178  -9.712  1.00  0.00     0.172 HD
HETATM   30  O1  UNL     1       0.801  -1.713  -7.888  1.00  0.00    -0.247 OA
HETATM   31  N8  UNL     1      -0.864  -2.768  -6.843  1.00  0.00    -0.274 N 
HETATM   32  C9  UNL     1      -2.149  -3.165  -6.798  1.00  0.00     0.277 A 
ATOM     33  H8  UNL     1      -0.231  -3.004  -6.079  1.00  0.00     0.173 HD
HETATM   34  O2  UNL     1      -2.640  -3.821  -5.862  1.00  0.00    -0.266 OA
HETATM   35  C10 UNL     1      -2.968  -2.814  -7.870  1.00  0.00     0.159 A 
HETATM   36  N9  UNL     1      -4.342  -3.190  -7.910  1.00  0.00    -0.092 NA
ENDBRANCH  23  26
ENDBRANCH  20  22
ENDBRANCH  19  20
ENDBRANCH   1  19
TORSDOF 9
ENDMDL
MODEL 5
REMARK VINA RESULT: -6.858166089      2.654      4.705
REMARK  9 active torsions:
REMARK  status: ('A' for Active; 'I' for Inactive)
REMARK    1  A    between atoms: N1_1  and  C1_5 
REMARK    2  A    between atoms: C1_5  and  C2_6 
REMARK    3  A    between atoms: N2_8  and  C4_9 
REMARK    4  A    between atoms: C4_9  and  C5_10 
REMARK    5  A    between atoms: C5_10  and  N3_11 
REMARK    6  A    between atoms: C5_10  and  C6_15 
REMARK    7  A    between atoms: C6_15  and  N4_16 
REMARK    8  A    between atoms: N4_16  and  N5_18 
REMARK    9  A    between atoms: N6_20  and  C7_22 
ROOT
HETATM    1  C5  UNL     1      -6.693  -1.000 -12.342  1.00  0.00     0.222 C 
ENDROOT
BRANCH   1   2
HETATM    2  C4  UNL     1      -5.913  -0.649 -13.591  1.00  0.00     0.184 C 
BRANCH   2   3
HETATM    3  N2  UNL     1      -6.674  -0.916 -14.787  1.00  0.00    -0.285 N 
HETATM    4  C3  UNL     1      -7.666  -1.785 -14.950  1.00  0.00     0.140 A 
HETATM    5  C2  UNL     1      -8.119  -1.726 -16.250  1.00  0.00     0.069 A 
HETATM    6  N11 UNL     1      -7.358  -0.789 -16.846  1.00  0.00    -0.287 N 
HETATM    7  N10 UNL     1      -6.504  -0.323 -15.951  1.00  0.00    -0.241 N 
ATOM      8  H11 UNL     1      -7.428  -0.491 -17.818  1.00  0.00     0.188 HD
ATOM      9  H10 UNL     1      -5.807   0.398 -16.137  1.00  0.00     0.208 HD
BRANCH   5  10
HETATM   10  C1  UNL     1      -9.216  -2.540 -16.824  1.00  0.00     0.289 C 
BRANCH  10  11
HETATM   11  N1  UNL     1      -9.600  -3.543 -15.884  1.00  0.00    -0.074 N 
ATOM     12  H13 UNL     1     -10.403  -4.085 -16.205  1.00  0.00     0.274 HD
ATOM     13  H12 UNL     1      -8.923  -4.303 -15.832  1.00  0.00     0.274 HD
ATOM     14  H11 UNL     1      -9.765  -3.109 -14.976  1.00  0.00     0.274 HD
ENDBRANCH  10  11
ENDBRANCH   5  10
ENDBRANCH   2   3
ENDBRANCH   1   2
BRANCH   1  15
HETATM   15  N3  UNL     1      -6.836   0.106 -11.448  1.00  0.00    -0.072 N 
ATOM     16  H33 UNL     1      -6.340  -0.065 -10.573  1.00  0.00     0.274 HD
ATOM     17  H32 UNL     1      -6.311   0.915 -11.782  1.00  0.00     0.274 HD
ATOM     18  H31 UNL     1      -7.810   0.350 -11.274  1.00  0.00     0.274 HD
ENDBRANCH   1  15
BRANCH   1  19
HETATM   19  C6  UNL     1      -6.039  -2.133 -11.592  1.00  0.00     0.175 C 
BRANCH  19  20
HETATM   20  N4  UNL     1      -4.615  -2.135 -11.831  1.00  0.00    -0.320 N 
ATOM     21  H4  UNL     1      -4.281  -1.834 -12.746  1.00  0.00     0.181 HD
BRANCH  20  22
HETATM   22  N5  UNL     1      -3.677  -2.524 -10.888  1.00  0.00    -0.245 N 
HETATM   23  N6  UNL     1      -3.501  -1.796  -9.868  1.00  0.00    -0.269 N 
ATOM     24  H6  UNL     1      -4.057  -0.946  -9.776  1.00  0.00     0.190 HD
ATOM     25  H5  UNL     1      -3.138  -3.380 -11.013  1.00  0.00     0.208 HD
BRANCH  23  26
HETATM   26  C7  UNL     1      -2.563  -2.108  -8.845  1.00  0.00     0.155 A 
HETATM   27  N7  UNL     1      -1.310  -1.619  -8.894  1.00  0.00    -0.292 N 
HETATM   28  C8  UNL     1      -0.437  -1.924  -7.918  1.00  0.00     0.328 A 
ATOM     29  H7  UNL     1      -1.024  -1.020  -9.668  1.00  0.00     0.172 HD
HETATM   30  O1  UNL     1       0.735  -1.471  -7.959  1.00  0.00    -0.247 OA
HETATM   31  N8  UNL     1      -0.766  -2.712  -6.870  1.00  0.00    -0.274 N 
HETATM   32  C9  UNL     1      -2.005  -3.228  -6.771  1.00  0.00     0.277 A 
ATOM     33  H8  UNL     1      -0.071  -2.918  -6.152  1.00  0.00     0.173 HD
HETATM   34  O2  UNL     1      -2.380  -3.960  -5.838  1.00  0.00    -0.266 OA
HETATM   35  C10 UNL     1      -2.913  -2.914  -7.782  1.00  0.00     0.159 A 
HETATM   36  N9  UNL     1      -4.248  -3.413  -7.762  1.00  0.00    -0.092 NA
ENDBRANCH  23  26
ENDBRANCH  20  22
ENDBRANCH  19  20
ENDBRANCH   1  19
TORSDOF 9
ENDMDL
