MODEL 1
REMARK VINA RESULT: -7.305011441      0.000      0.000
REMARK  11 active torsions:
REMARK  status: ('A' for Active; 'I' for Inactive)
REMARK    1  A    between atoms: N1_1  and  C1_4 
REMARK    2  A    between atoms: C2_7  and  C3_8 
REMARK    3  A    between atoms: N3_10  and  C5_11 
REMARK    4  A    between atoms: C5_11  and  C6_12 
REMARK    5  A    between atoms: C6_12  and  O1_13 
REMARK    6  A    between atoms: C6_12  and  C7_15 
REMARK    7  A    between atoms: C7_15  and  N4_16 
REMARK    8  A    between atoms: C9_26  and  N8_27 
REMARK    9  A    between atoms: N8_27  and  C10_29 
REMARK   10  A    between atoms: C10_29  and  C11_30 
REMARK   11  A    between atoms: C11_30  and  N9_31 
ROOT
HETATM    1  C1  UNL     1      -6.504  -6.668  -8.818  1.00  0.00     0.678 A 
HETATM    2  N2  UNL     1      -5.361  -6.169  -8.361  1.00  0.00    -0.188 N 
ATOM      3  H2  UNL     1      -4.494  -6.601  -8.683  1.00  0.00     0.184 HD
HETATM    4  C2  UNL     1      -5.261  -5.121  -7.494  1.00  0.00     0.106 A 
HETATM    5  C8  UNL     1      -6.443  -4.575  -7.093  1.00  0.00     0.120 A 
HETATM    6  N7  UNL     1      -6.503  -3.492  -6.203  1.00  0.00    -0.096 NA
HETATM    7  C9  UNL     1      -7.655  -5.093  -7.568  1.00  0.00     0.143 A 
HETATM    8  N10 UNL     1      -7.683  -6.125  -8.419  1.00  0.00    -0.175 N 
ATOM      9  H10 UNL     1      -8.570  -6.495  -8.759  1.00  0.00     0.186 HD
ENDROOT
BRANCH   4  10
HETATM   10  C3  UNL     1      -3.940  -4.667  -7.065  1.00  0.00     0.096 A 
HETATM   11  C4  UNL     1      -3.308  -3.466  -7.202  1.00  0.00     0.145 A 
HETATM   12  N3  UNL     1      -2.068  -3.522  -6.631  1.00  0.00    -0.284 N 
HETATM   13  N5  UNL     1      -1.948  -4.742  -6.155  1.00  0.00    -0.240 N 
HETATM   14  N6  UNL     1      -3.042  -5.439  -6.398  1.00  0.00    -0.283 N 
ATOM     15  H5  UNL     1      -1.126  -5.099  -5.667  1.00  0.00     0.208 HD
ATOM     16  H6  UNL     1      -3.191  -6.410  -6.125  1.00  0.00     0.188 HD
BRANCH  12  17
HETATM   17  C5  UNL     1      -1.072  -2.471  -6.555  1.00  0.00     0.183 C 
BRANCH  17  18
HETATM   18  C6  UNL     1      -0.538  -2.119  -7.930  1.00  0.00     0.163 C 
BRANCH  18  19
HETATM   19  O1  UNL     1       0.835  -1.895  -7.891  1.00  0.00    -0.392 OA
ATOM     20  H1  UNL     1       1.309  -2.704  -7.737  1.00  0.00     0.210 HD
ENDBRANCH  18  19
BRANCH  18  21
HETATM   21  C7  UNL     1      -1.286  -0.945  -8.518  1.00  0.00     0.262 C 
BRANCH  21  22
HETATM   22  N4  UNL     1      -2.276  -1.430  -9.436  1.00  0.00    -0.077 N 
ATOM     23  H43 UNL     1      -1.967  -1.371 -10.406  1.00  0.00     0.274 HD
ATOM     24  H42 UNL     1      -2.391  -2.442  -9.383  1.00  0.00     0.274 HD
ATOM     25  H41 UNL     1      -3.152  -0.932  -9.277  1.00  0.00     0.274 HD
ENDBRANCH  21  22
ENDBRANCH  18  21
ENDBRANCH  17  18
ENDBRANCH  12  17
ENDBRANCH   4  10
BRANCH   1  26
HETATM   26  N1  UNL     1      -6.485  -7.664  -9.637  1.00  0.00    -0.234 N 
ATOM     27  H12 UNL     1      -5.750  -7.744 -10.340  1.00  0.00     0.174 HD
ATOM     28  H11 UNL     1      -7.211  -8.378  -9.581  1.00  0.00     0.174 HD
ENDBRANCH   1  26
BRANCH   7  29
HETATM   29  N8  UNL     1      -8.869  -4.509  -7.107  1.00  0.00    -0.373 N 
ATOM     30  H8  UNL     1      -9.194  -3.646  -7.541  1.00  0.00     0.161 HD
BRANCH  29  31
HETATM   31  C10 UNL     1      -9.653  -5.090  -6.054  1.00  0.00     0.148 C 
BRANCH  31  32
HETATM   32  C11 UNL     1     -10.282  -4.120  -5.112  1.00  0.00     0.249 C 
BRANCH  32  33
HETATM   33  N9  UNL     1      -9.310  -3.031  -4.932  1.00  0.00    -0.078 N 
ATOM     34  H93 UNL     1      -9.620  -2.316  -4.274  1.00  0.00     0.274 HD
ATOM     35  H92 UNL     1      -8.472  -3.315  -4.424  1.00  0.00     0.274 HD
ATOM     36  H91 UNL     1      -9.114  -2.666  -5.864  1.00  0.00     0.274 HD
ENDBRANCH  32  33
ENDBRANCH  31  32
ENDBRANCH  29  31
ENDBRANCH   7  29
TORSDOF 11
ENDMDL
MODEL 2
REMARK VINA RESULT: -7.004746774      1.072      1.262
REMARK  11 active torsions:
REMARK  status: ('A' for Active; 'I' for Inactive)
REMARK    1  A    between atoms: N1_1  and  C1_4 
REMARK    2  A    between atoms: C2_7  and  C3_8 
REMARK    3  A    between atoms: N3_10  and  C5_11 
REMARK    4  A    between atoms: C5_11  and  C6_12 
REMARK    5  A    between atoms: C6_12  and  O1_13 
REMARK    6  A    between atoms: C6_12  and  C7_15 
REMARK    7  A    between atoms: C7_15  and  N4_16 
REMARK    8  A    between atoms: C9_26  and  N8_27 
REMARK    9  A    between atoms: N8_27  and  C10_29 
REMARK   10  A    between atoms: C10_29  and  C11_30 
REMARK   11  A    between atoms: C11_30  and  N9_31 
ROOT
HETATM    1  C1  UNL     1      -6.415  -6.846  -8.884  1.00  0.00     0.678 A 
HETATM    2  N2  UNL     1      -5.308  -6.299  -8.395  1.00  0.00    -0.188 N 
ATOM      3  H2  UNL     1      -4.415  -6.710  -8.670  1.00  0.00     0.184 HD
HETATM    4  C2  UNL     1      -5.277  -5.228  -7.551  1.00  0.00     0.106 A 
HETATM    5  C8  UNL     1      -6.491  -4.711  -7.212  1.00  0.00     0.120 A 
HETATM    6  N7  UNL     1      -6.623  -3.610  -6.353  1.00  0.00    -0.096 NA
HETATM    7  C9  UNL     1      -7.666  -5.280  -7.723  1.00  0.00     0.143 A 
HETATM    8  N10 UNL     1      -7.626  -6.332  -8.547  1.00  0.00    -0.175 N 
ATOM      9  H10 UNL     1      -8.486  -6.739  -8.914  1.00  0.00     0.186 HD
ENDROOT
BRANCH   4  10
HETATM   10  C3  UNL     1      -3.990  -4.720  -7.081  1.00  0.00     0.096 A 
HETATM   11  C4  UNL     1      -3.377  -3.514  -7.251  1.00  0.00     0.145 A 
HETATM   12  N3  UNL     1      -2.167  -3.510  -6.615  1.00  0.00    -0.284 N 
HETATM   13  N5  UNL     1      -2.047  -4.700  -6.068  1.00  0.00    -0.240 N 
HETATM   14  N6  UNL     1      -3.112  -5.434  -6.328  1.00  0.00    -0.283 N 
ATOM     15  H5  UNL     1      -1.245  -5.011  -5.520  1.00  0.00     0.208 HD
ATOM     16  H6  UNL     1      -3.255  -6.393  -6.011  1.00  0.00     0.188 HD
BRANCH  12  17
HETATM   17  C5  UNL     1      -1.199  -2.434  -6.545  1.00  0.00     0.183 C 
BRANCH  17  18
HETATM   18  C6  UNL     1      -0.615  -2.129  -7.911  1.00  0.00     0.163 C 
BRANCH  18  19
HETATM   19  O1  UNL     1       0.757  -1.911  -7.832  1.00  0.00    -0.392 OA
ATOM     20  H1  UNL     1       1.242  -2.695  -8.063  1.00  0.00     0.210 HD
ENDBRANCH  18  19
BRANCH  18  21
HETATM   21  C7  UNL     1      -1.336  -0.971  -8.564  1.00  0.00     0.262 C 
BRANCH  21  22
HETATM   22  N4  UNL     1      -2.329  -1.483  -9.463  1.00  0.00    -0.077 N 
ATOM     23  H43 UNL     1      -2.625  -2.428  -9.218  1.00  0.00     0.274 HD
ATOM     24  H42 UNL     1      -3.230  -1.017  -9.351  1.00  0.00     0.274 HD
ATOM     25  H41 UNL     1      -1.979  -1.422 -10.419  1.00  0.00     0.274 HD
ENDBRANCH  21  22
ENDBRANCH  18  21
ENDBRANCH  17  18
ENDBRANCH  12  17
ENDBRANCH   4  10
BRANCH   1  26
HETATM   26  N1  UNL     1      -6.330  -7.860  -9.677  1.00  0.00    -0.234 N 
ATOM     27  H12 UNL     1      -7.115  -8.503  -9.783  1.00  0.00     0.174 HD
ATOM     28  H11 UNL     1      -5.471  -8.020 -10.204  1.00  0.00     0.174 HD
ENDBRANCH   1  26
BRANCH   7  29
HETATM   29  N8  UNL     1      -8.916  -4.726  -7.325  1.00  0.00    -0.373 N 
ATOM     30  H8  UNL     1      -9.198  -4.804  -6.349  1.00  0.00     0.161 HD
BRANCH  29  31
HETATM   31  C10 UNL     1      -9.793  -4.062  -8.247  1.00  0.00     0.148 C 
BRANCH  31  32
HETATM   32  C11 UNL     1      -9.190  -2.921  -8.997  1.00  0.00     0.249 C 
BRANCH  32  33
HETATM   33  N9  UNL     1      -8.864  -1.895  -7.995  1.00  0.00    -0.078 N 
ATOM     34  H93 UNL     1      -8.242  -2.231  -7.260  1.00  0.00     0.274 HD
ATOM     35  H92 UNL     1      -8.253  -1.160  -8.351  1.00  0.00     0.274 HD
ATOM     36  H91 UNL     1      -9.755  -1.546  -7.643  1.00  0.00     0.274 HD
ENDBRANCH  32  33
ENDBRANCH  31  32
ENDBRANCH  29  31
ENDBRANCH   7  29
TORSDOF 11
ENDMDL
MODEL 3
REMARK VINA RESULT: -6.968580854      3.378      7.712
REMARK  11 active torsions:
REMARK  status: ('A' for Active; 'I' for Inactive)
REMARK    1  A    between atoms: N1_1  and  C1_4 
REMARK    2  A    between atoms: C2_7  and  C3_8 
REMARK    3  A    between atoms: N3_10  and  C5_11 
REMARK    4  A    between atoms: C5_11  and  C6_12 
REMARK    5  A    between atoms: C6_12  and  O1_13 
REMARK    6  A    between atoms: C6_12  and  C7_15 
REMARK    7  A    between atoms: C7_15  and  N4_16 
REMARK    8  A    between atoms: C9_26  and  N8_27 
REMARK    9  A    between atoms: N8_27  and  C10_29 
REMARK   10  A    between atoms: C10_29  and  C11_30 
REMARK   11  A    between atoms: C11_30  and  N9_31 
ROOT
HETATM    1  C1  UNL     1      -3.336  -4.678  -6.417  1.00  0.00     0.678 A 
HETATM    2  N2  UNL     1      -4.545  -5.135  -6.720  1.00  0.00    -0.188 N 
ATOM      3  H2  UNL     1      -4.914  -5.904  -6.159  1.00  0.00     0.184 HD
HETATM    4  C2  UNL     1      -5.330  -4.652  -7.724  1.00  0.00     0.106 A 
HETATM    5  C8  UNL     1      -4.799  -3.625  -8.445  1.00  0.00     0.120 A 
HETATM    6  N7  UNL     1      -5.486  -3.023  -9.510  1.00  0.00    -0.096 NA
HETATM    7  C9  UNL     1      -3.523  -3.134  -8.134  1.00  0.00     0.143 A 
HETATM    8  N10 UNL     1      -2.804  -3.654  -7.134  1.00  0.00    -0.175 N 
ATOM      9  H10 UNL     1      -1.877  -3.290  -6.915  1.00  0.00     0.186 HD
ENDROOT
BRANCH   4  10
HETATM   10  C3  UNL     1      -6.646  -5.245  -7.957  1.00  0.00     0.096 A 
HETATM   11  C4  UNL     1      -7.839  -5.078  -7.318  1.00  0.00     0.145 A 
HETATM   12  N3  UNL     1      -8.797  -5.857  -7.905  1.00  0.00    -0.284 N 
HETATM   13  N5  UNL     1      -8.192  -6.489  -8.887  1.00  0.00    -0.240 N 
HETATM   14  N6  UNL     1      -6.920  -6.144  -8.939  1.00  0.00    -0.283 N 
ATOM     15  H5  UNL     1      -8.642  -7.152  -9.518  1.00  0.00     0.208 HD
ATOM     16  H6  UNL     1      -6.243  -6.499  -9.616  1.00  0.00     0.188 HD
BRANCH  12  17
HETATM   17  C5  UNL     1     -10.194  -5.979  -7.540  1.00  0.00     0.183 C 
BRANCH  17  18
HETATM   18  C6  UNL     1     -10.376  -6.924  -6.367  1.00  0.00     0.163 C 
BRANCH  18  19
HETATM   19  O1  UNL     1     -11.013  -8.096  -6.763  1.00  0.00    -0.392 OA
ATOM     20  H1  UNL     1     -10.602  -8.858  -6.372  1.00  0.00     0.210 HD
ENDBRANCH  18  19
BRANCH  18  21
HETATM   21  C7  UNL     1     -11.099  -6.243  -5.228  1.00  0.00     0.262 C 
BRANCH  21  22
HETATM   22  N4  UNL     1     -11.799  -7.231  -4.458  1.00  0.00    -0.077 N 
ATOM     23  H43 UNL     1     -12.605  -7.610  -4.955  1.00  0.00     0.274 HD
ATOM     24  H42 UNL     1     -11.268  -8.097  -4.364  1.00  0.00     0.274 HD
ATOM     25  H41 UNL     1     -12.052  -6.832  -3.554  1.00  0.00     0.274 HD
ENDBRANCH  21  22
ENDBRANCH  18  21
ENDBRANCH  17  18
ENDBRANCH  12  17
ENDBRANCH   4  10
BRANCH   1  26
HETATM   26  N1  UNL     1      -2.676  -5.208  -5.444  1.00  0.00    -0.234 N 
ATOM     27  H12 UNL     1      -2.239  -6.123  -5.551  1.00  0.00     0.174 HD
ATOM     28  H11 UNL     1      -2.591  -4.707  -4.559  1.00  0.00     0.174 HD
ENDBRANCH   1  26
BRANCH   7  29
HETATM   29  N8  UNL     1      -2.993  -2.076  -8.926  1.00  0.00    -0.373 N 
ATOM     30  H8  UNL     1      -3.313  -1.977  -9.890  1.00  0.00     0.161 HD
BRANCH  29  31
HETATM   31  C10 UNL     1      -2.028  -1.143  -8.420  1.00  0.00     0.148 C 
BRANCH  31  32
HETATM   32  C11 UNL     1      -0.632  -1.334  -8.911  1.00  0.00     0.249 C 
BRANCH  32  33
HETATM   33  N9  UNL     1       0.129  -1.893  -7.783  1.00  0.00    -0.078 N 
ATOM     34  H93 UNL     1       1.084  -1.541  -7.725  1.00  0.00     0.274 HD
ATOM     35  H92 UNL     1      -0.186  -1.554  -6.874  1.00  0.00     0.274 HD
ATOM     36  H91 UNL     1       0.076  -2.907  -7.877  1.00  0.00     0.274 HD
ENDBRANCH  32  33
ENDBRANCH  31  32
ENDBRANCH  29  31
ENDBRANCH   7  29
TORSDOF 11
ENDMDL
MODEL 4
REMARK VINA RESULT: -6.824938337      1.950      2.891
REMARK  11 active torsions:
REMARK  status: ('A' for Active; 'I' for Inactive)
REMARK    1  A    between atoms: N1_1  and  C1_4 
REMARK    2  A    between atoms: C2_7  and  C3_8 
REMARK    3  A    between atoms: N3_10  and  C5_11 
REMARK    4  A    between atoms: C5_11  and  C6_12 
REMARK    5  A    between atoms: C6_12  and  O1_13 
REMARK    6  A    between atoms: C6_12  and  C7_15 
REMARK    7  A    between atoms: C7_15  and  N4_16 
REMARK    8  A    between atoms: C9_26  and  N8_27 
REMARK    9  A    between atoms: N8_27  and  C10_29 
REMARK   10  A    between atoms: C10_29  and  C11_30 
REMARK   11  A    between atoms: C11_30  and  N9_31 
ROOT
HETATM    1  C1  UNL     1      -7.614  -5.777  -6.650  1.00  0.00     0.678 A 
HETATM    2  N2  UNL     1      -6.343  -5.438  -6.465  1.00  0.00    -0.188 N 
ATOM      3  H2  UNL     1      -5.949  -5.569  -5.533  1.00  0.00     0.184 HD
HETATM    4  C2  UNL     1      -5.526  -4.928  -7.431  1.00  0.00     0.106 A 
HETATM    5  C8  UNL     1      -6.093  -4.772  -8.660  1.00  0.00     0.120 A 
HETATM    6  N7  UNL     1      -5.380  -4.259  -9.754  1.00  0.00    -0.096 NA
HETATM    7  C9  UNL     1      -7.433  -5.126  -8.866  1.00  0.00     0.143 A 
HETATM    8  N10 UNL     1      -8.181  -5.621  -7.875  1.00  0.00    -0.175 N 
ATOM      9  H10 UNL     1      -9.155  -5.877  -8.034  1.00  0.00     0.186 HD
ENDROOT
BRANCH   4  10
HETATM   10  C3  UNL     1      -4.143  -4.593  -7.099  1.00  0.00     0.096 A 
HETATM   11  C4  UNL     1      -3.479  -3.402  -7.083  1.00  0.00     0.145 A 
HETATM   12  N3  UNL     1      -2.181  -3.594  -6.701  1.00  0.00    -0.284 N 
HETATM   13  N5  UNL     1      -2.058  -4.886  -6.489  1.00  0.00    -0.240 N 
HETATM   14  N6  UNL     1      -3.203  -5.499  -6.717  1.00  0.00    -0.283 N 
ATOM     15  H5  UNL     1      -1.199  -5.348  -6.192  1.00  0.00     0.208 HD
ATOM     16  H6  UNL     1      -3.361  -6.503  -6.620  1.00  0.00     0.188 HD
BRANCH  12  17
HETATM   17  C5  UNL     1      -1.138  -2.598  -6.554  1.00  0.00     0.183 C 
BRANCH  17  18
HETATM   18  C6  UNL     1      -0.596  -2.166  -7.903  1.00  0.00     0.163 C 
BRANCH  18  19
HETATM   19  O1  UNL     1       0.767  -1.894  -7.830  1.00  0.00    -0.392 OA
ATOM     20  H1  UNL     1       1.121  -1.691  -8.689  1.00  0.00     0.210 HD
ENDBRANCH  18  19
BRANCH  18  21
HETATM   21  C7  UNL     1      -1.378  -0.995  -8.452  1.00  0.00     0.262 C 
BRANCH  21  22
HETATM   22  N4  UNL     1      -2.292  -1.468  -9.451  1.00  0.00    -0.077 N 
ATOM     23  H43 UNL     1      -3.068  -0.824  -9.603  1.00  0.00     0.274 HD
ATOM     24  H42 UNL     1      -1.893  -1.435 -10.389  1.00  0.00     0.274 HD
ATOM     25  H41 UNL     1      -2.609  -2.404  -9.198  1.00  0.00     0.274 HD
ENDBRANCH  21  22
ENDBRANCH  18  21
ENDBRANCH  17  18
ENDBRANCH  12  17
ENDBRANCH   4  10
BRANCH   1  26
HETATM   26  N1  UNL     1      -8.299  -6.251  -5.666  1.00  0.00    -0.234 N 
ATOM     27  H12 UNL     1      -9.286  -6.019  -5.561  1.00  0.00     0.174 HD
ATOM     28  H11 UNL     1      -7.849  -6.865  -4.986  1.00  0.00     0.174 HD
ENDBRANCH   1  26
BRANCH   7  29
HETATM   29  N8  UNL     1      -7.996  -4.925 -10.159  1.00  0.00    -0.373 N 
ATOM     30  H8  UNL     1      -7.856  -5.642 -10.871  1.00  0.00     0.161 HD
BRANCH  29  31
HETATM   31  C10 UNL     1      -8.752  -3.754 -10.497  1.00  0.00     0.148 C 
BRANCH  31  32
HETATM   32  C11 UNL     1      -8.378  -3.098 -11.784  1.00  0.00     0.249 C 
BRANCH  32  33
HETATM   33  N9  UNL     1      -7.091  -2.427 -11.545  1.00  0.00    -0.078 N 
ATOM     34  H93 UNL     1      -6.774  -2.490 -10.578  1.00  0.00     0.274 HD
ATOM     35  H92 UNL     1      -6.298  -2.909 -11.969  1.00  0.00     0.274 HD
ATOM     36  H91 UNL     1      -7.203  -1.468 -11.873  1.00  0.00     0.274 HD
ENDBRANCH  32  33
ENDBRANCH  31  32
ENDBRANCH  29  31
ENDBRANCH   7  29
TORSDOF 11
ENDMDL
MODEL 5
REMARK VINA RESULT: -6.770864632      3.417      7.724
REMARK  11 active torsions:
REMARK  status: ('A' for Active; 'I' for Inactive)
REMARK    1  A    between atoms: N1_1  and  C1_4 
REMARK    2  A    between atoms: C2_7  and  C3_8 
REMARK    3  A    between atoms: N3_10  and  C5_11 
REMARK    4  A    between atoms: C5_11  and  C6_12 
REMARK    5  A    between atoms: C6_12  and  O1_13 
REMARK    6  A    between atoms: C6_12  and  C7_15 
REMARK    7  A    between atoms: C7_15  and  N4_16 
REMARK    8  A    between atoms: C9_26  and  N8_27 
REMARK    9  A    between atoms: N8_27  and  C10_29 
REMARK   10  A    between atoms: C10_29  and  C11_30 
REMARK   11  A    between atoms: C11_30  and  N9_31 
ROOT
HETATM    1  C1  UNL     1      -3.199  -4.687  -6.537  1.00  0.00     0.678 A 
HETATM    2  N2  UNL     1      -4.354  -5.182  -6.968  1.00  0.00    -0.188 N 
ATOM      3  H2  UNL     1      -4.739  -5.985  -6.470  1.00  0.00     0.184 HD
HETATM    4  C2  UNL     1      -5.062  -4.695  -8.026  1.00  0.00     0.106 A 
HETATM    5  C8  UNL     1      -4.512  -3.622  -8.660  1.00  0.00     0.120 A 
HETATM    6  N7  UNL     1      -5.121  -3.010  -9.765  1.00  0.00    -0.096 NA
HETATM    7  C9  UNL     1      -3.293  -3.091  -8.214  1.00  0.00     0.143 A 
HETATM    8  N10 UNL     1      -2.648  -3.617  -7.168  1.00  0.00    -0.175 N 
ATOM      9  H10 UNL     1      -1.763  -3.224  -6.850  1.00  0.00     0.186 HD
ENDROOT
BRANCH   4  10
HETATM   10  C3  UNL     1      -6.323  -5.332  -8.402  1.00  0.00     0.096 A 
HETATM   11  C4  UNL     1      -7.619  -4.950  -8.218  1.00  0.00     0.145 A 
HETATM   12  N3  UNL     1      -8.463  -5.886  -8.749  1.00  0.00    -0.284 N 
HETATM   13  N5  UNL     1      -7.687  -6.824  -9.247  1.00  0.00    -0.240 N 
HETATM   14  N6  UNL     1      -6.418  -6.520  -9.055  1.00  0.00    -0.283 N 
ATOM     15  H5  UNL     1      -8.020  -7.667  -9.715  1.00  0.00     0.208 HD
ATOM     16  H6  UNL     1      -5.627  -7.091  -9.353  1.00  0.00     0.188 HD
BRANCH  12  17
HETATM   17  C5  UNL     1      -9.912  -5.871  -8.770  1.00  0.00     0.183 C 
BRANCH  17  18
HETATM   18  C6  UNL     1     -10.474  -7.264  -8.977  1.00  0.00     0.163 C 
BRANCH  18  19
HETATM   19  O1  UNL     1     -10.296  -7.685 -10.291  1.00  0.00    -0.392 OA
ATOM     20  H1  UNL     1     -10.780  -8.485 -10.463  1.00  0.00     0.210 HD
ENDBRANCH  18  19
BRANCH  18  21
HETATM   21  C7  UNL     1     -11.923  -7.334  -8.552  1.00  0.00     0.262 C 
BRANCH  21  22
HETATM   22  N4  UNL     1     -11.988  -7.464  -7.125  1.00  0.00    -0.077 N 
ATOM     23  H43 UNL     1     -11.849  -6.573  -6.648  1.00  0.00     0.274 HD
ATOM     24  H42 UNL     1     -12.934  -7.657  -6.796  1.00  0.00     0.274 HD
ATOM     25  H41 UNL     1     -11.321  -8.174  -6.823  1.00  0.00     0.274 HD
ENDBRANCH  21  22
ENDBRANCH  18  21
ENDBRANCH  17  18
ENDBRANCH  12  17
ENDBRANCH   4  10
BRANCH   1  26
HETATM   26  N1  UNL     1      -2.611  -5.225  -5.523  1.00  0.00    -0.234 N 
ATOM     27  H12 UNL     1      -3.156  -5.660  -4.778  1.00  0.00     0.174 HD
ATOM     28  H11 UNL     1      -1.593  -5.218  -5.467  1.00  0.00     0.174 HD
ENDBRANCH   1  26
BRANCH   7  29
HETATM   29  N8  UNL     1      -2.738  -1.985  -8.917  1.00  0.00    -0.373 N 
ATOM     30  H8  UNL     1      -2.956  -1.874  -9.907  1.00  0.00     0.161 HD
BRANCH  29  31
HETATM   31  C10 UNL     1      -1.885  -1.019  -8.286  1.00  0.00     0.148 C 
BRANCH  31  32
HETATM   32  C11 UNL     1      -0.472  -1.001  -8.764  1.00  0.00     0.249 C 
BRANCH  32  33
HETATM   33  N9  UNL     1       0.282  -1.876  -7.853  1.00  0.00    -0.078 N 
ATOM     34  H93 UNL     1       0.519  -2.780  -8.263  1.00  0.00     0.274 HD
ATOM     35  H92 UNL     1       1.237  -1.560  -7.685  1.00  0.00     0.274 HD
ATOM     36  H91 UNL     1      -0.275  -1.951  -7.002  1.00  0.00     0.274 HD
ENDBRANCH  32  33
ENDBRANCH  31  32
ENDBRANCH  29  31
ENDBRANCH   7  29
TORSDOF 11
ENDMDL
