MODEL 1
REMARK VINA RESULT: -6.529684413      0.000      0.000
REMARK  3 active torsions:
REMARK  status: ('A' for Active; 'I' for Inactive)
REMARK    1  A    between atoms: C3_3  and  C4_4 
REMARK       I    between atoms: C4_4  and  N1_6 
REMARK    2  A    between atoms: N1_6  and  N2_8 
REMARK    3  A    between atoms: N3_10  and  C5_12 
ROOT
HETATM    1  N2  UNL     1       8.545  60.553   8.790  1.00  0.00    -0.238 N 
ATOM      2  H2  UNL     1       8.155  59.700   9.191  1.00  0.00     0.208 HD
HETATM    3  N3  UNL     1       7.793  61.293   8.080  1.00  0.00    -0.264 N 
ATOM      4  H3  UNL     1       6.821  61.022   7.926  1.00  0.00     0.190 HD
ENDROOT
BRANCH   1   5
HETATM    5  N1  UNL     1       9.884  60.860   9.043  1.00  0.00    -0.251 N 
HETATM    6  C4  UNL     1      10.417  60.962  10.342  1.00  0.00     0.278 C 
HETATM    7  O1  UNL     1       9.605  60.757  11.309  1.00  0.00    -0.266 OA
ATOM      8  H1  UNL     1      10.504  61.018   8.249  1.00  0.00     0.192 HD
BRANCH   6   9
HETATM    9  C3  UNL     1      11.802  61.278  10.652  1.00  0.00     0.126 A 
HETATM   10  C2  UNL     1      12.845  60.367  10.725  1.00  0.00     0.045 A 
HETATM   11  C1  UNL     1      12.678  58.897  10.487  1.00  0.00     0.071 C 
HETATM   12  N8  UNL     1      13.973  61.020  11.033  1.00  0.00    -0.295 N 
HETATM   13  N7  UNL     1      13.716  62.309  11.163  1.00  0.00    -0.259 N 
HETATM   14  C9  UNL     1      15.277  60.409  11.197  1.00  0.00     0.178 C 
HETATM   15  C7  UNL     1      12.388  62.492  10.934  1.00  0.00     0.279 A 
HETATM   16  C8  UNL     1      14.642  63.386  11.491  1.00  0.00     0.181 C 
HETATM   17  O2  UNL     1      11.818  63.603  10.980  1.00  0.00    -0.265 OA
ENDBRANCH   6   9
ENDBRANCH   1   5
BRANCH   3  18
HETATM   18  C5  UNL     1       8.294  62.510   7.489  1.00  0.00     0.182 A 
HETATM   19  N4  UNL     1       7.687  63.356   6.673  1.00  0.00    -0.276 N 
HETATM   20  N5  UNL     1       8.288  64.386   6.247  1.00  0.00    -0.278 N 
ATOM     21  H4  UNL     1       6.726  63.176   6.383  1.00  0.00     0.189 HD
HETATM   22  C6  UNL     1       9.546  64.606   6.638  1.00  0.00     0.160 A 
ATOM     23  H5  UNL     1       7.819  65.036   5.617  1.00  0.00     0.189 HD
HETATM   24  N6  UNL     1      10.345  65.600   6.321  1.00  0.00    -0.378 N 
HETATM   25  S1  UNL     1       9.835  63.256   7.651  1.00  0.00    -0.014 SA
ATOM     26  H62 UNL     1      10.173  66.404   5.717  1.00  0.00     0.158 HD
ATOM     27  H61 UNL     1      11.306  65.767   6.619  1.00  0.00     0.158 HD
ENDBRANCH   3  18
TORSDOF 3
ENDMDL
MODEL 2
REMARK VINA RESULT: -6.320462041      1.455      2.378
REMARK  3 active torsions:
REMARK  status: ('A' for Active; 'I' for Inactive)
REMARK    1  A    between atoms: C3_3  and  C4_4 
REMARK       I    between atoms: C4_4  and  N1_6 
REMARK    2  A    between atoms: N1_6  and  N2_8 
REMARK    3  A    between atoms: N3_10  and  C5_12 
ROOT
HETATM    1  N2  UNL     1       8.505  60.242   8.854  1.00  0.00    -0.238 N 
ATOM      2  H2  UNL     1       7.917  59.474   9.179  1.00  0.00     0.208 HD
HETATM    3  N3  UNL     1       7.963  61.196   8.211  1.00  0.00    -0.264 N 
ATOM      4  H3  UNL     1       6.958  61.176   8.034  1.00  0.00     0.190 HD
ENDROOT
BRANCH   1   5
HETATM    5  N1  UNL     1       9.873  60.202   9.133  1.00  0.00    -0.251 N 
HETATM    6  C4  UNL     1      10.393  60.241  10.441  1.00  0.00     0.278 C 
HETATM    7  O1  UNL     1       9.539  60.317  11.391  1.00  0.00    -0.266 OA
ATOM      8  H1  UNL     1      10.526  60.141   8.352  1.00  0.00     0.192 HD
BRANCH   6   9
HETATM    9  C3  UNL     1      11.806  60.200  10.777  1.00  0.00     0.126 A 
HETATM   10  C2  UNL     1      12.621  61.302  10.989  1.00  0.00     0.045 A 
HETATM   11  C1  UNL     1      12.139  62.717  10.897  1.00  0.00     0.071 C 
HETATM   12  N8  UNL     1      13.858  60.879  11.277  1.00  0.00    -0.295 N 
HETATM   13  N7  UNL     1      13.890  59.559  11.264  1.00  0.00    -0.259 N 
HETATM   14  C9  UNL     1      14.992  61.737  11.562  1.00  0.00     0.178 C 
HETATM   15  C7  UNL     1      12.640  59.119  10.959  1.00  0.00     0.279 A 
HETATM   16  C8  UNL     1      15.023  58.680  11.520  1.00  0.00     0.181 C 
HETATM   17  O2  UNL     1      12.327  57.912  10.864  1.00  0.00    -0.265 OA
ENDBRANCH   6   9
ENDBRANCH   1   5
BRANCH   3  18
HETATM   18  C5  UNL     1       8.748  62.306   7.728  1.00  0.00     0.182 A 
HETATM   19  N4  UNL     1      10.056  62.494   7.786  1.00  0.00    -0.276 N 
HETATM   20  N5  UNL     1      10.580  63.541   7.305  1.00  0.00    -0.278 N 
ATOM     21  H4  UNL     1      10.649  61.788   8.223  1.00  0.00     0.189 HD
HETATM   22  C6  UNL     1       9.789  64.455   6.736  1.00  0.00     0.160 A 
ATOM     23  H5  UNL     1      11.589  63.685   7.352  1.00  0.00     0.189 HD
HETATM   24  N6  UNL     1      10.119  65.598   6.181  1.00  0.00    -0.378 N 
HETATM   25  S1  UNL     1       8.244  63.740   6.924  1.00  0.00    -0.014 SA
ATOM     26  H62 UNL     1      11.039  66.025   6.069  1.00  0.00     0.158 HD
ATOM     27  H61 UNL     1       9.515  66.296   5.746  1.00  0.00     0.158 HD
ENDBRANCH   3  18
TORSDOF 3
ENDMDL
MODEL 3
REMARK VINA RESULT: -6.146745204      2.782      6.143
REMARK  3 active torsions:
REMARK  status: ('A' for Active; 'I' for Inactive)
REMARK    1  A    between atoms: C3_3  and  C4_4 
REMARK       I    between atoms: C4_4  and  N1_6 
REMARK    2  A    between atoms: N1_6  and  N2_8 
REMARK    3  A    between atoms: N3_10  and  C5_12 
ROOT
HETATM    1  N2  UNL     1      11.495  58.545  10.948  1.00  0.00    -0.238 N 
ATOM      2  H2  UNL     1      10.641  58.052  11.208  1.00  0.00     0.208 HD
HETATM    3  N3  UNL     1      12.611  58.085  11.348  1.00  0.00    -0.264 N 
ATOM      4  H3  UNL     1      12.631  57.237  11.916  1.00  0.00     0.190 HD
ENDROOT
BRANCH   1   5
HETATM    5  N1  UNL     1      11.391  59.699  10.169  1.00  0.00    -0.251 N 
HETATM    6  C4  UNL     1      10.345  60.630  10.308  1.00  0.00     0.278 C 
HETATM    7  O1  UNL     1       9.466  60.370  11.201  1.00  0.00    -0.266 OA
ATOM      8  H1  UNL     1      12.108  59.875   9.465  1.00  0.00     0.192 HD
BRANCH   6   9
HETATM    9  C3  UNL     1      10.197  61.843   9.520  1.00  0.00     0.126 A 
HETATM   10  C2  UNL     1      10.770  63.072   9.808  1.00  0.00     0.045 A 
HETATM   11  C1  UNL     1      11.640  63.319  11.003  1.00  0.00     0.071 C 
HETATM   12  N8  UNL     1      10.414  63.951   8.863  1.00  0.00    -0.295 N 
HETATM   13  N7  UNL     1       9.640  63.356   7.974  1.00  0.00    -0.259 N 
HETATM   14  C9  UNL     1      10.817  65.343   8.819  1.00  0.00     0.178 C 
HETATM   15  C7  UNL     1       9.492  62.059   8.357  1.00  0.00     0.279 A 
HETATM   16  C8  UNL     1       9.027  63.929   6.783  1.00  0.00     0.181 C 
HETATM   17  O2  UNL     1       8.814  61.218   7.729  1.00  0.00    -0.265 OA
ENDBRANCH   6   9
ENDBRANCH   1   5
BRANCH   3  18
HETATM   18  C5  UNL     1      13.849  58.743  11.010  1.00  0.00     0.182 A 
HETATM   19  N4  UNL     1      14.600  58.611   9.929  1.00  0.00    -0.276 N 
HETATM   20  N5  UNL     1      15.669  59.277   9.800  1.00  0.00    -0.278 N 
ATOM     21  H4  UNL     1      14.315  57.965   9.192  1.00  0.00     0.189 HD
HETATM   22  C6  UNL     1      16.026  60.118  10.774  1.00  0.00     0.160 A 
ATOM     23  H5  UNL     1      16.247  59.174   8.966  1.00  0.00     0.189 HD
HETATM   24  N6  UNL     1      17.082  60.897  10.844  1.00  0.00    -0.378 N 
HETATM   25  S1  UNL     1      14.750  59.909  11.897  1.00  0.00    -0.014 SA
ATOM     26  H62 UNL     1      17.842  61.022  10.175  1.00  0.00     0.158 HD
ATOM     27  H61 UNL     1      17.355  61.539  11.588  1.00  0.00     0.158 HD
ENDBRANCH   3  18
TORSDOF 3
ENDMDL
MODEL 4
REMARK VINA RESULT: -6.065807349      2.783      6.054
REMARK  3 active torsions:
REMARK  status: ('A' for Active; 'I' for Inactive)
REMARK    1  A    between atoms: C3_3  and  C4_4 
REMARK       I    between atoms: C4_4  and  N1_6 
REMARK    2  A    between atoms: N1_6  and  N2_8 
REMARK    3  A    between atoms: N3_10  and  C5_12 
ROOT
HETATM    1  N2  UNL     1      11.945  58.412  10.997  1.00  0.00    -0.238 N 
ATOM      2  H2  UNL     1      11.130  57.866  11.277  1.00  0.00     0.208 HD
HETATM    3  N3  UNL     1      13.100  58.002  11.335  1.00  0.00    -0.264 N 
ATOM      4  H3  UNL     1      13.190  57.141  11.875  1.00  0.00     0.190 HD
ENDROOT
BRANCH   1   5
HETATM    5  N1  UNL     1      11.745  59.580  10.257  1.00  0.00    -0.251 N 
HETATM    6  C4  UNL     1      10.757  60.531  10.573  1.00  0.00     0.278 C 
HETATM    7  O1  UNL     1      10.026  60.277  11.592  1.00  0.00    -0.266 OA
ATOM      8  H1  UNL     1      12.345  59.752   9.450  1.00  0.00     0.192 HD
BRANCH   6   9
HETATM    9  C3  UNL     1      10.515  61.759   9.832  1.00  0.00     0.126 A 
HETATM   10  C2  UNL     1       9.726  61.880   8.699  1.00  0.00     0.045 A 
HETATM   11  C1  UNL     1       8.998  60.731   8.070  1.00  0.00     0.071 C 
HETATM   12  N8  UNL     1       9.738  63.157   8.295  1.00  0.00    -0.295 N 
HETATM   13  N7  UNL     1      10.494  63.871   9.107  1.00  0.00    -0.259 N 
HETATM   14  C9  UNL     1       9.030  63.677   7.142  1.00  0.00     0.178 C 
HETATM   15  C7  UNL     1      10.983  63.034  10.061  1.00  0.00     0.279 A 
HETATM   16  C8  UNL     1      10.790  65.297   9.047  1.00  0.00     0.181 C 
HETATM   17  O2  UNL     1      11.739  63.395  10.988  1.00  0.00    -0.265 OA
ENDBRANCH   6   9
ENDBRANCH   1   5
BRANCH   3  18
HETATM   18  C5  UNL     1      14.285  58.736  10.965  1.00  0.00     0.182 A 
HETATM   19  N4  UNL     1      14.988  58.683   9.846  1.00  0.00    -0.276 N 
HETATM   20  N5  UNL     1      16.014  59.409   9.692  1.00  0.00    -0.278 N 
ATOM     21  H4  UNL     1      14.701  58.050   9.099  1.00  0.00     0.189 HD
HETATM   22  C6  UNL     1      16.376  60.231  10.680  1.00  0.00     0.160 A 
ATOM     23  H5  UNL     1      16.556  59.365   8.829  1.00  0.00     0.189 HD
HETATM   24  N6  UNL     1      17.393  61.062  10.730  1.00  0.00    -0.378 N 
HETATM   25  S1  UNL     1      15.168  59.915  11.853  1.00  0.00    -0.014 SA
ATOM     26  H62 UNL     1      18.112  61.250  10.032  1.00  0.00     0.158 HD
ATOM     27  H61 UNL     1      17.669  61.690  11.485  1.00  0.00     0.158 HD
ENDBRANCH   3  18
TORSDOF 3
ENDMDL
MODEL 5
REMARK VINA RESULT: -5.967924822      9.326     11.085
REMARK  3 active torsions:
REMARK  status: ('A' for Active; 'I' for Inactive)
REMARK    1  A    between atoms: C3_3  and  C4_4 
REMARK       I    between atoms: C4_4  and  N1_6 
REMARK    2  A    between atoms: N1_6  and  N2_8 
REMARK    3  A    between atoms: N3_10  and  C5_12 
ROOT
HETATM    1  N2  UNL     1       4.066  61.741  -1.751  1.00  0.00    -0.238 N 
ATOM      2  H2  UNL     1       3.208  61.529  -2.261  1.00  0.00     0.208 HD
HETATM    3  N3  UNL     1       4.607  62.881  -1.914  1.00  0.00    -0.264 N 
ATOM      4  H3  UNL     1       4.175  63.557  -2.545  1.00  0.00     0.190 HD
ENDROOT
BRANCH   1   5
HETATM    5  N1  UNL     1       4.599  60.768  -0.904  1.00  0.00    -0.251 N 
HETATM    6  C4  UNL     1       4.040  60.448   0.348  1.00  0.00     0.278 C 
HETATM    7  O1  UNL     1       2.995  61.103   0.690  1.00  0.00    -0.266 OA
ATOM      8  H1  UNL     1       5.433  60.264  -1.207  1.00  0.00     0.192 HD
BRANCH   6   9
HETATM    9  C3  UNL     1       4.560  59.443   1.261  1.00  0.00     0.126 A 
HETATM   10  C2  UNL     1       3.805  58.512   1.958  1.00  0.00     0.045 A 
HETATM   11  C1  UNL     1       2.313  58.417   1.860  1.00  0.00     0.071 C 
HETATM   12  N8  UNL     1       4.624  57.754   2.698  1.00  0.00    -0.295 N 
HETATM   13  N7  UNL     1       5.872  58.143   2.518  1.00  0.00    -0.259 N 
HETATM   14  C9  UNL     1       4.205  56.670   3.565  1.00  0.00     0.178 C 
HETATM   15  C7  UNL     1       5.858  59.181   1.638  1.00  0.00     0.279 A 
HETATM   16  C8  UNL     1       7.083  57.603   3.120  1.00  0.00     0.181 C 
HETATM   17  O2  UNL     1       6.883  59.783   1.251  1.00  0.00    -0.265 OA
ENDBRANCH   6   9
ENDBRANCH   1   5
BRANCH   3  18
HETATM   18  C5  UNL     1       5.820  63.232  -1.218  1.00  0.00     0.182 A 
HETATM   19  N4  UNL     1       6.857  62.472  -0.908  1.00  0.00    -0.276 N 
HETATM   20  N5  UNL     1       7.849  62.955  -0.287  1.00  0.00    -0.278 N 
ATOM     21  H4  UNL     1       6.858  61.486  -1.172  1.00  0.00     0.189 HD
HETATM   22  C6  UNL     1       7.832  64.247   0.050  1.00  0.00     0.160 A 
ATOM     23  H5  UNL     1       8.648  62.367  -0.048  1.00  0.00     0.189 HD
HETATM   24  N6  UNL     1       8.745  64.944   0.688  1.00  0.00    -0.378 N 
HETATM   25  S1  UNL     1       6.315  64.745  -0.568  1.00  0.00    -0.014 SA
ATOM     26  H62 UNL     1       9.649  64.647   1.057  1.00  0.00     0.158 HD
ATOM     27  H61 UNL     1       8.731  65.931   0.945  1.00  0.00     0.158 HD
ENDBRANCH   3  18
TORSDOF 3
ENDMDL
