MODEL 1
REMARK VINA RESULT: -7.749084090      0.000      0.000
REMARK  6 active torsions:
REMARK  status: ('A' for Active; 'I' for Inactive)
REMARK    1  A    between atoms: N1_1  and  N2_4 
REMARK    2  A    between atoms: N2_4  and  C1_6 
REMARK    3  A    between atoms: N3_7  and  C2_8 
REMARK    4  A    between atoms: C5_11  and  N4_12 
REMARK    5  A    between atoms: C8_19  and  C9_20 
REMARK    6  A    between atoms: N8_27  and  N9_28 
ROOT
HETATM    1  C1  UNL     1       5.717  57.175   3.189  1.00  0.00     0.740 A 
HETATM    2  N3  UNL     1       6.943  57.116   2.663  1.00  0.00    -0.082 N 
HETATM    3  N5  UNL     1       6.974  57.949   1.648  1.00  0.00    -0.260 N 
ATOM      4  H5  UNL     1       7.790  58.110   1.057  1.00  0.00     0.190 HD
HETATM    5  C8  UNL     1       5.772  58.568   1.490  1.00  0.00     0.188 A 
HETATM    6  N8  UNL     1       5.005  58.063   2.470  1.00  0.00    -0.069 N 
ENDROOT
BRANCH   2   7
HETATM    7  C2  UNL     1       8.063  56.326   3.064  1.00  0.00     0.075 A 
HETATM    8  C3  UNL     1       8.147  55.007   2.682  1.00  0.00     0.034 A 
HETATM    9  C4  UNL     1       9.231  54.249   3.071  1.00  0.00     0.038 A 
HETATM   10  C5  UNL     1      10.243  54.777   3.840  1.00  0.00     0.103 A 
HETATM   11  C6  UNL     1      10.124  56.095   4.201  1.00  0.00     0.038 A 
HETATM   12  C7  UNL     1       9.057  56.878   3.831  1.00  0.00     0.034 A 
BRANCH  10  13
HETATM   13  N4  UNL     1      11.368  54.019   4.254  1.00  0.00    -0.116 N 
HETATM   14  O1  UNL     1      12.397  54.599   4.648  1.00  0.00    -0.532 OA
HETATM   15  O2  UNL     1      11.369  52.650   4.239  1.00  0.00    -0.532 OA
ENDBRANCH  10  13
ENDBRANCH   2   7
BRANCH   1  16
HETATM   16  N2  UNL     1       5.343  56.483   4.203  1.00  0.00    -0.135 N 
ATOM     17  H2  UNL     1       4.401  56.092   4.181  1.00  0.00     0.205 HD
BRANCH  16  18
HETATM   18  N1  UNL     1       6.110  56.225   5.321  1.00  0.00    -0.331 N 
ATOM     19  H12 UNL     1       7.076  55.948   5.150  1.00  0.00     0.177 HD
ATOM     20  H11 UNL     1       5.787  56.291   6.287  1.00  0.00     0.177 HD
ENDBRANCH  16  18
ENDBRANCH   1  16
BRANCH   6  21
HETATM   21  N9  UNL     1       3.677  58.362   2.758  1.00  0.00    -0.322 N 
ATOM     22  H92 UNL     1       3.303  59.210   3.184  1.00  0.00     0.178 HD
ATOM     23  H91 UNL     1       2.914  57.717   2.554  1.00  0.00     0.178 HD
ENDBRANCH   6  21
BRANCH   5  24
HETATM   24  C9  UNL     1       5.409  59.553   0.483  1.00  0.00     0.097 A 
HETATM   25  C10 UNL     1       4.272  59.612  -0.283  1.00  0.00     0.122 A 
HETATM   26  N6  UNL     1       4.344  60.690  -1.087  1.00  0.00    -0.360 N 
HETATM   27  C11 UNL     1       5.514  61.317  -0.840  1.00  0.00     0.180 A 
ATOM     28  H6  UNL     1       3.638  60.981  -1.764  1.00  0.00     0.166 HD
HETATM   29  N7  UNL     1       6.160  60.608   0.127  1.00  0.00    -0.348 N 
ATOM     30  H7  UNL     1       7.072  60.843   0.520  1.00  0.00     0.167 HD
ENDBRANCH   5  24
TORSDOF 6
ENDMDL
MODEL 2
REMARK VINA RESULT: -7.742739123      0.135      1.015
REMARK  6 active torsions:
REMARK  status: ('A' for Active; 'I' for Inactive)
REMARK    1  A    between atoms: N1_1  and  N2_4 
REMARK    2  A    between atoms: N2_4  and  C1_6 
REMARK    3  A    between atoms: N3_7  and  C2_8 
REMARK    4  A    between atoms: C5_11  and  N4_12 
REMARK    5  A    between atoms: C8_19  and  C9_20 
REMARK    6  A    between atoms: N8_27  and  N9_28 
ROOT
HETATM    1  C1  UNL     1       5.663  57.213   3.148  1.00  0.00     0.740 A 
HETATM    2  N3  UNL     1       6.895  57.144   2.637  1.00  0.00    -0.082 N 
HETATM    3  N5  UNL     1       6.948  57.984   1.629  1.00  0.00    -0.260 N 
ATOM      4  H5  UNL     1       7.773  58.141   1.050  1.00  0.00     0.190 HD
HETATM    5  C8  UNL     1       5.755  58.618   1.460  1.00  0.00     0.188 A 
HETATM    6  N8  UNL     1       4.970  58.113   2.427  1.00  0.00    -0.069 N 
ENDROOT
BRANCH   2   7
HETATM    7  C2  UNL     1       8.001  56.339   3.046  1.00  0.00     0.075 A 
HETATM    8  C3  UNL     1       8.999  56.883   3.821  1.00  0.00     0.034 A 
HETATM    9  C4  UNL     1      10.064  56.101   4.215  1.00  0.00     0.038 A 
HETATM   10  C5  UNL     1      10.162  54.778   3.852  1.00  0.00     0.103 A 
HETATM   11  C6  UNL     1       9.148  54.271   3.079  1.00  0.00     0.038 A 
HETATM   12  C7  UNL     1       8.072  55.022   2.670  1.00  0.00     0.034 A 
BRANCH  10  13
HETATM   13  N4  UNL     1      11.246  53.952   4.242  1.00  0.00    -0.116 N 
HETATM   14  O1  UNL     1      12.180  54.429   4.913  1.00  0.00    -0.532 OA
HETATM   15  O2  UNL     1      11.310  52.627   3.904  1.00  0.00    -0.532 OA
ENDBRANCH  10  13
ENDBRANCH   2   7
BRANCH   1  16
HETATM   16  N2  UNL     1       5.268  56.517   4.151  1.00  0.00    -0.135 N 
ATOM     17  H2  UNL     1       4.327  56.126   4.109  1.00  0.00     0.205 HD
BRANCH  16  18
HETATM   18  N1  UNL     1       6.013  56.254   5.284  1.00  0.00    -0.331 N 
ATOM     19  H12 UNL     1       6.598  57.016   5.624  1.00  0.00     0.177 HD
ATOM     20  H11 UNL     1       6.020  55.370   5.794  1.00  0.00     0.177 HD
ENDBRANCH  16  18
ENDBRANCH   1  16
BRANCH   6  21
HETATM   21  N9  UNL     1       3.641  58.425   2.700  1.00  0.00    -0.322 N 
ATOM     22  H92 UNL     1       2.975  57.894   3.260  1.00  0.00     0.178 HD
ATOM     23  H91 UNL     1       3.192  59.267   2.341  1.00  0.00     0.178 HD
ENDBRANCH   6  21
BRANCH   5  24
HETATM   24  C9  UNL     1       5.415  59.614   0.457  1.00  0.00     0.097 A 
HETATM   25  C10 UNL     1       4.279  59.706  -0.305  1.00  0.00     0.122 A 
HETATM   26  N6  UNL     1       4.376  60.783  -1.108  1.00  0.00    -0.360 N 
HETATM   27  C11 UNL     1       5.564  61.378  -0.863  1.00  0.00     0.180 A 
ATOM     28  H6  UNL     1       3.677  61.095  -1.782  1.00  0.00     0.166 HD
HETATM   29  N7  UNL     1       6.193  60.650   0.101  1.00  0.00    -0.348 N 
ATOM     30  H7  UNL     1       7.112  60.859   0.491  1.00  0.00     0.167 HD
ENDBRANCH   5  24
TORSDOF 6
ENDMDL
MODEL 3
REMARK VINA RESULT: -7.547976509      0.920      1.519
REMARK  6 active torsions:
REMARK  status: ('A' for Active; 'I' for Inactive)
REMARK    1  A    between atoms: N1_1  and  N2_4 
REMARK    2  A    between atoms: N2_4  and  C1_6 
REMARK    3  A    between atoms: N3_7  and  C2_8 
REMARK    4  A    between atoms: C5_11  and  N4_12 
REMARK    5  A    between atoms: C8_19  and  C9_20 
REMARK    6  A    between atoms: N8_27  and  N9_28 
ROOT
HETATM    1  C1  UNL     1       5.163  57.547   2.597  1.00  0.00     0.740 A 
HETATM    2  N3  UNL     1       6.454  57.559   2.253  1.00  0.00    -0.082 N 
HETATM    3  N5  UNL     1       6.605  58.491   1.339  1.00  0.00    -0.260 N 
ATOM      4  H5  UNL     1       7.492  58.723   0.893  1.00  0.00     0.190 HD
HETATM    5  C8  UNL     1       5.421  59.105   1.069  1.00  0.00     0.188 A 
HETATM    6  N8  UNL     1       4.536  58.492   1.873  1.00  0.00    -0.069 N 
ENDROOT
BRANCH   2   7
HETATM    7  C2  UNL     1       7.527  56.750   2.734  1.00  0.00     0.075 A 
HETATM    8  C3  UNL     1       8.447  57.277   3.612  1.00  0.00     0.034 A 
HETATM    9  C4  UNL     1       9.480  56.491   4.074  1.00  0.00     0.038 A 
HETATM   10  C5  UNL     1       9.624  55.181   3.680  1.00  0.00     0.103 A 
HETATM   11  C6  UNL     1       8.687  54.691   2.805  1.00  0.00     0.038 A 
HETATM   12  C7  UNL     1       7.645  55.446   2.325  1.00  0.00     0.034 A 
BRANCH  10  13
HETATM   13  N4  UNL     1      10.677  54.351   4.140  1.00  0.00    -0.116 N 
HETATM   14  O1  UNL     1      11.518  54.801   4.941  1.00  0.00    -0.532 OA
HETATM   15  O2  UNL     1      10.811  53.051   3.733  1.00  0.00    -0.532 OA
ENDBRANCH  10  13
ENDBRANCH   2   7
BRANCH   1  16
HETATM   16  N2  UNL     1       4.668  56.751   3.473  1.00  0.00    -0.135 N 
ATOM     17  H2  UNL     1       3.915  56.132   3.171  1.00  0.00     0.205 HD
BRANCH  16  18
HETATM   18  N1  UNL     1       5.070  56.663   4.791  1.00  0.00    -0.331 N 
ATOM     19  H12 UNL     1       6.069  56.763   4.965  1.00  0.00     0.177 HD
ATOM     20  H11 UNL     1       4.451  56.508   5.588  1.00  0.00     0.177 HD
ENDBRANCH  16  18
ENDBRANCH   1  16
BRANCH   6  21
HETATM   21  N9  UNL     1       3.172  58.741   1.992  1.00  0.00    -0.322 N 
ATOM     22  H92 UNL     1       2.448  58.113   2.340  1.00  0.00     0.178 HD
ATOM     23  H91 UNL     1       2.753  59.631   1.723  1.00  0.00     0.178 HD
ENDBRANCH   6  21
BRANCH   5  24
HETATM   24  C9  UNL     1       5.177  60.181   0.121  1.00  0.00     0.097 A 
HETATM   25  C10 UNL     1       6.041  61.158  -0.303  1.00  0.00     0.122 A 
HETATM   26  N6  UNL     1       5.404  61.951  -1.186  1.00  0.00    -0.360 N 
HETATM   27  C11 UNL     1       4.144  61.487  -1.328  1.00  0.00     0.180 A 
ATOM     28  H6  UNL     1       5.803  62.760  -1.662  1.00  0.00     0.166 HD
HETATM   29  N7  UNL     1       4.016  60.399  -0.520  1.00  0.00    -0.348 N 
ATOM     30  H7  UNL     1       3.171  59.837  -0.417  1.00  0.00     0.167 HD
ENDBRANCH   5  24
TORSDOF 6
ENDMDL
MODEL 4
REMARK VINA RESULT: -7.537349744      0.915      1.133
REMARK  6 active torsions:
REMARK  status: ('A' for Active; 'I' for Inactive)
REMARK    1  A    between atoms: N1_1  and  N2_4 
REMARK    2  A    between atoms: N2_4  and  C1_6 
REMARK    3  A    between atoms: N3_7  and  C2_8 
REMARK    4  A    between atoms: C5_11  and  N4_12 
REMARK    5  A    between atoms: C8_19  and  C9_20 
REMARK    6  A    between atoms: N8_27  and  N9_28 
ROOT
HETATM    1  C1  UNL     1       5.161  57.547   2.613  1.00  0.00     0.740 A 
HETATM    2  N3  UNL     1       6.449  57.554   2.257  1.00  0.00    -0.082 N 
HETATM    3  N5  UNL     1       6.595  58.480   1.337  1.00  0.00    -0.260 N 
ATOM      4  H5  UNL     1       7.479  58.707   0.882  1.00  0.00     0.190 HD
HETATM    5  C8  UNL     1       5.410  59.096   1.074  1.00  0.00     0.188 A 
HETATM    6  N8  UNL     1       4.531  58.490   1.889  1.00  0.00    -0.069 N 
ENDROOT
BRANCH   2   7
HETATM    7  C2  UNL     1       7.524  56.744   2.734  1.00  0.00     0.075 A 
HETATM    8  C3  UNL     1       7.639  55.438   2.316  1.00  0.00     0.034 A 
HETATM    9  C4  UNL     1       8.680  54.661   2.778  1.00  0.00     0.038 A 
HETATM   10  C5  UNL     1       9.618  55.156   3.655  1.00  0.00     0.103 A 
HETATM   11  C6  UNL     1       9.469  56.462   4.048  1.00  0.00     0.038 A 
HETATM   12  C7  UNL     1       8.445  57.264   3.607  1.00  0.00     0.034 A 
BRANCH  10  13
HETATM   13  N4  UNL     1      10.697  54.378   4.145  1.00  0.00    -0.116 N 
HETATM   14  O1  UNL     1      11.522  54.883   4.929  1.00  0.00    -0.532 OA
HETATM   15  O2  UNL     1      10.872  53.068   3.786  1.00  0.00    -0.532 OA
ENDBRANCH  10  13
ENDBRANCH   2   7
BRANCH   1  16
HETATM   16  N2  UNL     1       4.671  56.756   3.497  1.00  0.00    -0.135 N 
ATOM     17  H2  UNL     1       3.912  56.141   3.206  1.00  0.00     0.205 HD
BRANCH  16  18
HETATM   18  N1  UNL     1       5.087  56.671   4.811  1.00  0.00    -0.331 N 
ATOM     19  H12 UNL     1       6.062  56.413   4.959  1.00  0.00     0.177 HD
ATOM     20  H11 UNL     1       4.501  56.845   5.628  1.00  0.00     0.177 HD
ENDBRANCH  16  18
ENDBRANCH   1  16
BRANCH   6  21
HETATM   21  N9  UNL     1       3.168  58.743   2.018  1.00  0.00    -0.322 N 
ATOM     22  H92 UNL     1       2.402  58.070   2.016  1.00  0.00     0.178 HD
ATOM     23  H91 UNL     1       2.796  59.685   2.133  1.00  0.00     0.178 HD
ENDBRANCH   6  21
BRANCH   5  24
HETATM   24  C9  UNL     1       5.161  60.167   0.122  1.00  0.00     0.097 A 
HETATM   25  C10 UNL     1       6.026  61.136  -0.320  1.00  0.00     0.122 A 
HETATM   26  N6  UNL     1       5.383  61.928  -1.199  1.00  0.00    -0.360 N 
HETATM   27  C11 UNL     1       4.118  61.472  -1.321  1.00  0.00     0.180 A 
ATOM     28  H6  UNL     1       5.782  62.730  -1.686  1.00  0.00     0.166 HD
HETATM   29  N7  UNL     1       3.993  60.390  -0.504  1.00  0.00    -0.348 N 
ATOM     30  H7  UNL     1       3.146  59.834  -0.386  1.00  0.00     0.167 HD
ENDBRANCH   5  24
TORSDOF 6
ENDMDL
MODEL 5
REMARK VINA RESULT: -6.685871473      0.958      1.587
REMARK  6 active torsions:
REMARK  status: ('A' for Active; 'I' for Inactive)
REMARK    1  A    between atoms: N1_1  and  N2_4 
REMARK    2  A    between atoms: N2_4  and  C1_6 
REMARK    3  A    between atoms: N3_7  and  C2_8 
REMARK    4  A    between atoms: C5_11  and  N4_12 
REMARK    5  A    between atoms: C8_19  and  C9_20 
REMARK    6  A    between atoms: N8_27  and  N9_28 
ROOT
HETATM    1  C1  UNL     1       6.313  56.877   4.062  1.00  0.00     0.740 A 
HETATM    2  N3  UNL     1       7.328  56.677   3.218  1.00  0.00    -0.082 N 
HETATM    3  N5  UNL     1       7.049  57.324   2.110  1.00  0.00    -0.260 N 
ATOM      4  H5  UNL     1       7.651  57.348   1.287  1.00  0.00     0.190 HD
HETATM    5  C8  UNL     1       5.849  57.960   2.207  1.00  0.00     0.188 A 
HETATM    6  N8  UNL     1       5.412  57.661   3.442  1.00  0.00    -0.069 N 
ENDROOT
BRANCH   2   7
HETATM    7  C2  UNL     1       8.523  55.918   3.403  1.00  0.00     0.075 A 
HETATM    8  C3  UNL     1       9.601  56.478   4.050  1.00  0.00     0.034 A 
HETATM    9  C4  UNL     1      10.752  55.741   4.227  1.00  0.00     0.038 A 
HETATM   10  C5  UNL     1      10.859  54.447   3.771  1.00  0.00     0.103 A 
HETATM   11  C6  UNL     1       9.765  53.924   3.131  1.00  0.00     0.038 A 
HETATM   12  C7  UNL     1       8.602  54.630   2.938  1.00  0.00     0.034 A 
BRANCH  10  13
HETATM   13  N4  UNL     1      12.032  53.668   3.939  1.00  0.00    -0.116 N 
HETATM   14  O1  UNL     1      11.941  52.438   4.111  1.00  0.00    -0.532 OA
HETATM   15  O2  UNL     1      13.283  54.222   3.920  1.00  0.00    -0.532 OA
ENDBRANCH  10  13
ENDBRANCH   2   7
BRANCH   1  16
HETATM   16  N2  UNL     1       6.263  56.383   5.246  1.00  0.00    -0.135 N 
ATOM     17  H2  UNL     1       6.090  57.029   6.016  1.00  0.00     0.205 HD
BRANCH  16  18
HETATM   18  N1  UNL     1       6.424  55.048   5.561  1.00  0.00    -0.331 N 
ATOM     19  H12 UNL     1       5.620  54.586   5.986  1.00  0.00     0.177 HD
ATOM     20  H11 UNL     1       7.271  54.502   5.404  1.00  0.00     0.177 HD
ENDBRANCH  16  18
ENDBRANCH   1  16
BRANCH   6  21
HETATM   21  N9  UNL     1       4.227  58.062   4.051  1.00  0.00    -0.322 N 
ATOM     22  H92 UNL     1       3.964  59.000   4.354  1.00  0.00     0.178 HD
ATOM     23  H91 UNL     1       3.471  57.410   4.259  1.00  0.00     0.178 HD
ENDBRANCH   6  21
BRANCH   5  24
HETATM   24  C9  UNL     1       5.194  58.776   1.197  1.00  0.00     0.097 A 
HETATM   25  C10 UNL     1       3.896  58.715   0.759  1.00  0.00     0.122 A 
HETATM   26  N6  UNL     1       3.709  59.655  -0.188  1.00  0.00    -0.360 N 
HETATM   27  C11 UNL     1       4.876  60.313  -0.356  1.00  0.00     0.180 A 
ATOM     28  H6  UNL     1       2.840  59.837  -0.689  1.00  0.00     0.166 HD
HETATM   29  N7  UNL     1       5.781  59.763   0.500  1.00  0.00    -0.348 N 
ATOM     30  H7  UNL     1       6.754  60.056   0.597  1.00  0.00     0.167 HD
ENDBRANCH   5  24
TORSDOF 6
ENDMDL
