MODEL 1
REMARK VINA RESULT: -6.974181672      0.000      0.000
REMARK  4 active torsions:
REMARK  status: ('A' for Active; 'I' for Inactive)
REMARK    1  A    between atoms: N1_1  and  C1_4 
REMARK    2  A    between atoms: C2_8  and  C3_9 
REMARK    3  A    between atoms: C7_16  and  C8_17 
REMARK       I    between atoms: C8_17  and  N4_19 
REMARK    4  A    between atoms: N4_19  and  N5_21 
ROOT
HETATM    1  C1  UNL     1       5.938  56.604   4.403  1.00  0.00     0.196 A 
HETATM    2  O1  UNL     1       4.737  57.173   4.378  1.00  0.00    -0.216 OA
HETATM    3  N2  UNL     1       4.353  57.977   3.433  1.00  0.00    -0.242 N 
ATOM      4  H2  UNL     1       3.420  58.388   3.460  1.00  0.00     0.196 HD
HETATM    5  C2  UNL     1       5.187  58.265   2.419  1.00  0.00     0.138 A 
HETATM    6  N3  UNL     1       6.399  57.700   2.430  1.00  0.00    -0.332 N 
ATOM      7  H3  UNL     1       7.039  57.913   1.665  1.00  0.00     0.168 HD
HETATM    8  C7  UNL     1       6.826  56.850   3.416  1.00  0.00     0.157 A 
ENDROOT
BRANCH   8   9
HETATM    9  C8  UNL     1       8.167  56.322   3.297  1.00  0.00     0.291 C 
HETATM   10  O3  UNL     1       9.113  57.183   3.098  1.00  0.00    -0.264 OA
HETATM   11  N4  UNL     1       8.599  55.003   3.369  1.00  0.00    -0.263 N 
ATOM     12  H4  UNL     1       7.937  54.243   3.525  1.00  0.00     0.190 HD
BRANCH  11  13
HETATM   13  N5  UNL     1       9.982  54.741   3.219  1.00  0.00    -0.300 N 
HETATM   14  C9  UNL     1      10.694  54.832   4.433  1.00  0.00     0.109 C 
HETATM   15  C10 UNL     1      11.554  53.681   4.779  1.00  0.00     0.213 C 
HETATM   16  O4  UNL     1      11.657  52.657   3.885  1.00  0.00    -0.384 OA
HETATM   17  C11 UNL     1      10.451  52.409   3.235  1.00  0.00     0.189 C 
HETATM   18  C12 UNL     1      10.241  53.650   2.352  1.00  0.00     0.174 C 
ENDBRANCH  11  13
ENDBRANCH   8   9
BRANCH   1  19
HETATM   19  N1  UNL     1       6.224  55.826   5.377  1.00  0.00    -0.376 N 
ATOM     20  H12 UNL     1       6.547  54.872   5.218  1.00  0.00     0.158 HD
ATOM     21  H11 UNL     1       6.123  56.181   6.328  1.00  0.00     0.158 HD
ENDBRANCH   1  19
BRANCH   5  22
HETATM   22  C3  UNL     1       4.752  59.176   1.351  1.00  0.00     0.034 A 
HETATM   23  C4  UNL     1       5.381  59.474   0.173  1.00  0.00     0.041 A 
HETATM   24  C5  UNL     1       4.582  60.371  -0.479  1.00  0.00     0.142 A 
HETATM   25  O2  UNL     1       3.532  60.598   0.266  1.00  0.00    -0.334 OA
HETATM   26  C6  UNL     1       3.586  59.911   1.365  1.00  0.00     0.156 A 
ENDBRANCH   5  22
TORSDOF 4
ENDMDL
MODEL 2
REMARK VINA RESULT: -5.935168552      9.109     12.088
REMARK  4 active torsions:
REMARK  status: ('A' for Active; 'I' for Inactive)
REMARK    1  A    between atoms: N1_1  and  C1_4 
REMARK    2  A    between atoms: C2_8  and  C3_9 
REMARK    3  A    between atoms: C7_16  and  C8_17 
REMARK       I    between atoms: C8_17  and  N4_19 
REMARK    4  A    between atoms: N4_19  and  N5_21 
ROOT
HETATM    1  C1  UNL     1      12.080  58.515  11.037  1.00  0.00     0.196 A 
HETATM    2  O1  UNL     1      13.091  57.678  11.252  1.00  0.00    -0.216 OA
HETATM    3  N2  UNL     1      14.330  57.990  11.024  1.00  0.00    -0.242 N 
ATOM      4  H2  UNL     1      15.070  57.311  11.206  1.00  0.00     0.196 HD
HETATM    5  C2  UNL     1      14.637  59.210  10.550  1.00  0.00     0.138 A 
HETATM    6  N3  UNL     1      13.631  60.063  10.328  1.00  0.00    -0.332 N 
ATOM      7  H3  UNL     1      13.854  60.991   9.968  1.00  0.00     0.168 HD
HETATM    8  C7  UNL     1      12.316  59.755  10.560  1.00  0.00     0.157 A 
ENDROOT
BRANCH   8   9
HETATM    9  C8  UNL     1      11.337  60.778  10.266  1.00  0.00     0.291 C 
HETATM   10  O3  UNL     1      10.381  60.929  11.124  1.00  0.00    -0.264 OA
HETATM   11  N4  UNL     1      11.271  61.640   9.177  1.00  0.00    -0.263 N 
ATOM     12  H4  UNL     1      11.975  61.608   8.440  1.00  0.00     0.190 HD
BRANCH  11  13
HETATM   13  N5  UNL     1      10.199  62.563   9.117  1.00  0.00    -0.300 N 
HETATM   14  C9  UNL     1      10.576  63.869   9.491  1.00  0.00     0.109 C 
HETATM   15  C10 UNL     1      10.218  64.952   8.552  1.00  0.00     0.213 C 
HETATM   16  O4  UNL     1       9.497  64.632   7.439  1.00  0.00    -0.384 OA
HETATM   17  C11 UNL     1       9.866  63.397   6.915  1.00  0.00     0.189 C 
HETATM   18  C12 UNL     1       9.388  62.385   7.968  1.00  0.00     0.174 C 
ENDBRANCH  11  13
ENDBRANCH   8   9
BRANCH   1  19
HETATM   19  N1  UNL     1      10.893  58.114  11.292  1.00  0.00    -0.376 N 
ATOM     20  H12 UNL     1      10.081  58.700  11.097  1.00  0.00     0.158 HD
ATOM     21  H11 UNL     1      10.769  57.187  11.697  1.00  0.00     0.158 HD
ENDBRANCH   1  19
BRANCH   5  22
HETATM   22  C3  UNL     1      16.040  59.563  10.291  1.00  0.00     0.034 A 
HETATM   23  C4  UNL     1      16.859  59.129   9.285  1.00  0.00     0.041 A 
HETATM   24  C5  UNL     1      18.067  59.740   9.476  1.00  0.00     0.142 A 
HETATM   25  O2  UNL     1      17.977  60.499  10.536  1.00  0.00    -0.334 OA
HETATM   26  C6  UNL     1      16.791  60.428  11.058  1.00  0.00     0.156 A 
ENDBRANCH   5  22
TORSDOF 4
ENDMDL
MODEL 3
REMARK VINA RESULT: -5.775401106      2.958      7.681
REMARK  4 active torsions:
REMARK  status: ('A' for Active; 'I' for Inactive)
REMARK    1  A    between atoms: N1_1  and  C1_4 
REMARK    2  A    between atoms: C2_8  and  C3_9 
REMARK    3  A    between atoms: C7_16  and  C8_17 
REMARK       I    between atoms: C8_17  and  N4_19 
REMARK    4  A    between atoms: N4_19  and  N5_21 
ROOT
HETATM    1  C1  UNL     1       3.876  58.760   1.280  1.00  0.00     0.196 A 
HETATM    2  O1  UNL     1       3.727  57.754   2.137  1.00  0.00    -0.216 OA
HETATM    3  N2  UNL     1       4.724  57.190   2.749  1.00  0.00    -0.242 N 
ATOM      4  H2  UNL     1       4.556  56.421   3.398  1.00  0.00     0.196 HD
HETATM    5  C2  UNL     1       5.977  57.622   2.525  1.00  0.00     0.138 A 
HETATM    6  N3  UNL     1       6.144  58.632   1.665  1.00  0.00    -0.332 N 
ATOM      7  H3  UNL     1       7.091  58.966   1.489  1.00  0.00     0.168 HD
HETATM    8  C7  UNL     1       5.107  59.242   1.008  1.00  0.00     0.157 A 
ENDROOT
BRANCH   8   9
HETATM    9  C8  UNL     1       5.442  60.318   0.101  1.00  0.00     0.291 C 
HETATM   10  O3  UNL     1       4.608  60.545  -0.861  1.00  0.00    -0.264 OA
HETATM   11  N4  UNL     1       6.548  61.160   0.112  1.00  0.00    -0.263 N 
ATOM     12  H4  UNL     1       7.268  61.070   0.828  1.00  0.00     0.190 HD
BRANCH  11  13
HETATM   13  N5  UNL     1       6.648  62.147  -0.898  1.00  0.00    -0.300 N 
HETATM   14  C9  UNL     1       5.558  63.041  -0.904  1.00  0.00     0.109 C 
HETATM   15  C10 UNL     1       5.887  64.482  -0.889  1.00  0.00     0.213 C 
HETATM   16  O4  UNL     1       7.200  64.846  -0.941  1.00  0.00    -0.384 OA
HETATM   17  C11 UNL     1       8.013  63.974  -0.223  1.00  0.00     0.189 C 
HETATM   18  C12 UNL     1       7.961  62.666  -1.027  1.00  0.00     0.174 C 
ENDBRANCH  11  13
ENDBRANCH   8   9
BRANCH   1  19
HETATM   19  N1  UNL     1       2.832  59.249   0.728  1.00  0.00    -0.376 N 
ATOM     20  H12 UNL     1       2.319  60.022   1.152  1.00  0.00     0.158 HD
ATOM     21  H11 UNL     1       2.517  58.849  -0.156  1.00  0.00     0.158 HD
ENDBRANCH   1  19
BRANCH   5  22
HETATM   22  C3  UNL     1       7.105  56.982   3.217  1.00  0.00     0.034 A 
HETATM   23  C4  UNL     1       8.327  56.627   2.713  1.00  0.00     0.041 A 
HETATM   24  C5  UNL     1       9.026  56.067   3.745  1.00  0.00     0.142 A 
HETATM   25  O2  UNL     1       8.267  56.085   4.809  1.00  0.00    -0.334 OA
HETATM   26  C6  UNL     1       7.113  56.619   4.547  1.00  0.00     0.156 A 
ENDBRANCH   5  22
TORSDOF 4
ENDMDL
MODEL 4
REMARK VINA RESULT: -5.773832485      1.955      7.406
REMARK  4 active torsions:
REMARK  status: ('A' for Active; 'I' for Inactive)
REMARK    1  A    between atoms: N1_1  and  C1_4 
REMARK    2  A    between atoms: C2_8  and  C3_9 
REMARK    3  A    between atoms: C7_16  and  C8_17 
REMARK       I    between atoms: C8_17  and  N4_19 
REMARK    4  A    between atoms: N4_19  and  N5_21 
ROOT
HETATM    1  C1  UNL     1       5.120  57.428   3.610  1.00  0.00     0.196 A 
HETATM    2  O1  UNL     1       5.549  56.753   4.673  1.00  0.00    -0.216 OA
HETATM    3  N2  UNL     1       6.777  56.354   4.810  1.00  0.00    -0.242 N 
ATOM      4  H2  UNL     1       7.056  55.839   5.645  1.00  0.00     0.196 HD
HETATM    5  C2  UNL     1       7.679  56.620   3.849  1.00  0.00     0.138 A 
HETATM    6  N3  UNL     1       7.262  57.296   2.774  1.00  0.00    -0.332 N 
ATOM      7  H3  UNL     1       7.939  57.503   2.040  1.00  0.00     0.168 HD
HETATM    8  C7  UNL     1       5.972  57.728   2.607  1.00  0.00     0.157 A 
ENDROOT
BRANCH   8   9
HETATM    9  C8  UNL     1       5.667  58.442   1.387  1.00  0.00     0.291 C 
HETATM   10  O3  UNL     1       5.031  57.783   0.474  1.00  0.00    -0.264 OA
HETATM   11  N4  UNL     1       5.960  59.757   1.045  1.00  0.00    -0.263 N 
ATOM     12  H4  UNL     1       6.458  60.368   1.693  1.00  0.00     0.190 HD
BRANCH  11  13
HETATM   13  N5  UNL     1       5.550  60.227  -0.226  1.00  0.00    -0.300 N 
HETATM   14  C9  UNL     1       4.182  60.564  -0.272  1.00  0.00     0.109 C 
HETATM   15  C10 UNL     1       3.851  61.902  -0.803  1.00  0.00     0.213 C 
HETATM   16  O4  UNL     1       4.867  62.682  -1.271  1.00  0.00    -0.384 OA
HETATM   17  C11 UNL     1       6.026  62.539  -0.515  1.00  0.00     0.189 C 
HETATM   18  C12 UNL     1       6.494  61.106  -0.814  1.00  0.00     0.174 C 
ENDBRANCH  11  13
ENDBRANCH   8   9
BRANCH   1  19
HETATM   19  N1  UNL     1       3.891  57.778   3.567  1.00  0.00    -0.376 N 
ATOM     20  H12 UNL     1       3.418  58.160   4.386  1.00  0.00     0.158 HD
ATOM     21  H11 UNL     1       3.385  57.668   2.688  1.00  0.00     0.158 HD
ENDBRANCH   1  19
BRANCH   5  22
HETATM   22  C3  UNL     1       9.068  56.166   4.004  1.00  0.00     0.034 A 
HETATM   23  C4  UNL     1       9.543  54.887   4.109  1.00  0.00     0.041 A 
HETATM   24  C5  UNL     1      10.900  54.985   4.237  1.00  0.00     0.142 A 
HETATM   25  O2  UNL     1      11.222  56.251   4.210  1.00  0.00    -0.334 OA
HETATM   26  C6  UNL     1      10.167  56.995   4.074  1.00  0.00     0.156 A 
ENDBRANCH   5  22
TORSDOF 4
ENDMDL
MODEL 5
REMARK VINA RESULT: -5.597552673      9.030     10.241
REMARK  4 active torsions:
REMARK  status: ('A' for Active; 'I' for Inactive)
REMARK    1  A    between atoms: N1_1  and  C1_4 
REMARK    2  A    between atoms: C2_8  and  C3_9 
REMARK    3  A    between atoms: C7_16  and  C8_17 
REMARK       I    between atoms: C8_17  and  N4_19 
REMARK    4  A    between atoms: N4_19  and  N5_21 
ROOT
HETATM    1  C1  UNL     1      12.468  58.415  11.286  1.00  0.00     0.196 A 
HETATM    2  O1  UNL     1      11.151  58.275  11.164  1.00  0.00    -0.216 OA
HETATM    3  N2  UNL     1      10.412  59.090  10.474  1.00  0.00    -0.242 N 
ATOM      4  H2  UNL     1       9.405  58.938  10.413  1.00  0.00     0.196 HD
HETATM    5  C2  UNL     1      10.977  60.133   9.842  1.00  0.00     0.138 A 
HETATM    6  N3  UNL     1      12.300  60.287   9.954  1.00  0.00    -0.332 N 
ATOM      7  H3  UNL     1      12.737  61.076   9.477  1.00  0.00     0.168 HD
HETATM    8  C7  UNL     1      13.099  59.441  10.677  1.00  0.00     0.157 A 
ENDROOT
BRANCH   8   9
HETATM    9  C8  UNL     1      14.514  59.740  10.714  1.00  0.00     0.291 C 
HETATM   10  O3  UNL     1      14.856  60.856  11.273  1.00  0.00    -0.264 OA
HETATM   11  N4  UNL     1      15.581  58.991  10.231  1.00  0.00    -0.263 N 
ATOM     12  H4  UNL     1      15.425  58.093   9.773  1.00  0.00     0.190 HD
BRANCH  11  13
HETATM   13  N5  UNL     1      16.889  59.507  10.390  1.00  0.00    -0.300 N 
HETATM   14  C9  UNL     1      17.575  58.941  11.484  1.00  0.00     0.109 C 
HETATM   15  C10 UNL     1      18.922  58.400  11.210  1.00  0.00     0.213 C 
HETATM   16  O4  UNL     1      19.433  58.545   9.954  1.00  0.00    -0.384 OA
HETATM   17  C11 UNL     1      18.455  58.414   8.973  1.00  0.00     0.189 C 
HETATM   18  C12 UNL     1      17.571  59.658   9.157  1.00  0.00     0.174 C 
ENDBRANCH  11  13
ENDBRANCH   8   9
BRANCH   1  19
HETATM   19  N1  UNL     1      13.109  57.561  11.987  1.00  0.00    -0.376 N 
ATOM     20  H12 UNL     1      13.605  56.782  11.554  1.00  0.00     0.158 HD
ATOM     21  H11 UNL     1      13.118  57.672  13.001  1.00  0.00     0.158 HD
ENDBRANCH   1  19
BRANCH   5  22
HETATM   22  C3  UNL     1      10.140  61.056   9.062  1.00  0.00     0.034 A 
HETATM   23  C4  UNL     1      10.350  62.380   8.793  1.00  0.00     0.041 A 
HETATM   24  C5  UNL     1       9.292  62.795   8.033  1.00  0.00     0.142 A 
HETATM   25  O2  UNL     1       8.492  61.777   7.855  1.00  0.00    -0.334 OA
HETATM   26  C6  UNL     1       8.952  60.718   8.448  1.00  0.00     0.156 A 
ENDBRANCH   5  22
TORSDOF 4
ENDMDL
