MODEL 1
REMARK VINA RESULT: -6.743432978      0.000      0.000
REMARK  7 active torsions:
REMARK  status: ('A' for Active; 'I' for Inactive)
REMARK    1  A    between atoms: C2_2  and  C3_3 
REMARK    2  A    between atoms: C3_3  and  N1_4 
REMARK    3  A    between atoms: N1_4  and  C4_5 
REMARK    4  A    between atoms: N1_4  and  C6_8 
REMARK    5  A    between atoms: C4_5  and  C5_6 
REMARK    6  A    between atoms: C6_8  and  C7_12 
REMARK    7  A    between atoms: N5_17  and  C8_18 
ROOT
HETATM    1  C7  UNL     1      56.270 -18.633  -1.571  1.00  0.00     0.181 A 
HETATM    2  N3  UNL     1      57.064 -18.308  -2.591  1.00  0.00    -0.265 N 
ATOM      3  H3  UNL     1      57.078 -18.768  -3.501  1.00  0.00     0.190 HD
HETATM    4  N4  UNL     1      57.838 -17.280  -2.230  1.00  0.00    -0.224 N 
ATOM      5  H4  UNL     1      58.538 -16.832  -2.822  1.00  0.00     0.210 HD
HETATM    6  N5  UNL     1      57.559 -16.937  -0.992  1.00  0.00    -0.209 N 
HETATM    7  N6  UNL     1      56.606 -17.758  -0.591  1.00  0.00    -0.263 N 
ATOM      8  H6  UNL     1      56.179 -17.737   0.335  1.00  0.00     0.190 HD
ENDROOT
BRANCH   1   9
HETATM    9  C6  UNL     1      55.243 -19.656  -1.426  1.00  0.00     0.144 C 
HETATM   10  N2  UNL     1      54.777 -19.926  -0.221  1.00  0.00    -0.382 N 
ATOM     11  H22 UNL     1      54.058 -20.642  -0.120  1.00  0.00     0.157 HD
ATOM     12  H21 UNL     1      55.194 -19.379   0.533  1.00  0.00     0.157 HD
BRANCH   9  13
HETATM   13  N1  UNL     1      54.673 -20.404  -2.458  1.00  0.00    -0.362 N 
BRANCH  13  14
HETATM   14  C3  UNL     1      55.114 -21.739  -2.758  1.00  0.00     0.124 C 
BRANCH  14  15
HETATM   15  C2  UNL     1      53.989 -22.734  -2.616  1.00  0.00     0.015 C 
HETATM   16  C1  UNL     1      54.372 -23.687  -1.484  1.00  0.00     0.006 C 
ENDBRANCH  14  15
ENDBRANCH  13  14
BRANCH  13  17
HETATM   17  C4  UNL     1      53.632 -19.823  -3.279  1.00  0.00     0.156 C 
BRANCH  17  18
HETATM   18  C5  UNL     1      54.092 -19.819  -4.734  1.00  0.00     0.241 C 
HETATM   19  F1  UNL     1      53.273 -18.995  -5.472  1.00  0.00    -0.254 F 
ENDBRANCH  17  18
ENDBRANCH  13  17
ENDBRANCH   9  13
ENDBRANCH   1   9
BRANCH   6  20
HETATM   20  C8  UNL     1      58.142 -15.867  -0.163  1.00  0.00     0.061 C 
HETATM   21  C9  UNL     1      57.321 -14.626  -0.229  1.00  0.00     0.041 C 
HETATM   22  C10 UNL     1      59.548 -15.665  -0.697  1.00  0.00     0.041 C 
HETATM   23  C11 UNL     1      58.247 -16.376   1.276  1.00  0.00     0.041 C 
ENDBRANCH   6  20
TORSDOF 7
ENDMDL
MODEL 2
REMARK VINA RESULT: -6.607038631      1.197      2.361
REMARK  7 active torsions:
REMARK  status: ('A' for Active; 'I' for Inactive)
REMARK    1  A    between atoms: C2_2  and  C3_3 
REMARK    2  A    between atoms: C3_3  and  N1_4 
REMARK    3  A    between atoms: N1_4  and  C4_5 
REMARK    4  A    between atoms: N1_4  and  C6_8 
REMARK    5  A    between atoms: C4_5  and  C5_6 
REMARK    6  A    between atoms: C6_8  and  C7_12 
REMARK    7  A    between atoms: N5_17  and  C8_18 
ROOT
HETATM    1  C7  UNL     1      56.270 -18.597  -1.568  1.00  0.00     0.181 A 
HETATM    2  N3  UNL     1      57.072 -18.280  -2.584  1.00  0.00    -0.265 N 
ATOM      3  H3  UNL     1      57.084 -18.738  -3.495  1.00  0.00     0.190 HD
HETATM    4  N4  UNL     1      57.861 -17.265  -2.216  1.00  0.00    -0.224 N 
ATOM      5  H4  UNL     1      58.569 -16.825  -2.803  1.00  0.00     0.210 HD
HETATM    6  N5  UNL     1      57.581 -16.922  -0.978  1.00  0.00    -0.209 N 
HETATM    7  N6  UNL     1      56.615 -17.730  -0.583  1.00  0.00    -0.263 N 
ATOM      8  H6  UNL     1      56.184 -17.706   0.341  1.00  0.00     0.190 HD
ENDROOT
BRANCH   1   9
HETATM    9  C6  UNL     1      55.227 -19.605  -1.431  1.00  0.00     0.144 C 
HETATM   10  N2  UNL     1      54.705 -19.825  -0.238  1.00  0.00    -0.382 N 
ATOM     11  H22 UNL     1      53.975 -20.530  -0.142  1.00  0.00     0.157 HD
ATOM     12  H21 UNL     1      55.093 -19.253   0.512  1.00  0.00     0.157 HD
BRANCH   9  13
HETATM   13  N1  UNL     1      54.696 -20.388  -2.458  1.00  0.00    -0.362 N 
BRANCH  13  14
HETATM   14  C3  UNL     1      53.800 -19.841  -3.440  1.00  0.00     0.124 C 
BRANCH  14  15
HETATM   15  C2  UNL     1      54.307 -20.080  -4.840  1.00  0.00     0.015 C 
HETATM   16  C1  UNL     1      53.496 -19.179  -5.771  1.00  0.00     0.006 C 
ENDBRANCH  14  15
ENDBRANCH  13  14
BRANCH  13  17
HETATM   17  C4  UNL     1      55.020 -21.796  -2.531  1.00  0.00     0.156 C 
BRANCH  17  18
HETATM   18  C5  UNL     1      53.739 -22.609  -2.367  1.00  0.00     0.241 C 
HETATM   19  F1  UNL     1      53.526 -23.364  -3.499  1.00  0.00    -0.254 F 
ENDBRANCH  17  18
ENDBRANCH  13  17
ENDBRANCH   9  13
ENDBRANCH   1   9
BRANCH   6  20
HETATM   20  C8  UNL     1      58.177 -15.864  -0.143  1.00  0.00     0.061 C 
HETATM   21  C9  UNL     1      57.375 -14.610  -0.208  1.00  0.00     0.041 C 
HETATM   22  C10 UNL     1      59.588 -15.681  -0.671  1.00  0.00     0.041 C 
HETATM   23  C11 UNL     1      58.269 -16.379   1.294  1.00  0.00     0.041 C 
ENDBRANCH   6  20
TORSDOF 7
ENDMDL
MODEL 3
REMARK VINA RESULT: -6.232577307      2.884      6.630
REMARK  7 active torsions:
REMARK  status: ('A' for Active; 'I' for Inactive)
REMARK    1  A    between atoms: C2_2  and  C3_3 
REMARK    2  A    between atoms: C3_3  and  N1_4 
REMARK    3  A    between atoms: N1_4  and  C4_5 
REMARK    4  A    between atoms: N1_4  and  C6_8 
REMARK    5  A    between atoms: C4_5  and  C5_6 
REMARK    6  A    between atoms: C6_8  and  C7_12 
REMARK    7  A    between atoms: N5_17  and  C8_18 
ROOT
HETATM    1  C7  UNL     1      57.244 -17.221  -1.479  1.00  0.00     0.181 A 
HETATM    2  N3  UNL     1      57.738 -17.721  -2.612  1.00  0.00    -0.265 N 
ATOM      3  H3  UNL     1      58.535 -17.347  -3.127  1.00  0.00     0.190 HD
HETATM    4  N4  UNL     1      57.019 -18.791  -2.966  1.00  0.00    -0.224 N 
ATOM      5  H4  UNL     1      57.182 -19.364  -3.794  1.00  0.00     0.210 HD
HETATM    6  N5  UNL     1      56.068 -18.990  -2.080  1.00  0.00    -0.209 N 
HETATM    7  N6  UNL     1      56.204 -18.038  -1.176  1.00  0.00    -0.263 N 
ATOM      8  H6  UNL     1      55.605 -17.929  -0.358  1.00  0.00     0.190 HD
ENDROOT
BRANCH   1   9
HETATM    9  C6  UNL     1      57.644 -16.083  -0.663  1.00  0.00     0.144 C 
HETATM   10  N2  UNL     1      56.822 -15.058  -0.551  1.00  0.00    -0.382 N 
ATOM     11  H22 UNL     1      57.102 -14.261   0.021  1.00  0.00     0.157 HD
ATOM     12  H21 UNL     1      55.947 -15.151  -1.067  1.00  0.00     0.157 HD
BRANCH   9  13
HETATM   13  N1  UNL     1      58.843 -15.956   0.044  1.00  0.00    -0.362 N 
BRANCH  13  14
HETATM   14  C3  UNL     1      60.066 -15.572  -0.605  1.00  0.00     0.124 C 
BRANCH  14  15
HETATM   15  C2  UNL     1      60.755 -16.761  -1.227  1.00  0.00     0.015 C 
HETATM   16  C1  UNL     1      61.658 -17.369  -0.154  1.00  0.00     0.006 C 
ENDBRANCH  14  15
ENDBRANCH  13  14
BRANCH  13  17
HETATM   17  C4  UNL     1      58.877 -16.246   1.460  1.00  0.00     0.156 C 
BRANCH  17  18
HETATM   18  C5  UNL     1      59.442 -15.038   2.201  1.00  0.00     0.241 C 
HETATM   19  F1  UNL     1      58.643 -13.942   1.969  1.00  0.00    -0.254 F 
ENDBRANCH  17  18
ENDBRANCH  13  17
ENDBRANCH   9  13
ENDBRANCH   1   9
BRANCH   6  20
HETATM   20  C8  UNL     1      55.035 -20.039  -2.037  1.00  0.00     0.061 C 
HETATM   21  C9  UNL     1      54.592 -20.304  -0.639  1.00  0.00     0.041 C 
HETATM   22  C10 UNL     1      55.668 -21.256  -2.687  1.00  0.00     0.041 C 
HETATM   23  C11 UNL     1      53.858 -19.593  -2.906  1.00  0.00     0.041 C 
ENDBRANCH   6  20
TORSDOF 7
ENDMDL
MODEL 4
REMARK VINA RESULT: -6.185294126      3.395      6.557
REMARK  7 active torsions:
REMARK  status: ('A' for Active; 'I' for Inactive)
REMARK    1  A    between atoms: C2_2  and  C3_3 
REMARK    2  A    between atoms: C3_3  and  N1_4 
REMARK    3  A    between atoms: N1_4  and  C4_5 
REMARK    4  A    between atoms: N1_4  and  C6_8 
REMARK    5  A    between atoms: C4_5  and  C5_6 
REMARK    6  A    between atoms: C6_8  and  C7_12 
REMARK    7  A    between atoms: N5_17  and  C8_18 
ROOT
HETATM    1  C7  UNL     1      55.158 -20.097  -5.529  1.00  0.00     0.181 A 
HETATM    2  N3  UNL     1      55.836 -19.749  -6.622  1.00  0.00    -0.265 N 
ATOM      3  H3  UNL     1      56.852 -19.749  -6.715  1.00  0.00     0.190 HD
HETATM    4  N4  UNL     1      54.970 -19.400  -7.579  1.00  0.00    -0.224 N 
ATOM      5  H4  UNL     1      55.222 -19.092  -8.519  1.00  0.00     0.210 HD
HETATM    6  N5  UNL     1      53.743 -19.515  -7.121  1.00  0.00    -0.209 N 
HETATM    7  N6  UNL     1      53.856 -19.938  -5.876  1.00  0.00    -0.263 N 
ATOM      8  H6  UNL     1      53.068 -20.122  -5.256  1.00  0.00     0.190 HD
ENDROOT
BRANCH   1   9
HETATM    9  C6  UNL     1      55.596 -20.560  -4.219  1.00  0.00     0.144 C 
HETATM   10  N2  UNL     1      56.884 -20.534  -3.932  1.00  0.00    -0.382 N 
ATOM     11  H22 UNL     1      57.191 -20.858  -3.015  1.00  0.00     0.157 HD
ATOM     12  H21 UNL     1      57.484 -20.183  -4.679  1.00  0.00     0.157 HD
BRANCH   9  13
HETATM   13  N1  UNL     1      54.775 -21.039  -3.196  1.00  0.00    -0.362 N 
BRANCH  13  14
HETATM   14  C3  UNL     1      53.925 -20.165  -2.436  1.00  0.00     0.124 C 
BRANCH  14  15
HETATM   15  C2  UNL     1      54.323 -20.140  -0.981  1.00  0.00     0.015 C 
HETATM   16  C1  UNL     1      55.482 -19.153  -0.849  1.00  0.00     0.006 C 
ENDBRANCH  14  15
ENDBRANCH  13  14
BRANCH  13  17
HETATM   17  C4  UNL     1      54.794 -22.446  -2.858  1.00  0.00     0.156 C 
BRANCH  17  18
HETATM   18  C5  UNL     1      53.444 -23.060  -3.217  1.00  0.00     0.241 C 
HETATM   19  F1  UNL     1      52.903 -23.662  -2.103  1.00  0.00    -0.254 F 
ENDBRANCH  17  18
ENDBRANCH  13  17
ENDBRANCH   9  13
ENDBRANCH   1   9
BRANCH   6  20
HETATM   20  C8  UNL     1      52.463 -19.250  -7.799  1.00  0.00     0.061 C 
HETATM   21  C9  UNL     1      51.526 -18.507  -6.912  1.00  0.00     0.041 C 
HETATM   22  C10 UNL     1      51.928 -20.614  -8.198  1.00  0.00     0.041 C 
HETATM   23  C11 UNL     1      52.748 -18.459  -9.077  1.00  0.00     0.041 C 
ENDBRANCH   6  20
TORSDOF 7
ENDMDL
MODEL 5
REMARK VINA RESULT: -6.102833598      3.371      6.498
REMARK  7 active torsions:
REMARK  status: ('A' for Active; 'I' for Inactive)
REMARK    1  A    between atoms: C2_2  and  C3_3 
REMARK    2  A    between atoms: C3_3  and  N1_4 
REMARK    3  A    between atoms: N1_4  and  C4_5 
REMARK    4  A    between atoms: N1_4  and  C6_8 
REMARK    5  A    between atoms: C4_5  and  C5_6 
REMARK    6  A    between atoms: C6_8  and  C7_12 
REMARK    7  A    between atoms: N5_17  and  C8_18 
ROOT
HETATM    1  C7  UNL     1      54.508 -20.375  -4.521  1.00  0.00     0.181 A 
HETATM    2  N3  UNL     1      53.814 -19.241  -4.617  1.00  0.00    -0.265 N 
ATOM      3  H3  UNL     1      53.587 -18.617  -3.843  1.00  0.00     0.190 HD
HETATM    4  N4  UNL     1      53.462 -19.053  -5.894  1.00  0.00    -0.224 N 
ATOM      5  H4  UNL     1      52.924 -18.262  -6.247  1.00  0.00     0.210 HD
HETATM    6  N5  UNL     1      53.916 -20.048  -6.623  1.00  0.00    -0.209 N 
HETATM    7  N6  UNL     1      54.552 -20.852  -5.790  1.00  0.00    -0.263 N 
ATOM      8  H6  UNL     1      55.016 -21.717  -6.065  1.00  0.00     0.190 HD
ENDROOT
BRANCH   1   9
HETATM    9  C6  UNL     1      55.128 -21.041  -3.384  1.00  0.00     0.144 C 
HETATM   10  N2  UNL     1      56.411 -21.346  -3.445  1.00  0.00    -0.382 N 
ATOM     11  H22 UNL     1      56.845 -21.812  -2.648  1.00  0.00     0.157 HD
ATOM     12  H21 UNL     1      56.873 -21.084  -4.315  1.00  0.00     0.157 HD
BRANCH   9  13
HETATM   13  N1  UNL     1      54.495 -21.400  -2.192  1.00  0.00    -0.362 N 
BRANCH  13  14
HETATM   14  C3  UNL     1      53.876 -20.422  -1.339  1.00  0.00     0.124 C 
BRANCH  14  15
HETATM   15  C2  UNL     1      54.837 -19.923  -0.290  1.00  0.00     0.015 C 
HETATM   16  C1  UNL     1      55.701 -18.846  -0.946  1.00  0.00     0.006 C 
ENDBRANCH  14  15
ENDBRANCH  13  14
BRANCH  13  17
HETATM   17  C4  UNL     1      54.481 -22.785  -1.773  1.00  0.00     0.156 C 
BRANCH  17  18
HETATM   18  C5  UNL     1      53.643 -23.593  -2.759  1.00  0.00     0.241 C 
HETATM   19  F1  UNL     1      52.357 -23.708  -2.283  1.00  0.00    -0.254 F 
ENDBRANCH  17  18
ENDBRANCH  13  17
ENDBRANCH   9  13
ENDBRANCH   1   9
BRANCH   6  20
HETATM   20  C8  UNL     1      53.787 -20.282  -8.071  1.00  0.00     0.061 C 
HETATM   21  C9  UNL     1      52.369 -20.530  -8.453  1.00  0.00     0.041 C 
HETATM   22  C10 UNL     1      54.687 -21.467  -8.370  1.00  0.00     0.041 C 
HETATM   23  C11 UNL     1      54.345 -19.063  -8.808  1.00  0.00     0.041 C 
ENDBRANCH   6  20
TORSDOF 7
ENDMDL
