MODEL 1
REMARK VINA RESULT: -7.438799290      0.000      0.000
REMARK  5 active torsions:
REMARK  status: ('A' for Active; 'I' for Inactive)
REMARK    1  A    between atoms: N1_2  and  N2_4 
REMARK    2  A    between atoms: C2_6  and  C3_7 
REMARK    3  A    between atoms: C3_7  and  C4_9 
REMARK    4  A    between atoms: C4_9  and  O2_11 
REMARK    5  A    between atoms: O2_11  and  C5_12 
ROOT
HETATM    1  C4  UNL     1      54.549 -20.010  -6.495  1.00  0.00     0.283 C 
HETATM    2  O1  UNL     1      53.990 -18.887  -6.474  1.00  0.00    -0.263 OA
ENDROOT
BRANCH   1   3
HETATM    3  C3  UNL     1      53.949 -21.087  -7.290  1.00  0.00     0.221 C 
HETATM    4 CL1  UNL     1      52.639 -20.511  -8.338  1.00  0.00    -0.109 Cl
BRANCH   3   5
HETATM    5  C2  UNL     1      55.021 -21.688  -8.135  1.00  0.00     0.110 C 
HETATM    6  N2  UNL     1      55.892 -20.992  -8.758  1.00  0.00    -0.319 N 
ATOM      7  H2  UNL     1      55.866 -19.975  -8.683  1.00  0.00     0.185 HD
BRANCH   6   8
HETATM    8  N1  UNL     1      56.879 -21.597  -9.539  1.00  0.00    -0.341 N 
HETATM    9  C1  UNL     1      56.490 -22.461 -10.642  1.00  0.00     0.167 C 
ATOM     10  H1  UNL     1      57.865 -21.433  -9.337  1.00  0.00     0.179 HD
ENDBRANCH   6   8
ENDBRANCH   3   5
ENDBRANCH   1   3
BRANCH   1  11
HETATM   11  O2  UNL     1      55.710 -20.143  -5.749  1.00  0.00    -0.310 OA
BRANCH  11  12
HETATM   12  C5  UNL     1      55.698 -20.702  -4.478  1.00  0.00     0.164 C 
HETATM   13  C6  UNL     1      56.622 -19.885  -3.508  1.00  0.00     0.116 C 
HETATM   14  C7  UNL     1      55.919 -19.798  -2.296  1.00  0.00    -0.180 C 
HETATM   15  C8  UNL     1      55.173 -19.729  -1.110  1.00  0.00     0.083 C 
HETATM   16  C9  UNL     1      53.798 -20.417  -1.434  1.00  0.00     0.038 C 
HETATM   17  C10 UNL     1      53.863 -21.234  -2.708  1.00  0.00    -0.027 C 
HETATM   18  C11 UNL     1      54.253 -20.724  -3.986  1.00  0.00     0.002 C 
ENDBRANCH  11  12
ENDBRANCH   1  11
TORSDOF 5
ENDMDL
MODEL 2
REMARK VINA RESULT: -7.410944831      3.855      6.385
REMARK  5 active torsions:
REMARK  status: ('A' for Active; 'I' for Inactive)
REMARK    1  A    between atoms: N1_2  and  N2_4 
REMARK    2  A    between atoms: C2_6  and  C3_7 
REMARK    3  A    between atoms: C3_7  and  C4_9 
REMARK    4  A    between atoms: C4_9  and  O2_11 
REMARK    5  A    between atoms: O2_11  and  C5_12 
ROOT
HETATM    1  C4  UNL     1      55.546 -20.088  -3.411  1.00  0.00     0.283 C 
HETATM    2  O1  UNL     1      56.794 -20.155  -3.521  1.00  0.00    -0.263 OA
ENDROOT
BRANCH   1   3
HETATM    3  C3  UNL     1      54.971 -19.394  -2.254  1.00  0.00     0.221 C 
HETATM    4 CL1  UNL     1      54.154 -20.499  -1.133  1.00  0.00    -0.109 Cl
BRANCH   3   5
HETATM    5  C2  UNL     1      56.079 -18.701  -1.536  1.00  0.00     0.110 C 
HETATM    6  N2  UNL     1      56.762 -17.755  -2.052  1.00  0.00    -0.319 N 
ATOM      7  H2  UNL     1      56.552 -17.446  -3.001  1.00  0.00     0.185 HD
BRANCH   6   8
HETATM    8  N1  UNL     1      57.792 -17.134  -1.342  1.00  0.00    -0.341 N 
HETATM    9  C1  UNL     1      57.466 -16.226  -0.254  1.00  0.00     0.167 C 
ATOM     10  H1  UNL     1      58.766 -17.317  -1.586  1.00  0.00     0.179 HD
ENDBRANCH   6   8
ENDBRANCH   3   5
ENDBRANCH   1   3
BRANCH   1  11
HETATM   11  O2  UNL     1      54.799 -20.691  -4.412  1.00  0.00    -0.310 OA
BRANCH  11  12
HETATM   12  C5  UNL     1      54.603 -20.079  -5.642  1.00  0.00     0.164 C 
HETATM   13  C6  UNL     1      54.607 -21.143  -6.795  1.00  0.00     0.116 C 
HETATM   14  C7  UNL     1      53.569 -20.768  -7.662  1.00  0.00    -0.180 C 
HETATM   15  C8  UNL     1      52.514 -20.360  -8.492  1.00  0.00     0.083 C 
HETATM   16  C9  UNL     1      51.856 -19.132  -7.767  1.00  0.00     0.038 C 
HETATM   17  C10 UNL     1      52.753 -18.569  -6.684  1.00  0.00    -0.027 C 
HETATM   18  C11 UNL     1      53.278 -19.321  -5.587  1.00  0.00     0.002 C 
ENDBRANCH  11  12
ENDBRANCH   1  11
TORSDOF 5
ENDMDL
MODEL 3
REMARK VINA RESULT: -7.296125412      0.919      1.704
REMARK  5 active torsions:
REMARK  status: ('A' for Active; 'I' for Inactive)
REMARK    1  A    between atoms: N1_2  and  N2_4 
REMARK    2  A    between atoms: C2_6  and  C3_7 
REMARK    3  A    between atoms: C3_7  and  C4_9 
REMARK    4  A    between atoms: C4_9  and  O2_11 
REMARK    5  A    between atoms: O2_11  and  C5_12 
ROOT
HETATM    1  C4  UNL     1      55.056 -20.384  -6.316  1.00  0.00     0.283 C 
HETATM    2  O1  UNL     1      55.912 -19.525  -6.639  1.00  0.00    -0.263 OA
ENDROOT
BRANCH   1   3
HETATM    3  C3  UNL     1      54.081 -20.827  -7.317  1.00  0.00     0.221 C 
HETATM    4 CL1  UNL     1      52.812 -19.624  -7.613  1.00  0.00    -0.109 Cl
BRANCH   3   5
HETATM    5  C2  UNL     1      54.814 -21.086  -8.590  1.00  0.00     0.110 C 
HETATM    6  N2  UNL     1      56.022 -21.499  -8.629  1.00  0.00    -0.319 N 
ATOM      7  H2  UNL     1      56.522 -21.665  -7.756  1.00  0.00     0.185 HD
BRANCH   6   8
HETATM    8  N1  UNL     1      56.671 -21.728  -9.845  1.00  0.00    -0.341 N 
HETATM    9  C1  UNL     1      56.276 -22.862 -10.664  1.00  0.00     0.167 C 
ATOM     10  H1  UNL     1      57.415 -21.103 -10.155  1.00  0.00     0.179 HD
ENDBRANCH   6   8
ENDBRANCH   3   5
ENDBRANCH   1   3
BRANCH   1  11
HETATM   11  O2  UNL     1      55.103 -20.849  -5.011  1.00  0.00    -0.310 OA
BRANCH  11  12
HETATM   12  C5  UNL     1      54.647 -20.083  -3.947  1.00  0.00     0.164 C 
HETATM   13  C6  UNL     1      53.693 -20.925  -3.030  1.00  0.00     0.116 C 
HETATM   14  C7  UNL     1      54.040 -20.590  -1.712  1.00  0.00    -0.180 C 
HETATM   15  C8  UNL     1      54.431 -20.232  -0.412  1.00  0.00     0.083 C 
HETATM   16  C9  UNL     1      55.659 -19.269  -0.590  1.00  0.00     0.038 C 
HETATM   17  C10 UNL     1      55.769 -18.752  -2.010  1.00  0.00    -0.027 C 
HETATM   18  C11 UNL     1      55.863 -19.577  -3.174  1.00  0.00     0.002 C 
ENDBRANCH  11  12
ENDBRANCH   1  11
TORSDOF 5
ENDMDL
MODEL 4
REMARK VINA RESULT: -7.089514900      4.307      6.586
REMARK  5 active torsions:
REMARK  status: ('A' for Active; 'I' for Inactive)
REMARK    1  A    between atoms: N1_2  and  N2_4 
REMARK    2  A    between atoms: C2_6  and  C3_7 
REMARK    3  A    between atoms: C3_7  and  C4_9 
REMARK    4  A    between atoms: C4_9  and  O2_11 
REMARK    5  A    between atoms: O2_11  and  C5_12 
ROOT
HETATM    1  C4  UNL     1      56.168 -19.631  -2.591  1.00  0.00     0.283 C 
HETATM    2  O1  UNL     1      57.189 -19.153  -3.143  1.00  0.00    -0.263 OA
ENDROOT
BRANCH   1   3
HETATM    3  C3  UNL     1      55.530 -18.878  -1.505  1.00  0.00     0.221 C 
HETATM    4 CL1  UNL     1      54.744 -19.933  -0.316  1.00  0.00    -0.109 Cl
BRANCH   3   5
HETATM    5  C2  UNL     1      56.584 -18.073  -0.823  1.00  0.00     0.110 C 
HETATM    6  N2  UNL     1      57.106 -17.028  -1.336  1.00  0.00    -0.319 N 
ATOM      7  H2  UNL     1      56.798 -16.715  -2.256  1.00  0.00     0.185 HD
BRANCH   6   8
HETATM    8  N1  UNL     1      58.091 -16.304  -0.661  1.00  0.00    -0.341 N 
HETATM    9  C1  UNL     1      57.709 -15.156   0.147  1.00  0.00     0.167 C 
ATOM     10  H1  UNL     1      59.071 -16.578  -0.734  1.00  0.00     0.179 HD
ENDBRANCH   6   8
ENDBRANCH   3   5
ENDBRANCH   1   3
BRANCH   1  11
HETATM   11  O2  UNL     1      55.721 -20.856  -3.061  1.00  0.00    -0.310 OA
BRANCH  11  12
HETATM   12  C5  UNL     1      54.809 -20.946  -4.104  1.00  0.00     0.164 C 
HETATM   13  C6  UNL     1      53.671 -19.879  -3.934  1.00  0.00     0.116 C 
HETATM   14  C7  UNL     1      53.443 -19.360  -5.219  1.00  0.00    -0.180 C 
HETATM   15  C8  UNL     1      53.259 -18.864  -6.518  1.00  0.00     0.083 C 
HETATM   16  C9  UNL     1      54.349 -19.573  -7.399  1.00  0.00     0.038 C 
HETATM   17  C10 UNL     1      54.943 -20.779  -6.699  1.00  0.00    -0.027 C 
HETATM   18  C11 UNL     1      55.568 -20.749  -5.414  1.00  0.00     0.002 C 
ENDBRANCH  11  12
ENDBRANCH   1  11
TORSDOF 5
ENDMDL
MODEL 5
REMARK VINA RESULT: -7.073825194      0.909      1.054
REMARK  5 active torsions:
REMARK  status: ('A' for Active; 'I' for Inactive)
REMARK    1  A    between atoms: N1_2  and  N2_4 
REMARK    2  A    between atoms: C2_6  and  C3_7 
REMARK    3  A    between atoms: C3_7  and  C4_9 
REMARK    4  A    between atoms: C4_9  and  O2_11 
REMARK    5  A    between atoms: O2_11  and  C5_12 
ROOT
HETATM    1  C4  UNL     1      54.868 -20.212  -6.539  1.00  0.00     0.283 C 
HETATM    2  O1  UNL     1      55.908 -19.541  -6.747  1.00  0.00    -0.263 OA
ENDROOT
BRANCH   1   3
HETATM    3  C3  UNL     1      54.406 -21.146  -7.571  1.00  0.00     0.221 C 
HETATM    4 CL1  UNL     1      52.864 -20.652  -8.296  1.00  0.00    -0.109 Cl
BRANCH   3   5
HETATM    5  C2  UNL     1      55.449 -21.207  -8.636  1.00  0.00     0.110 C 
HETATM    6  N2  UNL     1      55.531 -22.162  -9.478  1.00  0.00    -0.319 N 
ATOM      7  H2  UNL     1      54.858 -22.928  -9.434  1.00  0.00     0.185 HD
BRANCH   6   8
HETATM    8  N1  UNL     1      56.524 -22.179 -10.460  1.00  0.00    -0.341 N 
HETATM    9  C1  UNL     1      56.677 -23.354 -11.304  1.00  0.00     0.167 C 
ATOM     10  H1  UNL     1      57.138 -21.374 -10.583  1.00  0.00     0.179 HD
ENDBRANCH   6   8
ENDBRANCH   3   5
ENDBRANCH   1   3
BRANCH   1  11
HETATM   11  O2  UNL     1      54.228 -20.008  -5.326  1.00  0.00    -0.310 OA
BRANCH  11  12
HETATM   12  C5  UNL     1      54.733 -20.525  -4.141  1.00  0.00     0.164 C 
HETATM   13  C6  UNL     1      56.012 -19.733  -3.694  1.00  0.00     0.116 C 
HETATM   14  C7  UNL     1      55.891 -19.569  -2.306  1.00  0.00    -0.180 C 
HETATM   15  C8  UNL     1      55.720 -19.419  -0.921  1.00  0.00     0.083 C 
HETATM   16  C9  UNL     1      54.312 -20.037  -0.600  1.00  0.00     0.038 C 
HETATM   17  C10 UNL     1      53.799 -20.896  -1.738  1.00  0.00    -0.027 C 
HETATM   18  C11 UNL     1      53.632 -20.449  -3.085  1.00  0.00     0.002 C 
ENDBRANCH  11  12
ENDBRANCH   1  11
TORSDOF 5
ENDMDL
