MODEL 1
REMARK VINA RESULT: -6.538572650      0.000      0.000
REMARK  6 active torsions:
REMARK  status: ('A' for Active; 'I' for Inactive)
REMARK    1  A    between atoms: C5_7  and  C6_8 
REMARK    2  A    between atoms: C6_8  and  O2_12 
REMARK    3  A    between atoms: O2_12  and  C7_13 
REMARK    4  A    between atoms: C7_13  and  C8_14 
REMARK    5  A    between atoms: C8_14  and  O4_16 
REMARK    6  A    between atoms: O4_16  and  C9_17 
ROOT
HETATM    1  C6  UNL     1      55.865 -20.255  -4.244  1.00  0.00     0.124 C 
HETATM    2  N1  UNL     1      56.882 -20.911  -3.799  1.00  0.00    -0.383 N 
ATOM      3  H11 UNL     1      57.623 -21.167  -4.451  1.00  0.00     0.158 HD
ATOM      4  H12 UNL     1      56.914 -21.153  -2.808  1.00  0.00     0.158 HD
ENDROOT
BRANCH   1   5
HETATM    5  C5  UNL     1      54.801 -19.887  -3.306  1.00  0.00     0.136 C 
HETATM    6  C2  UNL     1      55.241 -19.419  -1.994  1.00  0.00     0.050 C 
HETATM    7  C1  UNL     1      56.216 -18.595  -1.697  1.00  0.00     0.047 C 
HETATM    8  O1  UNL     1      54.394 -20.037  -1.053  1.00  0.00    -0.354 OA
HETATM    9  C3  UNL     1      53.228 -20.542  -1.722  1.00  0.00     0.196 C 
HETATM   10  C4  UNL     1      53.890 -21.054  -3.013  1.00  0.00     0.124 C 
HETATM   11 CL1  UNL     1      54.744 -22.528  -2.563  1.00  0.00    -0.121 Cl
ENDBRANCH   1   5
BRANCH   1  12
HETATM   12  O2  UNL     1      55.822 -19.926  -5.587  1.00  0.00    -0.329 OA
BRANCH  12  13
HETATM   13  C7  UNL     1      55.142 -20.783  -6.486  1.00  0.00     0.288 C 
BRANCH  13  14
HETATM   14  C8  UNL     1      54.969 -20.164  -7.818  1.00  0.00     0.283 C 
HETATM   15  O3  UNL     1      55.915 -20.220  -8.646  1.00  0.00    -0.263 OA
BRANCH  14  16
HETATM   16  O4  UNL     1      53.813 -19.524  -8.199  1.00  0.00    -0.320 OA
BRANCH  16  17
HETATM   17  C9  UNL     1      52.557 -20.163  -8.320  1.00  0.00     0.174 C 
HETATM   18  C10 UNL     1      51.503 -19.074  -8.256  1.00  0.00     0.034 C 
ENDBRANCH  16  17
ENDBRANCH  14  16
ENDBRANCH  13  14
ENDBRANCH  12  13
ENDBRANCH   1  12
TORSDOF 6
ENDMDL
MODEL 2
REMARK VINA RESULT: -6.429948471      1.460      1.500
REMARK  6 active torsions:
REMARK  status: ('A' for Active; 'I' for Inactive)
REMARK    1  A    between atoms: C5_7  and  C6_8 
REMARK    2  A    between atoms: C6_8  and  O2_12 
REMARK    3  A    between atoms: O2_12  and  C7_13 
REMARK    4  A    between atoms: C7_13  and  C8_14 
REMARK    5  A    between atoms: C8_14  and  O4_16 
REMARK    6  A    between atoms: O4_16  and  C9_17 
ROOT
HETATM    1  C6  UNL     1      54.073 -19.793  -4.516  1.00  0.00     0.124 C 
HETATM    2  N1  UNL     1      53.333 -18.957  -5.161  1.00  0.00    -0.383 N 
ATOM      3  H11 UNL     1      53.208 -19.086  -6.165  1.00  0.00     0.158 HD
ATOM      4  H12 UNL     1      52.897 -18.191  -4.647  1.00  0.00     0.158 HD
ENDROOT
BRANCH   1   5
HETATM    5  C5  UNL     1      54.253 -19.607  -3.074  1.00  0.00     0.136 C 
HETATM    6  C2  UNL     1      55.617 -19.763  -2.576  1.00  0.00     0.050 C 
HETATM    7  C1  UNL     1      56.738 -19.317  -3.089  1.00  0.00     0.047 C 
HETATM    8  O1  UNL     1      55.517 -20.515  -1.389  1.00  0.00    -0.354 OA
HETATM    9  C3  UNL     1      54.158 -20.495  -0.926  1.00  0.00     0.196 C 
HETATM   10  C4  UNL     1      53.437 -20.599  -2.281  1.00  0.00     0.124 C 
HETATM   11 CL1  UNL     1      53.641 -22.269  -2.805  1.00  0.00    -0.121 Cl
ENDBRANCH   1   5
BRANCH   1  12
HETATM   12  O2  UNL     1      54.665 -20.831  -5.214  1.00  0.00    -0.329 OA
BRANCH  12  13
HETATM   13  C7  UNL     1      55.597 -20.532  -6.238  1.00  0.00     0.288 C 
BRANCH  13  14
HETATM   14  C8  UNL     1      54.996 -20.646  -7.584  1.00  0.00     0.283 C 
HETATM   15  O3  UNL     1      55.479 -21.472  -8.401  1.00  0.00    -0.263 OA
BRANCH  14  16
HETATM   16  O4  UNL     1      53.926 -19.885  -7.992  1.00  0.00    -0.320 OA
BRANCH  16  17
HETATM   17  C9  UNL     1      52.671 -20.420  -8.368  1.00  0.00     0.174 C 
HETATM   18  C10 UNL     1      51.689 -19.265  -8.386  1.00  0.00     0.034 C 
ENDBRANCH  16  17
ENDBRANCH  14  16
ENDBRANCH  13  14
ENDBRANCH  12  13
ENDBRANCH   1  12
TORSDOF 6
ENDMDL
MODEL 3
REMARK VINA RESULT: -6.261782272      1.875      2.527
REMARK  6 active torsions:
REMARK  status: ('A' for Active; 'I' for Inactive)
REMARK    1  A    between atoms: C5_7  and  C6_8 
REMARK    2  A    between atoms: C6_8  and  O2_12 
REMARK    3  A    between atoms: O2_12  and  C7_13 
REMARK    4  A    between atoms: C7_13  and  C8_14 
REMARK    5  A    between atoms: C8_14  and  O4_16 
REMARK    6  A    between atoms: O4_16  and  C9_17 
ROOT
HETATM    1  C6  UNL     1      54.209 -19.817  -4.785  1.00  0.00     0.124 C 
HETATM    2  N1  UNL     1      53.348 -19.098  -5.421  1.00  0.00    -0.383 N 
ATOM      3  H11 UNL     1      53.271 -19.205  -6.432  1.00  0.00     0.158 HD
ATOM      4  H12 UNL     1      52.771 -18.444  -4.892  1.00  0.00     0.158 HD
ENDROOT
BRANCH   1   5
HETATM    5  C5  UNL     1      54.319 -19.663  -3.332  1.00  0.00     0.136 C 
HETATM    6  C2  UNL     1      55.653 -19.856  -2.769  1.00  0.00     0.050 C 
HETATM    7  C1  UNL     1      56.807 -19.422  -3.216  1.00  0.00     0.047 C 
HETATM    8  O1  UNL     1      55.479 -20.628  -1.604  1.00  0.00    -0.354 OA
HETATM    9  C3  UNL     1      54.099 -20.590  -1.209  1.00  0.00     0.196 C 
HETATM   10  C4  UNL     1      53.446 -20.654  -2.601  1.00  0.00     0.124 C 
HETATM   11 CL1  UNL     1      53.644 -22.318  -3.148  1.00  0.00    -0.121 Cl
ENDBRANCH   1   5
BRANCH   1  12
HETATM   12  O2  UNL     1      54.992 -20.705  -5.502  1.00  0.00    -0.329 OA
BRANCH  12  13
HETATM   13  C7  UNL     1      54.522 -21.190  -6.746  1.00  0.00     0.288 C 
BRANCH  13  14
HETATM   14  C8  UNL     1      55.092 -20.440  -7.885  1.00  0.00     0.283 C 
HETATM   15  O3  UNL     1      54.744 -19.244  -8.066  1.00  0.00    -0.263 OA
BRANCH  14  16
HETATM   16  O4  UNL     1      55.993 -20.991  -8.767  1.00  0.00    -0.320 OA
BRANCH  16  17
HETATM   17  C9  UNL     1      55.743 -22.156  -9.529  1.00  0.00     0.174 C 
HETATM   18  C10 UNL     1      56.803 -22.207 -10.613  1.00  0.00     0.034 C 
ENDBRANCH  16  17
ENDBRANCH  14  16
ENDBRANCH  13  14
ENDBRANCH  12  13
ENDBRANCH   1  12
TORSDOF 6
ENDMDL
MODEL 4
REMARK VINA RESULT: -6.223856864      1.207      2.062
REMARK  6 active torsions:
REMARK  status: ('A' for Active; 'I' for Inactive)
REMARK    1  A    between atoms: C5_7  and  C6_8 
REMARK    2  A    between atoms: C6_8  and  O2_12 
REMARK    3  A    between atoms: O2_12  and  C7_13 
REMARK    4  A    between atoms: C7_13  and  C8_14 
REMARK    5  A    between atoms: C8_14  and  O4_16 
REMARK    6  A    between atoms: O4_16  and  C9_17 
ROOT
HETATM    1  C6  UNL     1      55.854 -20.309  -4.281  1.00  0.00     0.124 C 
HETATM    2  N1  UNL     1      56.855 -20.987  -3.835  1.00  0.00    -0.383 N 
ATOM      3  H11 UNL     1      57.597 -21.250  -4.483  1.00  0.00     0.158 HD
ATOM      4  H12 UNL     1      56.873 -21.240  -2.847  1.00  0.00     0.158 HD
ENDROOT
BRANCH   1   5
HETATM    5  C5  UNL     1      54.788 -19.931  -3.350  1.00  0.00     0.136 C 
HETATM    6  C2  UNL     1      55.225 -19.446  -2.043  1.00  0.00     0.050 C 
HETATM    7  C1  UNL     1      56.198 -18.616  -1.755  1.00  0.00     0.047 C 
HETATM    8  O1  UNL     1      54.378 -20.055  -1.096  1.00  0.00    -0.354 OA
HETATM    9  C3  UNL     1      53.215 -20.571  -1.760  1.00  0.00     0.196 C 
HETATM   10  C4  UNL     1      53.879 -21.097  -3.043  1.00  0.00     0.124 C 
HETATM   11 CL1  UNL     1      54.736 -22.564  -2.574  1.00  0.00    -0.121 Cl
ENDBRANCH   1   5
BRANCH   1  12
HETATM   12  O2  UNL     1      55.829 -19.965  -5.622  1.00  0.00    -0.329 OA
BRANCH  12  13
HETATM   13  C7  UNL     1      55.083 -20.761  -6.525  1.00  0.00     0.288 C 
BRANCH  13  14
HETATM   14  C8  UNL     1      55.183 -20.265  -7.914  1.00  0.00     0.283 C 
HETATM   15  O3  UNL     1      54.495 -19.269  -8.258  1.00  0.00    -0.263 OA
BRANCH  14  16
HETATM   16  O4  UNL     1      55.998 -20.844  -8.858  1.00  0.00    -0.320 OA
BRANCH  16  17
HETATM   17  C9  UNL     1      55.698 -22.053  -9.528  1.00  0.00     0.174 C 
HETATM   18  C10 UNL     1      56.749 -22.228 -10.608  1.00  0.00     0.034 C 
ENDBRANCH  16  17
ENDBRANCH  14  16
ENDBRANCH  13  14
ENDBRANCH  12  13
ENDBRANCH   1  12
TORSDOF 6
ENDMDL
MODEL 5
REMARK VINA RESULT: -6.176334788      3.771      6.916
REMARK  6 active torsions:
REMARK  status: ('A' for Active; 'I' for Inactive)
REMARK    1  A    between atoms: C5_7  and  C6_8 
REMARK    2  A    between atoms: C6_8  and  O2_12 
REMARK    3  A    between atoms: O2_12  and  C7_13 
REMARK    4  A    between atoms: C7_13  and  C8_14 
REMARK    5  A    between atoms: C8_14  and  O4_16 
REMARK    6  A    between atoms: O4_16  and  C9_17 
ROOT
HETATM    1  C6  UNL     1      56.473 -18.373  -1.855  1.00  0.00     0.124 C 
HETATM    2  N1  UNL     1      57.305 -18.369  -2.841  1.00  0.00    -0.383 N 
ATOM      3  H11 UNL     1      58.224 -17.950  -2.705  1.00  0.00     0.158 HD
ATOM      4  H12 UNL     1      57.016 -18.786  -3.726  1.00  0.00     0.158 HD
ENDROOT
BRANCH   1   5
HETATM    5  C5  UNL     1      55.152 -18.976  -2.050  1.00  0.00     0.136 C 
HETATM    6  C2  UNL     1      54.755 -19.974  -1.061  1.00  0.00     0.050 C 
HETATM    7  C1  UNL     1      54.894 -19.945   0.242  1.00  0.00     0.047 C 
HETATM    8  O1  UNL     1      54.167 -21.030  -1.785  1.00  0.00    -0.354 OA
HETATM    9  C3  UNL     1      53.830 -20.573  -3.103  1.00  0.00     0.196 C 
HETATM   10  C4  UNL     1      55.058 -19.689  -3.377  1.00  0.00     0.124 C 
HETATM   11 CL1  UNL     1      56.391 -20.801  -3.684  1.00  0.00    -0.121 Cl
ENDBRANCH   1   5
BRANCH   1  12
HETATM   12  O2  UNL     1      56.865 -17.807  -0.654  1.00  0.00    -0.329 OA
BRANCH  12  13
HETATM   13  C7  UNL     1      57.123 -16.416  -0.598  1.00  0.00     0.288 C 
BRANCH  13  14
HETATM   14  C8  UNL     1      58.569 -16.124  -0.489  1.00  0.00     0.283 C 
HETATM   15  O3  UNL     1      59.394 -16.926  -0.998  1.00  0.00    -0.263 OA
BRANCH  14  16
HETATM   16  O4  UNL     1      59.060 -15.009   0.149  1.00  0.00    -0.320 OA
BRANCH  16  17
HETATM   17  C9  UNL     1      58.908 -14.758   1.533  1.00  0.00     0.174 C 
HETATM   18  C10 UNL     1      59.602 -15.891   2.264  1.00  0.00     0.034 C 
ENDBRANCH  16  17
ENDBRANCH  14  16
ENDBRANCH  13  14
ENDBRANCH  12  13
ENDBRANCH   1  12
TORSDOF 6
ENDMDL
