MODEL 1
REMARK VINA RESULT: -5.044549491      0.000      0.000
REMARK  5 active torsions:
REMARK  status: ('A' for Active; 'I' for Inactive)
REMARK    1  A    between atoms: O1_2  and  C2_3 
REMARK    2  A    between atoms: C2_3  and  C3_5 
REMARK    3  A    between atoms: C3_5  and  C4_6 
REMARK    4  A    between atoms: C4_6  and  C5_7 
REMARK    5  A    between atoms: C5_7  and  S1_8 
ROOT
HETATM    1  C3  UNL     1      54.609 -20.706  -2.506  1.00  0.00     0.167 C 
HETATM    2  N1  UNL     1      55.612 -21.478  -3.115  1.00  0.00    -0.367 N 
ATOM      3  H1  UNL     1      55.730 -22.453  -2.843  1.00  0.00     0.158 HD
HETATM    4  C7  UNL     1      56.456 -20.925  -4.095  1.00  0.00     0.267 C 
HETATM    5  F1  UNL     1      57.675 -20.446  -3.644  1.00  0.00    -0.227 F 
HETATM    6  C8  UNL     1      55.879 -19.906  -5.016  1.00  0.00     0.069 C 
HETATM    7  C9  UNL     1      54.417 -20.244  -5.351  1.00  0.00     0.081 C 
HETATM    8  S2  UNL     1      53.556 -19.945  -3.775  1.00  0.00    -0.128 SA
ENDROOT
BRANCH   1   9
HETATM    9  C2  UNL     1      55.082 -19.645  -1.582  1.00  0.00     0.297 C 
HETATM   10  O2  UNL     1      55.076 -19.744  -0.328  1.00  0.00    -0.261 OA
BRANCH   9  11
HETATM   11  O1  UNL     1      55.572 -18.448  -2.085  1.00  0.00    -0.324 OA
HETATM   12  C1  UNL     1      56.761 -17.862  -1.597  1.00  0.00     0.213 C 
ENDBRANCH   9  11
ENDBRANCH   1   9
BRANCH   1  13
HETATM   13  C4  UNL     1      53.668 -21.672  -1.777  1.00  0.00     0.063 C 
BRANCH  13  14
HETATM   14  C5  UNL     1      53.570 -22.985  -2.459  1.00  0.00     0.077 C 
BRANCH  14  15
HETATM   15  S1  UNL     1      54.144 -24.350  -1.409  1.00  0.00    -0.173 SA
HETATM   16  C6  UNL     1      52.756 -25.309  -0.751  1.00  0.00     0.089 C 
ENDBRANCH  14  15
ENDBRANCH  13  14
ENDBRANCH   1  13
TORSDOF 5
ENDMDL
MODEL 2
REMARK VINA RESULT: -4.950664512      2.299      4.316
REMARK  5 active torsions:
REMARK  status: ('A' for Active; 'I' for Inactive)
REMARK    1  A    between atoms: O1_2  and  C2_3 
REMARK    2  A    between atoms: C2_3  and  C3_5 
REMARK    3  A    between atoms: C3_5  and  C4_6 
REMARK    4  A    between atoms: C4_6  and  C5_7 
REMARK    5  A    between atoms: C5_7  and  S1_8 
ROOT
HETATM    1  C3  UNL     1      54.600 -20.163  -3.449  1.00  0.00     0.167 C 
HETATM    2  N1  UNL     1      53.553 -20.137  -2.513  1.00  0.00    -0.367 N 
ATOM      3  H1  UNL     1      52.723 -19.576  -2.705  1.00  0.00     0.158 HD
HETATM    4  C7  UNL     1      53.632 -20.872  -1.317  1.00  0.00     0.267 C 
HETATM    5  F1  UNL     1      54.087 -20.178  -0.209  1.00  0.00    -0.227 F 
HETATM    6  C8  UNL     1      54.335 -22.186  -1.352  1.00  0.00     0.069 C 
HETATM    7  C9  UNL     1      54.079 -22.901  -2.689  1.00  0.00     0.081 C 
HETATM    8  S2  UNL     1      55.000 -21.881  -3.883  1.00  0.00    -0.128 SA
ENDROOT
BRANCH   1   9
HETATM    9  C2  UNL     1      55.849 -19.473  -3.040  1.00  0.00     0.297 C 
HETATM   10  O2  UNL     1      56.990 -19.750  -3.491  1.00  0.00    -0.261 OA
BRANCH   9  11
HETATM   11  O1  UNL     1      55.808 -18.449  -2.104  1.00  0.00    -0.324 OA
HETATM   12  C1  UNL     1      56.967 -17.735  -1.724  1.00  0.00     0.213 C 
ENDBRANCH   9  11
ENDBRANCH   1   9
BRANCH   1  13
HETATM   13  C4  UNL     1      54.062 -19.569  -4.755  1.00  0.00     0.063 C 
BRANCH  13  14
HETATM   14  C5  UNL     1      54.342 -20.436  -5.925  1.00  0.00     0.077 C 
BRANCH  14  15
HETATM   15  S1  UNL     1      53.960 -19.614  -7.497  1.00  0.00    -0.173 SA
HETATM   16  C6  UNL     1      52.550 -20.391  -8.327  1.00  0.00     0.089 C 
ENDBRANCH  14  15
ENDBRANCH  13  14
ENDBRANCH   1  13
TORSDOF 5
ENDMDL
MODEL 3
REMARK VINA RESULT: -4.551171284      7.533      9.378
REMARK  5 active torsions:
REMARK  status: ('A' for Active; 'I' for Inactive)
REMARK    1  A    between atoms: O1_2  and  C2_3 
REMARK    2  A    between atoms: C2_3  and  C3_5 
REMARK    3  A    between atoms: C3_5  and  C4_6 
REMARK    4  A    between atoms: C4_6  and  C5_7 
REMARK    5  A    between atoms: C5_7  and  S1_8 
ROOT
HETATM    1  C3  UNL     1      57.758 -24.875   3.773  1.00  0.00     0.167 C 
HETATM    2  N1  UNL     1      58.600 -25.397   2.778  1.00  0.00    -0.367 N 
ATOM      3  H1  UNL     1      59.071 -24.761   2.134  1.00  0.00     0.158 HD
HETATM    4  C7  UNL     1      58.803 -26.783   2.654  1.00  0.00     0.267 C 
HETATM    5  F1  UNL     1      57.999 -27.433   1.734  1.00  0.00    -0.227 F 
HETATM    6  C8  UNL     1      58.819 -27.598   3.902  1.00  0.00     0.069 C 
HETATM    7  C9  UNL     1      59.475 -26.815   5.052  1.00  0.00     0.081 C 
HETATM    8  S2  UNL     1      58.260 -25.505   5.401  1.00  0.00    -0.128 SA
ENDROOT
BRANCH   1   9
HETATM    9  C2  UNL     1      56.308 -25.129   3.592  1.00  0.00     0.297 C 
HETATM   10  O2  UNL     1      55.554 -25.595   4.484  1.00  0.00    -0.261 OA
BRANCH   9  11
HETATM   11  O1  UNL     1      55.695 -24.851   2.377  1.00  0.00    -0.324 OA
HETATM   12  C1  UNL     1      55.083 -25.859   1.599  1.00  0.00     0.213 C 
ENDBRANCH   9  11
ENDBRANCH   1   9
BRANCH   1  13
HETATM   13  C4  UNL     1      58.032 -23.369   3.861  1.00  0.00     0.063 C 
BRANCH  13  14
HETATM   14  C5  UNL     1      58.235 -22.915   5.258  1.00  0.00     0.077 C 
BRANCH  14  15
HETATM   15  S1  UNL     1      59.668 -21.814   5.422  1.00  0.00    -0.173 SA
HETATM   16  C6  UNL     1      59.517 -20.363   4.350  1.00  0.00     0.089 C 
ENDBRANCH  14  15
ENDBRANCH  13  14
ENDBRANCH   1  13
TORSDOF 5
ENDMDL
MODEL 4
REMARK VINA RESULT: -4.500893831      2.648      4.704
REMARK  5 active torsions:
REMARK  status: ('A' for Active; 'I' for Inactive)
REMARK    1  A    between atoms: O1_2  and  C2_3 
REMARK    2  A    between atoms: C2_3  and  C3_5 
REMARK    3  A    between atoms: C3_5  and  C4_6 
REMARK    4  A    between atoms: C4_6  and  C5_7 
REMARK    5  A    between atoms: C5_7  and  S1_8 
ROOT
HETATM    1  C3  UNL     1      54.950 -20.281  -3.107  1.00  0.00     0.167 C 
HETATM    2  N1  UNL     1      54.498 -19.106  -3.728  1.00  0.00    -0.367 N 
ATOM      3  H1  UNL     1      54.648 -18.207  -3.271  1.00  0.00     0.158 HD
HETATM    4  C7  UNL     1      53.841 -19.150  -4.971  1.00  0.00     0.267 C 
HETATM    5  F1  UNL     1      52.457 -19.166  -4.924  1.00  0.00    -0.227 F 
HETATM    6  C8  UNL     1      54.276 -20.184  -5.952  1.00  0.00     0.069 C 
HETATM    7  C9  UNL     1      55.795 -20.406  -5.867  1.00  0.00     0.081 C 
HETATM    8  S2  UNL     1      56.001 -21.222  -4.252  1.00  0.00    -0.128 SA
ENDROOT
BRANCH   1   9
HETATM    9  C2  UNL     1      53.895 -21.182  -2.582  1.00  0.00     0.297 C 
HETATM   10  O2  UNL     1      53.124 -20.891  -1.631  1.00  0.00    -0.261 OA
BRANCH   9  11
HETATM   11  O1  UNL     1      53.704 -22.437  -3.143  1.00  0.00    -0.324 OA
HETATM   12  C1  UNL     1      53.688 -23.613  -2.360  1.00  0.00     0.213 C 
ENDBRANCH   9  11
ENDBRANCH   1   9
BRANCH   1  13
HETATM   13  C4  UNL     1      55.908 -19.866  -1.985  1.00  0.00     0.063 C 
BRANCH  13  14
HETATM   14  C5  UNL     1      55.738 -18.446  -1.595  1.00  0.00     0.077 C 
BRANCH  14  15
HETATM   15  S1  UNL     1      57.292 -17.514  -1.697  1.00  0.00    -0.173 SA
HETATM   16  C6  UNL     1      57.443 -16.325  -0.339  1.00  0.00     0.089 C 
ENDBRANCH  14  15
ENDBRANCH  13  14
ENDBRANCH   1  13
TORSDOF 5
ENDMDL
MODEL 5
REMARK VINA RESULT: -4.287675576      3.151      4.553
REMARK  5 active torsions:
REMARK  status: ('A' for Active; 'I' for Inactive)
REMARK    1  A    between atoms: O1_2  and  C2_3 
REMARK    2  A    between atoms: C2_3  and  C3_5 
REMARK    3  A    between atoms: C3_5  and  C4_6 
REMARK    4  A    between atoms: C4_6  and  C5_7 
REMARK    5  A    between atoms: C5_7  and  S1_8 
ROOT
HETATM    1  C3  UNL     1      54.708 -20.186  -5.308  1.00  0.00     0.167 C 
HETATM    2  N1  UNL     1      54.298 -18.983  -5.904  1.00  0.00    -0.367 N 
ATOM      3  H1  UNL     1      54.866 -18.145  -5.786  1.00  0.00     0.158 HD
HETATM    4  C7  UNL     1      53.115 -18.917  -6.663  1.00  0.00     0.267 C 
HETATM    5  F1  UNL     1      51.986 -18.488  -5.988  1.00  0.00    -0.227 F 
HETATM    6  C8  UNL     1      52.737 -20.113  -7.468  1.00  0.00     0.069 C 
HETATM    7  C9  UNL     1      53.990 -20.801  -8.038  1.00  0.00     0.081 C 
HETATM    8  S2  UNL     1      54.781 -21.504  -6.557  1.00  0.00    -0.128 SA
ENDROOT
BRANCH   1   9
HETATM    9  C2  UNL     1      53.883 -20.657  -4.168  1.00  0.00     0.297 C 
HETATM   10  O2  UNL     1      53.206 -19.902  -3.424  1.00  0.00    -0.261 OA
BRANCH   9  11
HETATM   11  O1  UNL     1      53.819 -22.010  -3.863  1.00  0.00    -0.324 OA
HETATM   12  C1  UNL     1      53.586 -22.470  -2.548  1.00  0.00     0.213 C 
ENDBRANCH   9  11
ENDBRANCH   1   9
BRANCH   1  13
HETATM   13  C4  UNL     1      56.168 -20.008  -4.875  1.00  0.00     0.063 C 
BRANCH  13  14
HETATM   14  C5  UNL     1      56.384 -20.382  -3.456  1.00  0.00     0.077 C 
BRANCH  14  15
HETATM   15  S1  UNL     1      56.459 -18.933  -2.367  1.00  0.00    -0.173 SA
HETATM   16  C6  UNL     1      55.470 -19.176  -0.870  1.00  0.00     0.089 C 
ENDBRANCH  14  15
ENDBRANCH  13  14
ENDBRANCH   1  13
TORSDOF 5
ENDMDL
