MODEL 1
REMARK VINA RESULT: -6.039341809      0.000      0.000
REMARK  7 active torsions:
REMARK  status: ('A' for Active; 'I' for Inactive)
REMARK    1  A    between atoms: C2_2  and  C4_5 
REMARK    2  A    between atoms: C4_5  and  C5_7 
REMARK    3  A    between atoms: C5_7  and  C6_8 
REMARK    4  A    between atoms: C6_8  and  O2_10 
REMARK    5  A    between atoms: O2_10  and  C7_11 
REMARK    6  A    between atoms: C7_11  and  C8_12 
REMARK    7  A    between atoms: C8_12  and  N1_13 
ROOT
HETATM    1  C8  UNL     1      54.713 -26.000   1.184  1.00  0.00     0.313 C 
HETATM    2  C9  UNL     1      54.861 -25.798   2.613  1.00  0.00     0.094 C 
HETATM    3  N2  UNL     1      54.991 -25.621   3.755  1.00  0.00    -0.195 NA
ENDROOT
BRANCH   1   4
HETATM    4  C7  UNL     1      54.972 -24.699   0.419  1.00  0.00     0.224 C 
BRANCH   4   5
HETATM    5  O2  UNL     1      54.827 -24.853  -0.960  1.00  0.00    -0.341 OA
BRANCH   5   6
HETATM    6  C6  UNL     1      54.133 -23.979  -1.778  1.00  0.00     0.119 C 
HETATM    7  S1  UNL     1      52.516 -24.173  -1.896  1.00  0.00    -0.057 SA
BRANCH   6   8
HETATM    8  C5  UNL     1      54.841 -22.918  -2.506  1.00  0.00     0.157 C 
BRANCH   8   9
HETATM    9  C4  UNL     1      54.787 -21.607  -1.785  1.00  0.00     0.156 C 
HETATM   10  O1  UNL     1      54.580 -21.500  -0.608  1.00  0.00    -0.295 OA
BRANCH   9  11
HETATM   11  C2  UNL     1      55.011 -20.387  -2.630  1.00  0.00     0.090 C 
HETATM   12  C1  UNL     1      53.758 -20.025  -3.391  1.00  0.00     0.041 C 
HETATM   13  C3  UNL     1      55.433 -19.207  -1.786  1.00  0.00     0.041 C 
HETATM   14 CL1  UNL     1      56.334 -20.783  -3.750  1.00  0.00    -0.112 Cl
ENDBRANCH   9  11
ENDBRANCH   8   9
ENDBRANCH   6   8
ENDBRANCH   5   6
ENDBRANCH   4   5
ENDBRANCH   1   4
BRANCH   1  15
HETATM   15  N1  UNL     1      53.309 -26.350   0.920  1.00  0.00    -0.060 N 
ATOM     16  H13 UNL     1      52.709 -25.540   0.770  1.00  0.00     0.276 HD
ATOM     17  H12 UNL     1      53.161 -26.782   0.008  1.00  0.00     0.276 HD
ATOM     18  H11 UNL     1      53.015 -26.936   1.702  1.00  0.00     0.276 HD
ENDBRANCH   1  15
TORSDOF 7
ENDMDL
MODEL 2
REMARK VINA RESULT: -6.017209243      0.847      1.186
REMARK  7 active torsions:
REMARK  status: ('A' for Active; 'I' for Inactive)
REMARK    1  A    between atoms: C2_2  and  C4_5 
REMARK    2  A    between atoms: C4_5  and  C5_7 
REMARK    3  A    between atoms: C5_7  and  C6_8 
REMARK    4  A    between atoms: C6_8  and  O2_10 
REMARK    5  A    between atoms: O2_10  and  C7_11 
REMARK    6  A    between atoms: C7_11  and  C8_12 
REMARK    7  A    between atoms: C8_12  and  N1_13 
ROOT
HETATM    1  C8  UNL     1      54.714 -25.990   1.179  1.00  0.00     0.313 C 
HETATM    2  C9  UNL     1      54.865 -25.789   2.608  1.00  0.00     0.094 C 
HETATM    3  N2  UNL     1      54.997 -25.614   3.750  1.00  0.00    -0.195 NA
ENDROOT
BRANCH   1   4
HETATM    4  C7  UNL     1      54.969 -24.687   0.415  1.00  0.00     0.224 C 
BRANCH   4   5
HETATM    5  O2  UNL     1      54.843 -24.844  -0.965  1.00  0.00    -0.341 OA
BRANCH   5   6
HETATM    6  C6  UNL     1      54.142 -23.984  -1.791  1.00  0.00     0.119 C 
HETATM    7  S1  UNL     1      52.528 -24.194  -1.910  1.00  0.00    -0.057 SA
BRANCH   6   8
HETATM    8  C5  UNL     1      54.841 -22.922  -2.528  1.00  0.00     0.157 C 
BRANCH   8   9
HETATM    9  C4  UNL     1      54.811 -21.615  -1.798  1.00  0.00     0.156 C 
HETATM   10  O1  UNL     1      54.553 -21.509  -0.632  1.00  0.00    -0.295 OA
BRANCH   9  11
HETATM   11  C2  UNL     1      55.129 -20.400  -2.620  1.00  0.00     0.090 C 
HETATM   12  C1  UNL     1      55.604 -19.269  -1.741  1.00  0.00     0.041 C 
HETATM   13  C3  UNL     1      56.191 -20.701  -3.652  1.00  0.00     0.041 C 
HETATM   14 CL1  UNL     1      53.629 -19.954  -3.464  1.00  0.00    -0.112 Cl
ENDBRANCH   9  11
ENDBRANCH   8   9
ENDBRANCH   6   8
ENDBRANCH   5   6
ENDBRANCH   4   5
ENDBRANCH   1   4
BRANCH   1  15
HETATM   15  N1  UNL     1      53.311 -26.343   0.917  1.00  0.00    -0.060 N 
ATOM     16  H13 UNL     1      52.795 -26.611   1.755  1.00  0.00     0.276 HD
ATOM     17  H12 UNL     1      52.730 -25.543   0.667  1.00  0.00     0.276 HD
ATOM     18  H11 UNL     1      53.334 -27.070   0.202  1.00  0.00     0.276 HD
ENDBRANCH   1  15
TORSDOF 7
ENDMDL
MODEL 3
REMARK VINA RESULT: -6.006761385      0.840      1.156
REMARK  7 active torsions:
REMARK  status: ('A' for Active; 'I' for Inactive)
REMARK    1  A    between atoms: C2_2  and  C4_5 
REMARK    2  A    between atoms: C4_5  and  C5_7 
REMARK    3  A    between atoms: C5_7  and  C6_8 
REMARK    4  A    between atoms: C6_8  and  O2_10 
REMARK    5  A    between atoms: O2_10  and  C7_11 
REMARK    6  A    between atoms: C7_11  and  C8_12 
REMARK    7  A    between atoms: C8_12  and  N1_13 
ROOT
HETATM    1  C8  UNL     1      54.709 -25.999   1.164  1.00  0.00     0.313 C 
HETATM    2  C9  UNL     1      54.884 -25.804   2.591  1.00  0.00     0.094 C 
HETATM    3  N2  UNL     1      55.035 -25.633   3.731  1.00  0.00    -0.195 NA
ENDROOT
BRANCH   1   4
HETATM    4  C7  UNL     1      54.954 -24.693   0.401  1.00  0.00     0.224 C 
BRANCH   4   5
HETATM    5  O2  UNL     1      54.843 -24.854  -0.980  1.00  0.00    -0.341 OA
BRANCH   5   6
HETATM    6  C6  UNL     1      54.145 -24.000  -1.816  1.00  0.00     0.119 C 
HETATM    7  S1  UNL     1      52.531 -24.211  -1.938  1.00  0.00    -0.057 SA
BRANCH   6   8
HETATM    8  C5  UNL     1      54.847 -22.944  -2.559  1.00  0.00     0.157 C 
BRANCH   8   9
HETATM    9  C4  UNL     1      54.802 -21.629  -1.846  1.00  0.00     0.156 C 
HETATM   10  O1  UNL     1      54.568 -21.511  -0.675  1.00  0.00    -0.295 OA
BRANCH   9  11
HETATM   11  C2  UNL     1      55.072 -20.418  -2.691  1.00  0.00     0.090 C 
HETATM   12  C1  UNL     1      56.144 -20.708  -3.713  1.00  0.00     0.041 C 
HETATM   13  C3  UNL     1      53.822 -19.959  -3.405  1.00  0.00     0.041 C 
HETATM   14 CL1  UNL     1      55.593 -19.132  -1.580  1.00  0.00    -0.112 Cl
ENDBRANCH   9  11
ENDBRANCH   8   9
ENDBRANCH   6   8
ENDBRANCH   5   6
ENDBRANCH   4   5
ENDBRANCH   1   4
BRANCH   1  15
HETATM   15  N1  UNL     1      53.301 -26.348   0.924  1.00  0.00    -0.060 N 
ATOM     16  H13 UNL     1      52.944 -26.008   0.031  1.00  0.00     0.276 HD
ATOM     17  H12 UNL     1      53.153 -27.341   0.745  1.00  0.00     0.276 HD
ATOM     18  H11 UNL     1      52.784 -25.997   1.730  1.00  0.00     0.276 HD
ENDBRANCH   1  15
TORSDOF 7
ENDMDL
MODEL 4
REMARK VINA RESULT: -5.859844662      5.595      7.049
REMARK  7 active torsions:
REMARK  status: ('A' for Active; 'I' for Inactive)
REMARK    1  A    between atoms: C2_2  and  C4_5 
REMARK    2  A    between atoms: C4_5  and  C5_7 
REMARK    3  A    between atoms: C5_7  and  C6_8 
REMARK    4  A    between atoms: C6_8  and  O2_10 
REMARK    5  A    between atoms: O2_10  and  C7_11 
REMARK    6  A    between atoms: C7_11  and  C8_12 
REMARK    7  A    between atoms: C8_12  and  N1_13 
ROOT
HETATM    1  C8  UNL     1      57.757 -16.038  -0.083  1.00  0.00     0.313 C 
HETATM    2  C9  UNL     1      59.204 -16.121  -0.158  1.00  0.00     0.094 C 
HETATM    3  N2  UNL     1      60.361 -16.206  -0.225  1.00  0.00    -0.195 NA
ENDROOT
BRANCH   1   4
HETATM    4  C7  UNL     1      57.103 -16.953  -1.122  1.00  0.00     0.224 C 
BRANCH   4   5
HETATM    5  O2  UNL     1      56.512 -18.078  -0.546  1.00  0.00    -0.341 OA
BRANCH   5   6
HETATM    6  C6  UNL     1      55.644 -18.931  -1.203  1.00  0.00     0.119 C 
HETATM    7  S1  UNL     1      54.811 -20.008  -0.301  1.00  0.00    -0.057 SA
BRANCH   6   8
HETATM    8  C5  UNL     1      55.487 -18.857  -2.662  1.00  0.00     0.157 C 
BRANCH   8   9
HETATM    9  C4  UNL     1      54.417 -19.778  -3.161  1.00  0.00     0.156 C 
HETATM   10  O1  UNL     1      53.245 -19.598  -2.981  1.00  0.00    -0.295 OA
BRANCH   9  11
HETATM   11  C2  UNL     1      54.893 -20.979  -3.924  1.00  0.00     0.090 C 
HETATM   12  C1  UNL     1      54.442 -22.253  -3.253  1.00  0.00     0.041 C 
HETATM   13  C3  UNL     1      54.381 -20.963  -5.345  1.00  0.00     0.041 C 
HETATM   14 CL1  UNL     1      56.668 -20.884  -3.961  1.00  0.00    -0.112 Cl
ENDBRANCH   9  11
ENDBRANCH   8   9
ENDBRANCH   6   8
ENDBRANCH   5   6
ENDBRANCH   4   5
ENDBRANCH   1   4
BRANCH   1  15
HETATM   15  N1  UNL     1      57.364 -14.668  -0.448  1.00  0.00    -0.060 N 
ATOM     16  H13 UNL     1      56.498 -14.622  -0.984  1.00  0.00     0.276 HD
ATOM     17  H12 UNL     1      57.046 -14.111   0.345  1.00  0.00     0.276 HD
ATOM     18  H11 UNL     1      58.166 -14.267  -0.934  1.00  0.00     0.276 HD
ENDBRANCH   1  15
TORSDOF 7
ENDMDL
MODEL 5
REMARK VINA RESULT: -5.686130948      5.148      6.139
REMARK  7 active torsions:
REMARK  status: ('A' for Active; 'I' for Inactive)
REMARK    1  A    between atoms: C2_2  and  C4_5 
REMARK    2  A    between atoms: C4_5  and  C5_7 
REMARK    3  A    between atoms: C5_7  and  C6_8 
REMARK    4  A    between atoms: C6_8  and  O2_10 
REMARK    5  A    between atoms: O2_10  and  C7_11 
REMARK    6  A    between atoms: C7_11  and  C8_12 
REMARK    7  A    between atoms: C8_12  and  N1_13 
ROOT
HETATM    1  C8  UNL     1      56.284 -18.050  -1.795  1.00  0.00     0.313 C 
HETATM    2  C9  UNL     1      57.039 -17.209  -0.885  1.00  0.00     0.094 C 
HETATM    3  N2  UNL     1      57.633 -16.541  -0.142  1.00  0.00    -0.195 NA
ENDROOT
BRANCH   1   4
HETATM    4  C7  UNL     1      55.730 -19.280  -1.069  1.00  0.00     0.224 C 
BRANCH   4   5
HETATM    5  O2  UNL     1      54.432 -19.596  -1.469  1.00  0.00    -0.341 OA
BRANCH   5   6
HETATM    6  C6  UNL     1      54.118 -20.470  -2.494  1.00  0.00     0.119 C 
HETATM    7  S1  UNL     1      54.155 -22.069  -2.166  1.00  0.00    -0.057 SA
BRANCH   6   8
HETATM    8  C5  UNL     1      53.766 -19.961  -3.827  1.00  0.00     0.157 C 
BRANCH   8   9
HETATM    9  C4  UNL     1      54.831 -20.248  -4.839  1.00  0.00     0.156 C 
HETATM   10  O1  UNL     1      55.951 -20.570  -4.556  1.00  0.00    -0.295 OA
BRANCH   9  11
HETATM   11  C2  UNL     1      54.421 -20.110  -6.276  1.00  0.00     0.090 C 
HETATM   12  C1  UNL     1      55.555 -19.559  -7.106  1.00  0.00     0.041 C 
HETATM   13  C3  UNL     1      53.989 -21.439  -6.852  1.00  0.00     0.041 C 
HETATM   14 CL1  UNL     1      53.029 -19.004  -6.301  1.00  0.00    -0.112 Cl
ENDBRANCH   9  11
ENDBRANCH   8   9
ENDBRANCH   6   8
ENDBRANCH   5   6
ENDBRANCH   4   5
ENDBRANCH   1   4
BRANCH   1  15
HETATM   15  N1  UNL     1      57.214 -18.567  -2.810  1.00  0.00    -0.060 N 
ATOM     16  H13 UNL     1      58.147 -18.762  -2.446  1.00  0.00     0.276 HD
ATOM     17  H12 UNL     1      57.000 -19.517  -3.113  1.00  0.00     0.276 HD
ATOM     18  H11 UNL     1      57.207 -17.885  -3.569  1.00  0.00     0.276 HD
ENDBRANCH   1  15
TORSDOF 7
ENDMDL
