MODEL 1
REMARK VINA RESULT: -5.687101930      0.000      0.000
REMARK  2 active torsions:
REMARK  status: ('A' for Active; 'I' for Inactive)
REMARK    1  A    between atoms: O1_2  and  C2_3 
REMARK    2  A    between atoms: C7_9  and  O2_10 
ROOT
HETATM    1  C2  UNL     1     -12.431  19.796  58.653  1.00  0.00     0.105 A 
HETATM    2  C3  UNL     1     -13.206  20.259  59.691  1.00  0.00     0.056 A 
HETATM    3  C4  UNL     1     -12.674  20.213  60.983  1.00  0.00     0.034 A 
HETATM    4  C5  UNL     1     -11.414  19.723  61.223  1.00  0.00     0.070 A 
HETATM    5  C6  UNL     1     -10.649  19.261  60.162  1.00  0.00     0.167 A 
HETATM    6  F1  UNL     1      -9.408  18.783  60.438  1.00  0.00    -0.202 F 
HETATM    7  C7  UNL     1     -11.168  19.302  58.881  1.00  0.00     0.141 A 
HETATM    8  C9  UNL     1     -10.919  19.701  62.573  1.00  0.00     0.192 A 
HETATM    9  O3  UNL     1      -9.756  19.249  62.799  1.00  0.00    -0.287 OA
HETATM   10  C10 UNL     1     -11.700  20.182  63.719  1.00  0.00    -0.007 A 
HETATM   11  C11 UNL     1     -11.132  20.133  65.092  1.00  0.00     0.052 C 
HETATM   12  C12 UNL     1     -12.907  20.647  63.450  1.00  0.00     0.066 A 
HETATM   13  C13 UNL     1     -13.470  20.698  62.110  1.00  0.00     0.183 A 
HETATM   14  O4  UNL     1     -14.637  21.156  61.913  1.00  0.00    -0.288 OA
ENDROOT
BRANCH   1  15
HETATM   15  O1  UNL     1     -12.903  19.818  57.372  1.00  0.00    -0.353 OA
HETATM   16  C1  UNL     1     -13.298  21.029  56.732  1.00  0.00     0.210 C 
ENDBRANCH   1  15
BRANCH   7  17
HETATM   17  O2  UNL     1     -10.365  18.828  57.855  1.00  0.00    -0.350 OA
HETATM   18  C8  UNL     1      -9.234  19.586  57.455  1.00  0.00     0.210 C 
ENDBRANCH   7  17
TORSDOF 2
ENDMDL
MODEL 2
REMARK VINA RESULT: -5.569438096      8.126     10.094
REMARK  2 active torsions:
REMARK  status: ('A' for Active; 'I' for Inactive)
REMARK    1  A    between atoms: O1_2  and  C2_3 
REMARK    2  A    between atoms: C7_9  and  O2_10 
ROOT
HETATM    1  C2  UNL     1     -13.294  24.717  53.859  1.00  0.00     0.105 A 
HETATM    2  C3  UNL     1     -12.026  24.521  53.362  1.00  0.00     0.056 A 
HETATM    3  C4  UNL     1     -11.073  25.521  53.574  1.00  0.00     0.034 A 
HETATM    4  C5  UNL     1     -11.379  26.671  54.257  1.00  0.00     0.070 A 
HETATM    5  C6  UNL     1     -12.664  26.850  54.749  1.00  0.00     0.167 A 
HETATM    6  F1  UNL     1     -12.930  28.001  55.420  1.00  0.00    -0.202 F 
HETATM    7  C7  UNL     1     -13.613  25.866  54.544  1.00  0.00     0.141 A 
HETATM    8  C9  UNL     1     -10.357  27.666  54.445  1.00  0.00     0.192 A 
HETATM    9  O3  UNL     1     -10.637  28.730  55.075  1.00  0.00    -0.287 OA
HETATM   10  C10 UNL     1      -8.988  27.510  53.937  1.00  0.00    -0.007 A 
HETATM   11  C11 UNL     1      -7.975  28.575  54.164  1.00  0.00     0.052 C 
HETATM   12  C12 UNL     1      -8.730  26.391  53.286  1.00  0.00     0.066 A 
HETATM   13  C13 UNL     1      -9.714  25.345  53.060  1.00  0.00     0.183 A 
HETATM   14  O4  UNL     1      -9.407  24.289  52.426  1.00  0.00    -0.288 OA
ENDROOT
BRANCH   1  15
HETATM   15  O1  UNL     1     -14.263  23.772  53.679  1.00  0.00    -0.353 OA
HETATM   16  C1  UNL     1     -14.429  22.679  54.580  1.00  0.00     0.210 C 
ENDBRANCH   1  15
BRANCH   7  17
HETATM   17  O2  UNL     1     -14.882  26.091  55.055  1.00  0.00    -0.350 OA
HETATM   18  C8  UNL     1     -15.822  26.816  54.279  1.00  0.00     0.210 C 
ENDBRANCH   7  17
TORSDOF 2
ENDMDL
MODEL 3
REMARK VINA RESULT: -5.509493351      6.496     10.133
REMARK  2 active torsions:
REMARK  status: ('A' for Active; 'I' for Inactive)
REMARK    1  A    between atoms: O1_2  and  C2_3 
REMARK    2  A    between atoms: C7_9  and  O2_10 
ROOT
HETATM    1  C2  UNL     1     -16.125  22.794  53.939  1.00  0.00     0.105 A 
HETATM    2  C3  UNL     1     -16.720  23.839  53.271  1.00  0.00     0.056 A 
HETATM    3  C4  UNL     1     -15.908  24.889  52.834  1.00  0.00     0.034 A 
HETATM    4  C5  UNL     1     -14.553  24.890  53.056  1.00  0.00     0.070 A 
HETATM    5  C6  UNL     1     -13.973  23.826  53.732  1.00  0.00     0.167 A 
HETATM    6  F1  UNL     1     -12.630  23.860  53.934  1.00  0.00    -0.202 F 
HETATM    7  C7  UNL     1     -14.769  22.783  54.169  1.00  0.00     0.141 A 
HETATM    8  C9  UNL     1     -13.767  25.997  52.582  1.00  0.00     0.192 A 
HETATM    9  O3  UNL     1     -12.515  26.001  52.786  1.00  0.00    -0.287 OA
HETATM   10  C10 UNL     1     -14.347  27.139  51.864  1.00  0.00    -0.007 A 
HETATM   11  C11 UNL     1     -13.481  28.255  51.399  1.00  0.00     0.052 C 
HETATM   12  C12 UNL     1     -15.653  27.104  51.668  1.00  0.00     0.066 A 
HETATM   13  C13 UNL     1     -16.506  26.018  52.120  1.00  0.00     0.183 A 
HETATM   14  O4  UNL     1     -17.756  26.039  51.902  1.00  0.00    -0.288 OA
ENDROOT
BRANCH   1  15
HETATM   15  O1  UNL     1     -16.873  21.744  54.389  1.00  0.00    -0.353 OA
HETATM   16  C1  UNL     1     -18.224  21.547  53.977  1.00  0.00     0.210 C 
ENDBRANCH   1  15
BRANCH   7  17
HETATM   17  O2  UNL     1     -14.143  21.744  54.839  1.00  0.00    -0.350 OA
HETATM   18  C8  UNL     1     -13.910  21.860  56.233  1.00  0.00     0.210 C 
ENDBRANCH   7  17
TORSDOF 2
ENDMDL
MODEL 4
REMARK VINA RESULT: -5.336903948      9.182     10.884
REMARK  2 active torsions:
REMARK  status: ('A' for Active; 'I' for Inactive)
REMARK    1  A    between atoms: O1_2  and  C2_3 
REMARK    2  A    between atoms: C7_9  and  O2_10 
ROOT
HETATM    1  C2  UNL     1     -12.229  26.293  54.558  1.00  0.00     0.105 A 
HETATM    2  C3  UNL     1     -11.070  25.941  53.906  1.00  0.00     0.056 A 
HETATM    3  C4  UNL     1      -9.991  26.828  53.955  1.00  0.00     0.034 A 
HETATM    4  C5  UNL     1     -10.071  28.020  54.631  1.00  0.00     0.070 A 
HETATM    5  C6  UNL     1     -11.249  28.356  55.282  1.00  0.00     0.167 A 
HETATM    6  F1  UNL     1     -11.292  29.543  55.941  1.00  0.00    -0.202 F 
HETATM    7  C7  UNL     1     -12.322  27.485  55.239  1.00  0.00     0.141 A 
HETATM    8  C9  UNL     1      -8.928  28.893  54.647  1.00  0.00     0.192 A 
HETATM    9  O3  UNL     1      -8.999  29.995  55.271  1.00  0.00    -0.287 OA
HETATM   10  C10 UNL     1      -7.666  28.570  53.970  1.00  0.00    -0.007 A 
HETATM   11  C11 UNL     1      -6.519  29.514  54.024  1.00  0.00     0.052 C 
HETATM   12  C12 UNL     1      -7.625  27.415  53.330  1.00  0.00     0.066 A 
HETATM   13  C13 UNL     1      -8.742  26.486  53.273  1.00  0.00     0.183 A 
HETATM   14  O4  UNL     1      -8.644  25.389  52.642  1.00  0.00    -0.288 OA
ENDROOT
BRANCH   1  15
HETATM   15  O1  UNL     1     -13.313  25.463  54.542  1.00  0.00    -0.353 OA
HETATM   16  C1  UNL     1     -13.567  24.573  53.457  1.00  0.00     0.210 C 
ENDBRANCH   1  15
BRANCH   7  17
HETATM   17  O2  UNL     1     -13.477  27.866  55.904  1.00  0.00    -0.350 OA
HETATM   18  C8  UNL     1     -14.413  28.702  55.243  1.00  0.00     0.210 C 
ENDBRANCH   7  17
TORSDOF 2
ENDMDL
MODEL 5
REMARK VINA RESULT: -5.297653118      8.992     10.271
REMARK  2 active torsions:
REMARK  status: ('A' for Active; 'I' for Inactive)
REMARK    1  A    between atoms: O1_2  and  C2_3 
REMARK    2  A    between atoms: C7_9  and  O2_10 
ROOT
HETATM    1  C2  UNL     1     -12.922  26.586  54.732  1.00  0.00     0.105 A 
HETATM    2  C3  UNL     1     -12.138  27.683  55.000  1.00  0.00     0.056 A 
HETATM    3  C4  UNL     1     -10.809  27.666  54.568  1.00  0.00     0.034 A 
HETATM    4  C5  UNL     1     -10.288  26.590  53.893  1.00  0.00     0.070 A 
HETATM    5  C6  UNL     1     -11.096  25.493  53.632  1.00  0.00     0.167 A 
HETATM    6  F1  UNL     1     -10.547  24.447  52.962  1.00  0.00    -0.202 F 
HETATM    7  C7  UNL     1     -12.412  25.502  54.056  1.00  0.00     0.141 A 
HETATM    8  C9  UNL     1      -8.913  26.628  53.472  1.00  0.00     0.192 A 
HETATM    9  O3  UNL     1      -8.429  25.636  52.848  1.00  0.00    -0.287 OA
HETATM   10  C10 UNL     1      -8.030  27.771  53.730  1.00  0.00    -0.007 A 
HETATM   11  C11 UNL     1      -6.616  27.751  53.269  1.00  0.00     0.052 C 
HETATM   12  C12 UNL     1      -8.565  28.788  54.382  1.00  0.00     0.066 A 
HETATM   13  C13 UNL     1      -9.946  28.817  54.836  1.00  0.00     0.183 A 
HETATM   14  O4  UNL     1     -10.405  29.823  55.458  1.00  0.00    -0.288 OA
ENDROOT
BRANCH   1  15
HETATM   15  O1  UNL     1     -14.227  26.552  55.132  1.00  0.00    -0.353 OA
HETATM   16  C1  UNL     1     -15.250  27.263  54.438  1.00  0.00     0.210 C 
ENDBRANCH   1  15
BRANCH   7  17
HETATM   17  O2  UNL     1     -13.179  24.382  53.772  1.00  0.00    -0.350 OA
HETATM   18  C8  UNL     1     -13.886  24.322  52.544  1.00  0.00     0.210 C 
ENDBRANCH   7  17
TORSDOF 2
ENDMDL
