MODEL 1
REMARK VINA RESULT: -6.955750568      0.000      0.000
REMARK  4 active torsions:
REMARK  status: ('A' for Active; 'I' for Inactive)
REMARK    1  A    between atoms: C2_2  and  O1_3 
REMARK    2  A    between atoms: O1_3  and  C3_4 
REMARK    3  A    between atoms: C3_4  and  O3_6 
REMARK    4  A    between atoms: O3_6  and  N1_7 
ROOT
HETATM    1  N1  UNL     1     -10.822  19.187  60.720  1.00  0.00    -0.264 N 
ATOM      2  H1  UNL     1     -11.354  19.155  59.850  1.00  0.00     0.194 HD
HETATM    3  C4  UNL     1     -11.420  19.642  61.744  1.00  0.00     0.016 C 
HETATM    4  C5  UNL     1     -12.856  20.133  61.754  1.00  0.00     0.060 C 
HETATM    5  C6  UNL     1     -12.878  20.630  63.179  1.00  0.00     0.007 C 
HETATM    6  C7  UNL     1     -11.505  21.282  63.384  1.00  0.00     0.018 C 
HETATM    7  C8  UNL     1     -11.019  19.848  63.133  1.00  0.00     0.048 C 
HETATM    8  C9  UNL     1     -12.280  19.444  63.910  1.00  0.00     0.072 C 
HETATM    9 BR1  UNL     1     -12.101  19.718  65.818  1.00  0.00    -0.090 Br
ENDROOT
BRANCH   1  10
HETATM   10  O3  UNL     1      -9.547  18.743  60.673  1.00  0.00    -0.175 OA
BRANCH  10  11
HETATM   11  C3  UNL     1      -8.913  18.234  59.554  1.00  0.00     0.433 C 
HETATM   12  O2  UNL     1      -7.812  17.634  59.755  1.00  0.00    -0.227 OA
BRANCH  11  13
HETATM   13  O1  UNL     1      -9.405  18.345  58.275  1.00  0.00    -0.267 OA
BRANCH  13  14
HETATM   14  C2  UNL     1      -9.213  19.472  57.483  1.00  0.00     0.137 C 
HETATM   15  C1  UNL     1      -9.898  20.584  57.678  1.00  0.00     0.038 C 
ENDBRANCH  13  14
ENDBRANCH  11  13
ENDBRANCH  10  11
ENDBRANCH   1  10
TORSDOF 4
ENDMDL
MODEL 2
REMARK VINA RESULT: -6.790505528      4.848      7.093
REMARK  4 active torsions:
REMARK  status: ('A' for Active; 'I' for Inactive)
REMARK    1  A    between atoms: C2_2  and  O1_3 
REMARK    2  A    between atoms: O1_3  and  C3_4 
REMARK    3  A    between atoms: C3_4  and  O3_6 
REMARK    4  A    between atoms: O3_6  and  N1_7 
ROOT
HETATM    1  N1  UNL     1     -13.076  17.870  64.437  1.00  0.00    -0.264 N 
ATOM      2  H1  UNL     1     -13.209  17.194  63.684  1.00  0.00     0.194 HD
HETATM    3  C4  UNL     1     -12.411  18.916  64.160  1.00  0.00     0.016 C 
HETATM    4  C5  UNL     1     -11.809  19.218  62.799  1.00  0.00     0.060 C 
HETATM    5  C6  UNL     1     -11.083  20.483  63.188  1.00  0.00     0.007 C 
HETATM    6  C7  UNL     1     -10.520  20.193  64.586  1.00  0.00     0.018 C 
HETATM    7  C8  UNL     1     -12.011  20.087  64.936  1.00  0.00     0.048 C 
HETATM    8  C9  UNL     1     -12.177  21.231  63.925  1.00  0.00     0.072 C 
HETATM    9 BR1  UNL     1     -11.606  22.941  64.632  1.00  0.00    -0.090 Br
ENDROOT
BRANCH   1  10
HETATM   10  O3  UNL     1     -13.625  17.568  65.634  1.00  0.00    -0.175 OA
BRANCH  10  11
HETATM   11  C3  UNL     1     -14.490  16.517  65.880  1.00  0.00     0.433 C 
HETATM   12  O2  UNL     1     -15.465  16.391  65.075  1.00  0.00    -0.227 OA
BRANCH  11  13
HETATM   13  O1  UNL     1     -14.346  15.630  66.920  1.00  0.00    -0.267 OA
BRANCH  13  14
HETATM   14  C2  UNL     1     -15.220  14.571  67.142  1.00  0.00     0.137 C 
HETATM   15  C1  UNL     1     -16.196  14.650  68.029  1.00  0.00     0.038 C 
ENDBRANCH  13  14
ENDBRANCH  11  13
ENDBRANCH  10  11
ENDBRANCH   1  10
TORSDOF 4
ENDMDL
MODEL 3
REMARK VINA RESULT: -6.607645671      5.152      7.409
REMARK  4 active torsions:
REMARK  status: ('A' for Active; 'I' for Inactive)
REMARK    1  A    between atoms: C2_2  and  O1_3 
REMARK    2  A    between atoms: O1_3  and  C3_4 
REMARK    3  A    between atoms: C3_4  and  O3_6 
REMARK    4  A    between atoms: O3_6  and  N1_7 
ROOT
HETATM    1  N1  UNL     1     -13.253  17.920  65.291  1.00  0.00    -0.264 N 
ATOM      2  H1  UNL     1     -13.070  18.045  66.286  1.00  0.00     0.194 HD
HETATM    3  C4  UNL     1     -12.749  18.777  64.501  1.00  0.00     0.016 C 
HETATM    4  C5  UNL     1     -11.904  19.960  64.940  1.00  0.00     0.060 C 
HETATM    5  C6  UNL     1     -11.757  20.604  63.582  1.00  0.00     0.007 C 
HETATM    6  C7  UNL     1     -13.131  20.436  62.922  1.00  0.00     0.018 C 
HETATM    7  C8  UNL     1     -12.778  18.947  63.050  1.00  0.00     0.048 C 
HETATM    8  C9  UNL     1     -11.348  19.412  62.738  1.00  0.00     0.072 C 
HETATM    9 BR1  UNL     1     -11.094  19.838  60.867  1.00  0.00    -0.090 Br
ENDROOT
BRANCH   1  10
HETATM   10  O3  UNL     1     -14.010  16.858  64.937  1.00  0.00    -0.175 OA
BRANCH  10  11
HETATM   11  C3  UNL     1     -14.964  16.250  65.732  1.00  0.00     0.433 C 
HETATM   12  O2  UNL     1     -16.142  16.202  65.259  1.00  0.00    -0.227 OA
BRANCH  11  13
HETATM   13  O1  UNL     1     -14.704  15.711  66.969  1.00  0.00    -0.267 OA
BRANCH  13  14
HETATM   14  C2  UNL     1     -15.366  14.593  67.466  1.00  0.00     0.137 C 
HETATM   15  C1  UNL     1     -16.470  14.701  68.183  1.00  0.00     0.038 C 
ENDBRANCH  13  14
ENDBRANCH  11  13
ENDBRANCH  10  11
ENDBRANCH   1  10
TORSDOF 4
ENDMDL
MODEL 4
REMARK VINA RESULT: -6.195312734      4.737      6.754
REMARK  4 active torsions:
REMARK  status: ('A' for Active; 'I' for Inactive)
REMARK    1  A    between atoms: C2_2  and  O1_3 
REMARK    2  A    between atoms: O1_3  and  C3_4 
REMARK    3  A    between atoms: C3_4  and  O3_6 
REMARK    4  A    between atoms: O3_6  and  N1_7 
ROOT
HETATM    1  N1  UNL     1     -13.221  17.753  64.321  1.00  0.00    -0.264 N 
ATOM      2  H1  UNL     1     -13.291  17.103  63.538  1.00  0.00     0.194 HD
HETATM    3  C4  UNL     1     -12.524  18.799  64.139  1.00  0.00     0.016 C 
HETATM    4  C5  UNL     1     -11.799  19.137  62.849  1.00  0.00     0.060 C 
HETATM    5  C6  UNL     1     -11.099  20.380  63.342  1.00  0.00     0.007 C 
HETATM    6  C7  UNL     1     -10.667  20.040  64.774  1.00  0.00     0.018 C 
HETATM    7  C8  UNL     1     -12.185  19.941  64.986  1.00  0.00     0.048 C 
HETATM    8  C9  UNL     1     -12.248  21.118  64.001  1.00  0.00     0.072 C 
HETATM    9 BR1  UNL     1     -11.728  22.797  64.813  1.00  0.00    -0.090 Br
ENDROOT
BRANCH   1  10
HETATM   10  O3  UNL     1     -13.878  17.420  65.454  1.00  0.00    -0.175 OA
BRANCH  10  11
HETATM   11  C3  UNL     1     -14.522  16.218  65.685  1.00  0.00     0.433 C 
HETATM   12  O2  UNL     1     -13.930  15.174  65.271  1.00  0.00    -0.227 OA
BRANCH  11  13
HETATM   13  O1  UNL     1     -15.734  16.106  66.324  1.00  0.00    -0.267 OA
BRANCH  13  14
HETATM   14  C2  UNL     1     -16.820  15.431  65.778  1.00  0.00     0.137 C 
HETATM   15  C1  UNL     1     -17.777  16.066  65.125  1.00  0.00     0.038 C 
ENDBRANCH  13  14
ENDBRANCH  11  13
ENDBRANCH  10  11
ENDBRANCH   1  10
TORSDOF 4
ENDMDL
MODEL 5
REMARK VINA RESULT: -6.101501326      1.771      2.359
REMARK  4 active torsions:
REMARK  status: ('A' for Active; 'I' for Inactive)
REMARK    1  A    between atoms: C2_2  and  O1_3 
REMARK    2  A    between atoms: O1_3  and  C3_4 
REMARK    3  A    between atoms: C3_4  and  O3_6 
REMARK    4  A    between atoms: O3_6  and  N1_7 
ROOT
HETATM    1  N1  UNL     1     -11.513  20.767  61.207  1.00  0.00    -0.264 N 
ATOM      2  H1  UNL     1     -11.577  21.721  60.854  1.00  0.00     0.194 HD
HETATM    3  C4  UNL     1     -11.653  20.605  62.459  1.00  0.00     0.016 C 
HETATM    4  C5  UNL     1     -11.903  21.729  63.449  1.00  0.00     0.060 C 
HETATM    5  C6  UNL     1     -11.836  20.895  64.706  1.00  0.00     0.007 C 
HETATM    6  C7  UNL     1     -10.693  19.904  64.453  1.00  0.00     0.018 C 
HETATM    7  C8  UNL     1     -11.629  19.433  63.331  1.00  0.00     0.048 C 
HETATM    8  C9  UNL     1     -12.747  19.740  64.337  1.00  0.00     0.072 C 
HETATM    9 BR1  UNL     1     -12.894  18.396  65.722  1.00  0.00    -0.090 Br
ENDROOT
BRANCH   1  10
HETATM   10  O3  UNL     1     -11.289  19.792  60.298  1.00  0.00    -0.175 OA
BRANCH  10  11
HETATM   11  C3  UNL     1     -11.792  19.763  59.010  1.00  0.00     0.433 C 
HETATM   12  O2  UNL     1     -13.013  19.433  58.891  1.00  0.00    -0.227 OA
BRANCH  11  13
HETATM   13  O1  UNL     1     -11.056  20.065  57.890  1.00  0.00    -0.267 OA
BRANCH  13  14
HETATM   14  C2  UNL     1      -9.669  20.168  57.898  1.00  0.00     0.137 C 
HETATM   15  C1  UNL     1      -8.893  19.101  57.960  1.00  0.00     0.038 C 
ENDBRANCH  13  14
ENDBRANCH  11  13
ENDBRANCH  10  11
ENDBRANCH   1  10
TORSDOF 4
ENDMDL
