MODEL 1
REMARK VINA RESULT: -7.916417053      0.000      0.000
REMARK  12 active torsions:
REMARK  status: ('A' for Active; 'I' for Inactive)
REMARK    1  A    between atoms: N1_2  and  C2_4 
REMARK    2  A    between atoms: C3_5  and  O1_6 
REMARK    3  A    between atoms: C6_11  and  O3_12 
REMARK    4  A    between atoms: O3_12  and  C7_13 
REMARK    5  A    between atoms: C9_17  and  C10_18 
REMARK    6  A    between atoms: N2_19  and  O6_21 
REMARK    7  A    between atoms: C11_23  and  O7_24 
REMARK    8  A    between atoms: C13_26  and  O8_27 
REMARK    9  A    between atoms: O8_27  and  C14_28 
REMARK   10  A    between atoms: C15_30  and  O10_31 
REMARK   11  A    between atoms: C16_33  and  O11_34 
REMARK   12  A    between atoms: C17_36  and  O12_37 
ROOT
HETATM    1  C2  UNL     1      30.751  16.157 -36.727  1.00  0.00     0.145 C 
HETATM    2  C3  UNL     1      30.130  14.811 -36.431  1.00  0.00     0.172 C 
HETATM    3  C4  UNL     1      29.699  14.657 -35.007  1.00  0.00     0.151 C 
HETATM    4  C5  UNL     1      29.184  13.248 -34.826  1.00  0.00     0.042 C 
HETATM    5  O2  UNL     1      30.678  14.998 -34.086  1.00  0.00    -0.351 OA
HETATM    6  C6  UNL     1      31.899  15.287 -34.677  1.00  0.00     0.294 C 
HETATM    7  C13 UNL     1      31.803  16.415 -35.677  1.00  0.00     0.205 C 
ENDROOT
BRANCH   6   8
HETATM    8  O3  UNL     1      32.756  15.706 -33.668  1.00  0.00    -0.326 OA
BRANCH   8   9
HETATM    9  C7  UNL     1      33.754  14.797 -33.473  1.00  0.00     0.297 C 
HETATM   10  O4  UNL     1      33.970  14.119 -34.669  1.00  0.00    -0.334 OA
HETATM   11  C8  UNL     1      35.132  13.378 -34.543  1.00  0.00     0.342 C 
HETATM   12  O5  UNL     1      35.486  13.129 -33.224  1.00  0.00    -0.354 OA
HETATM   13  C9  UNL     1      35.948  14.270 -32.578  1.00  0.00     0.198 C 
HETATM   14  C11 UNL     1      35.076  15.425 -33.077  1.00  0.00     0.210 C 
BRANCH  13  15
HETATM   15  C10 UNL     1      37.371  14.499 -32.845  1.00  0.00     0.121 C 
HETATM   16  N2  UNL     1      38.242  13.835 -32.181  1.00  0.00    -0.282 N 
ATOM     17  H2  UNL     1      37.892  13.172 -31.490  1.00  0.00     0.193 HD
BRANCH  16  18
HETATM   18  O6  UNL     1      39.586  13.935 -32.313  1.00  0.00    -0.290 OA
ATOM     19  H6  UNL     1      40.117  13.485 -32.961  1.00  0.00     0.244 HD
ENDBRANCH  16  18
ENDBRANCH  13  15
BRANCH  14  20
HETATM   20  O7  UNL     1      35.699  16.047 -34.145  1.00  0.00    -0.383 OA
HETATM   21  C12 UNL     1      35.819  17.428 -33.894  1.00  0.00     0.202 C 
ENDBRANCH  14  20
ENDBRANCH   8   9
ENDBRANCH   6   8
BRANCH   7  22
HETATM   22  O8  UNL     1      31.535  17.638 -35.107  1.00  0.00    -0.346 OA
BRANCH  22  23
HETATM   23  C14 UNL     1      32.662  18.466 -35.099  1.00  0.00     0.295 C 
HETATM   24  O9  UNL     1      33.332  18.413 -36.299  1.00  0.00    -0.326 OA
HETATM   25  C15 UNL     1      33.348  19.653 -36.881  1.00  0.00     0.291 C 
HETATM   26  C16 UNL     1      33.184  20.683 -35.776  1.00  0.00     0.206 C 
HETATM   27  C17 UNL     1      32.347  19.899 -34.785  1.00  0.00     0.207 C 
BRANCH  25  28
HETATM   28  O10 UNL     1      34.556  19.814 -37.556  1.00  0.00    -0.368 OA
ATOM     29  H10 UNL     1      34.572  20.678 -37.951  1.00  0.00     0.212 HD
ENDBRANCH  25  28
BRANCH  26  30
HETATM   30  O11 UNL     1      34.452  20.956 -35.281  1.00  0.00    -0.388 OA
ATOM     31  H11 UNL     1      34.362  21.673 -34.664  1.00  0.00     0.210 HD
ENDBRANCH  26  30
BRANCH  27  32
HETATM   32  O12 UNL     1      31.008  20.226 -35.041  1.00  0.00    -0.388 OA
ATOM     33  H12 UNL     1      30.500  20.335 -34.247  1.00  0.00     0.210 HD
ENDBRANCH  27  32
ENDBRANCH  22  23
ENDBRANCH   7  22
BRANCH   1  34
HETATM   34  N1  UNL     1      29.709  17.131 -36.703  1.00  0.00    -0.398 N 
HETATM   35  C1  UNL     1      29.780  18.139 -37.489  1.00  0.00     0.112 C 
ATOM     36  H1  UNL     1      28.918  17.025 -36.067  1.00  0.00     0.158 HD
ENDBRANCH   1  34
BRANCH   2  37
HETATM   37  O1  UNL     1      28.981  14.715 -37.233  1.00  0.00    -0.391 OA
ATOM     38  H1  UNL     1      28.498  15.523 -37.111  1.00  0.00     0.210 HD
ENDBRANCH   2  37
TORSDOF 12
ENDMDL
MODEL 2
REMARK VINA RESULT: -7.750531961      1.741      2.246
REMARK  12 active torsions:
REMARK  status: ('A' for Active; 'I' for Inactive)
REMARK    1  A    between atoms: N1_2  and  C2_4 
REMARK    2  A    between atoms: C3_5  and  O1_6 
REMARK    3  A    between atoms: C6_11  and  O3_12 
REMARK    4  A    between atoms: O3_12  and  C7_13 
REMARK    5  A    between atoms: C9_17  and  C10_18 
REMARK    6  A    between atoms: N2_19  and  O6_21 
REMARK    7  A    between atoms: C11_23  and  O7_24 
REMARK    8  A    between atoms: C13_26  and  O8_27 
REMARK    9  A    between atoms: O8_27  and  C14_28 
REMARK   10  A    between atoms: C15_30  and  O10_31 
REMARK   11  A    between atoms: C16_33  and  O11_34 
REMARK   12  A    between atoms: C17_36  and  O12_37 
ROOT
HETATM    1  C2  UNL     1      29.807  16.016 -35.730  1.00  0.00     0.145 C 
HETATM    2  C3  UNL     1      29.911  14.510 -35.803  1.00  0.00     0.172 C 
HETATM    3  C4  UNL     1      30.324  13.880 -34.511  1.00  0.00     0.151 C 
HETATM    4  C5  UNL     1      30.477  12.395 -34.745  1.00  0.00     0.042 C 
HETATM    5  O2  UNL     1      31.449  14.457 -33.942  1.00  0.00    -0.351 OA
HETATM    6  C6  UNL     1      32.036  15.416 -34.755  1.00  0.00     0.294 C 
HETATM    7  C13 UNL     1      31.082  16.532 -35.110  1.00  0.00     0.205 C 
ENDROOT
BRANCH   6   8
HETATM    8  O3  UNL     1      33.081  15.982 -34.036  1.00  0.00    -0.326 OA
BRANCH   8   9
HETATM    9  C7  UNL     1      34.040  15.051 -33.764  1.00  0.00     0.297 C 
HETATM   10  O4  UNL     1      34.415  14.446 -34.960  1.00  0.00    -0.334 OA
HETATM   11  C8  UNL     1      35.547  13.685 -34.724  1.00  0.00     0.342 C 
HETATM   12  O5  UNL     1      35.716  13.351 -33.386  1.00  0.00    -0.354 OA
HETATM   13  C9  UNL     1      36.089  14.445 -32.613  1.00  0.00     0.198 C 
HETATM   14  C11 UNL     1      35.297  15.639 -33.154  1.00  0.00     0.210 C 
BRANCH  13  15
HETATM   15  C10 UNL     1      37.536  14.674 -32.669  1.00  0.00     0.121 C 
HETATM   16  N2  UNL     1      38.326  13.757 -32.251  1.00  0.00    -0.282 N 
ATOM     17  H2  UNL     1      37.898  12.902 -31.896  1.00  0.00     0.193 HD
BRANCH  16  18
HETATM   18  O6  UNL     1      39.679  13.820 -32.238  1.00  0.00    -0.290 OA
ATOM     19  H6  UNL     1      40.222  14.265 -32.879  1.00  0.00     0.244 HD
ENDBRANCH  16  18
ENDBRANCH  13  15
BRANCH  14  20
HETATM   20  O7  UNL     1      36.062  16.318 -34.085  1.00  0.00    -0.383 OA
HETATM   21  C12 UNL     1      35.929  17.707 -33.896  1.00  0.00     0.202 C 
ENDBRANCH  14  20
ENDBRANCH   8   9
ENDBRANCH   6   8
BRANCH   7  22
HETATM   22  O8  UNL     1      30.738  17.326 -34.041  1.00  0.00    -0.346 OA
BRANCH  22  23
HETATM   23  C14 UNL     1      30.873  18.686 -34.339  1.00  0.00     0.295 C 
HETATM   24  O9  UNL     1      29.784  19.405 -33.906  1.00  0.00    -0.326 OA
HETATM   25  C15 UNL     1      30.175  20.334 -32.977  1.00  0.00     0.291 C 
HETATM   26  C16 UNL     1      31.646  20.632 -33.216  1.00  0.00     0.206 C 
HETATM   27  C17 UNL     1      32.116  19.300 -33.765  1.00  0.00     0.207 C 
BRANCH  25  28
HETATM   28  O10 UNL     1      29.389  21.474 -33.129  1.00  0.00    -0.368 OA
ATOM     29  H10 UNL     1      29.745  21.998 -33.836  1.00  0.00     0.212 HD
ENDBRANCH  25  28
BRANCH  26  30
HETATM   30  O11 UNL     1      31.709  21.637 -34.171  1.00  0.00    -0.388 OA
ATOM     31  H11 UNL     1      31.535  21.233 -35.013  1.00  0.00     0.210 HD
ENDBRANCH  26  30
BRANCH  27  32
HETATM   32  O12 UNL     1      32.626  18.574 -32.679  1.00  0.00    -0.388 OA
ATOM     33  H12 UNL     1      32.501  19.020 -31.850  1.00  0.00     0.210 HD
ENDBRANCH  27  32
ENDBRANCH  22  23
ENDBRANCH   7  22
BRANCH   1  34
HETATM   34  N1  UNL     1      28.657  16.334 -34.948  1.00  0.00    -0.398 N 
HETATM   35  C1  UNL     1      27.715  17.022 -35.477  1.00  0.00     0.112 C 
ATOM     36  H1  UNL     1      28.586  16.017 -33.981  1.00  0.00     0.158 HD
ENDBRANCH   1  34
BRANCH   2  37
HETATM   37  O1  UNL     1      28.627  14.035 -36.114  1.00  0.00    -0.391 OA
ATOM     38  H1  UNL     1      28.748  13.238 -36.616  1.00  0.00     0.210 HD
ENDBRANCH   2  37
TORSDOF 12
ENDMDL
MODEL 3
REMARK VINA RESULT: -7.609544867      1.734      4.964
REMARK  12 active torsions:
REMARK  status: ('A' for Active; 'I' for Inactive)
REMARK    1  A    between atoms: N1_2  and  C2_4 
REMARK    2  A    between atoms: C3_5  and  O1_6 
REMARK    3  A    between atoms: C6_11  and  O3_12 
REMARK    4  A    between atoms: O3_12  and  C7_13 
REMARK    5  A    between atoms: C9_17  and  C10_18 
REMARK    6  A    between atoms: N2_19  and  O6_21 
REMARK    7  A    between atoms: C11_23  and  O7_24 
REMARK    8  A    between atoms: C13_26  and  O8_27 
REMARK    9  A    between atoms: O8_27  and  C14_28 
REMARK   10  A    between atoms: C15_30  and  O10_31 
REMARK   11  A    between atoms: C16_33  and  O11_34 
REMARK   12  A    between atoms: C17_36  and  O12_37 
ROOT
HETATM    1  C2  UNL     1      30.351  17.369 -33.926  1.00  0.00     0.145 C 
HETATM    2  C3  UNL     1      31.450  18.403 -34.006  1.00  0.00     0.172 C 
HETATM    3  C4  UNL     1      32.122  18.453 -35.341  1.00  0.00     0.151 C 
HETATM    4  C5  UNL     1      33.250  19.454 -35.257  1.00  0.00     0.042 C 
HETATM    5  O2  UNL     1      32.532  17.213 -35.808  1.00  0.00    -0.351 OA
HETATM    6  C6  UNL     1      32.351  16.199 -34.879  1.00  0.00     0.294 C 
HETATM    7  C13 UNL     1      30.911  16.067 -34.443  1.00  0.00     0.205 C 
ENDROOT
BRANCH   6   8
HETATM    8  O3  UNL     1      32.703  15.006 -35.499  1.00  0.00    -0.326 OA
BRANCH   8   9
HETATM    9  C7  UNL     1      33.599  14.313 -34.739  1.00  0.00     0.297 C 
HETATM   10  O4  UNL     1      34.331  13.478 -35.578  1.00  0.00    -0.334 OA
HETATM   11  C8  UNL     1      35.393  12.962 -34.855  1.00  0.00     0.342 C 
HETATM   12  O5  UNL     1      35.197  13.007 -33.481  1.00  0.00    -0.354 OA
HETATM   13  C9  UNL     1      35.271  14.302 -32.980  1.00  0.00     0.198 C 
HETATM   14  C11 UNL     1      34.595  15.200 -34.020  1.00  0.00     0.210 C 
BRANCH  13  15
HETATM   15  C10 UNL     1      36.659  14.701 -32.726  1.00  0.00     0.121 C 
HETATM   16  N2  UNL     1      37.545  13.792 -32.559  1.00  0.00    -0.282 N 
ATOM     17  H2  UNL     1      37.232  12.823 -32.612  1.00  0.00     0.193 HD
BRANCH  16  18
HETATM   18  O6  UNL     1      38.861  14.002 -32.317  1.00  0.00    -0.290 OA
ATOM     19  H6  UNL     1      39.351  14.785 -32.544  1.00  0.00     0.244 HD
ENDBRANCH  16  18
ENDBRANCH  13  15
BRANCH  14  20
HETATM   20  O7  UNL     1      35.552  15.715 -34.877  1.00  0.00    -0.383 OA
HETATM   21  C12 UNL     1      35.841  17.049 -34.530  1.00  0.00     0.202 C 
ENDBRANCH  14  20
ENDBRANCH   8   9
ENDBRANCH   6   8
BRANCH   7  22
HETATM   22  O8  UNL     1      30.072  15.615 -35.436  1.00  0.00    -0.346 OA
BRANCH  22  23
HETATM   23  C14 UNL     1      29.001  14.880 -34.917  1.00  0.00     0.295 C 
HETATM   24  O9  UNL     1      27.890  14.977 -35.721  1.00  0.00    -0.326 OA
HETATM   25  C15 UNL     1      27.542  13.738 -36.190  1.00  0.00     0.291 C 
HETATM   26  C16 UNL     1      28.089  12.706 -35.217  1.00  0.00     0.206 C 
HETATM   27  C17 UNL     1      29.320  13.429 -34.707  1.00  0.00     0.207 C 
BRANCH  25  28
HETATM   28  O10 UNL     1      26.153  13.669 -36.282  1.00  0.00    -0.368 OA
ATOM     29  H10 UNL     1      25.904  12.772 -36.471  1.00  0.00     0.212 HD
ENDBRANCH  25  28
BRANCH  26  30
HETATM   30  O11 UNL     1      27.137  12.539 -34.221  1.00  0.00    -0.388 OA
ATOM     31  H11 UNL     1      27.407  11.793 -33.699  1.00  0.00     0.210 HD
ENDBRANCH  26  30
BRANCH  27  32
HETATM   32  O12 UNL     1      30.397  12.994 -35.493  1.00  0.00    -0.388 OA
ATOM     33  H12 UNL     1      31.236  13.276 -35.152  1.00  0.00     0.210 HD
ENDBRANCH  27  32
ENDBRANCH  22  23
ENDBRANCH   7  22
BRANCH   1  34
HETATM   34  N1  UNL     1      29.255  17.838 -34.709  1.00  0.00    -0.398 N 
HETATM   35  C1  UNL     1      28.171  18.181 -34.121  1.00  0.00     0.112 C 
ATOM     36  H1  UNL     1      29.335  17.900 -35.724  1.00  0.00     0.158 HD
ENDBRANCH   1  34
BRANCH   2  37
HETATM   37  O1  UNL     1      30.842  19.650 -33.791  1.00  0.00    -0.391 OA
ATOM     38  H1  UNL     1      30.357  19.854 -34.581  1.00  0.00     0.210 HD
ENDBRANCH   2  37
TORSDOF 12
ENDMDL
MODEL 4
REMARK VINA RESULT: -7.526915592      1.816      5.172
REMARK  12 active torsions:
REMARK  status: ('A' for Active; 'I' for Inactive)
REMARK    1  A    between atoms: N1_2  and  C2_4 
REMARK    2  A    between atoms: C3_5  and  O1_6 
REMARK    3  A    between atoms: C6_11  and  O3_12 
REMARK    4  A    between atoms: O3_12  and  C7_13 
REMARK    5  A    between atoms: C9_17  and  C10_18 
REMARK    6  A    between atoms: N2_19  and  O6_21 
REMARK    7  A    between atoms: C11_23  and  O7_24 
REMARK    8  A    between atoms: C13_26  and  O8_27 
REMARK    9  A    between atoms: O8_27  and  C14_28 
REMARK   10  A    between atoms: C15_30  and  O10_31 
REMARK   11  A    between atoms: C16_33  and  O11_34 
REMARK   12  A    between atoms: C17_36  and  O12_37 
ROOT
HETATM    1  C2  UNL     1      29.456  18.109 -35.337  1.00  0.00     0.145 C 
HETATM    2  C3  UNL     1      30.468  19.172 -35.695  1.00  0.00     0.172 C 
HETATM    3  C4  UNL     1      31.431  18.742 -36.755  1.00  0.00     0.151 C 
HETATM    4  C5  UNL     1      32.436  19.854 -36.951  1.00  0.00     0.042 C 
HETATM    5  O2  UNL     1      32.025  17.514 -36.507  1.00  0.00    -0.351 OA
HETATM    6  C6  UNL     1      31.701  16.999 -35.260  1.00  0.00     0.294 C 
HETATM    7  C13 UNL     1      30.211  16.829 -35.077  1.00  0.00     0.205 C 
ENDROOT
BRANCH   6   8
HETATM    8  O3  UNL     1      32.271  15.735 -35.177  1.00  0.00    -0.326 OA
BRANCH   8   9
HETATM    9  C7  UNL     1      33.587  15.820 -34.830  1.00  0.00     0.297 C 
HETATM   10  O4  UNL     1      33.706  16.730 -33.783  1.00  0.00    -0.334 OA
HETATM   11  C8  UNL     1      34.989  16.637 -33.272  1.00  0.00     0.342 C 
HETATM   12  O5  UNL     1      35.896  16.076 -34.161  1.00  0.00    -0.354 OA
HETATM   13  C9  UNL     1      35.688  14.712 -34.334  1.00  0.00     0.198 C 
HETATM   14  C11 UNL     1      34.171  14.509 -34.343  1.00  0.00     0.210 C 
BRANCH  13  15
HETATM   15  C10 UNL     1      36.342  13.931 -33.280  1.00  0.00     0.121 C 
HETATM   16  N2  UNL     1      37.540  14.228 -32.940  1.00  0.00    -0.282 N 
ATOM     17  H2  UNL     1      37.982  15.005 -33.430  1.00  0.00     0.193 HD
BRANCH  16  18
HETATM   18  O6  UNL     1      38.274  13.602 -31.988  1.00  0.00    -0.290 OA
ATOM     19  H6  UNL     1      38.098  13.612 -31.054  1.00  0.00     0.244 HD
ENDBRANCH  16  18
ENDBRANCH  13  15
BRANCH  14  20
HETATM   20  O7  UNL     1      33.740  14.186 -33.067  1.00  0.00    -0.383 OA
HETATM   21  C12 UNL     1      32.843  13.102 -33.123  1.00  0.00     0.202 C 
ENDBRANCH  14  20
ENDBRANCH   8   9
ENDBRANCH   6   8
BRANCH   7  22
HETATM   22  O8  UNL     1      29.663  15.850 -35.873  1.00  0.00    -0.346 OA
BRANCH  22  23
HETATM   23  C14 UNL     1      28.778  15.035 -35.161  1.00  0.00     0.295 C 
HETATM   24  O9  UNL     1      27.637  14.783 -35.884  1.00  0.00    -0.326 OA
HETATM   25  C15 UNL     1      27.515  13.438 -36.115  1.00  0.00     0.291 C 
HETATM   26  C16 UNL     1      28.293  12.713 -35.028  1.00  0.00     0.206 C 
HETATM   27  C17 UNL     1      29.381  13.727 -34.739  1.00  0.00     0.207 C 
BRANCH  25  28
HETATM   28  O10 UNL     1      26.164  13.100 -36.090  1.00  0.00    -0.368 OA
ATOM     29  H10 UNL     1      25.674  13.829 -35.727  1.00  0.00     0.212 HD
ENDBRANCH  25  28
BRANCH  26  30
HETATM   30  O11 UNL     1      27.434  12.553 -33.950  1.00  0.00    -0.388 OA
ATOM     31  H11 UNL     1      27.586  11.683 -33.598  1.00  0.00     0.210 HD
ENDBRANCH  26  30
BRANCH  27  32
HETATM   32  O12 UNL     1      30.487  13.365 -35.521  1.00  0.00    -0.388 OA
ATOM     33  H12 UNL     1      31.154  12.910 -35.022  1.00  0.00     0.210 HD
ENDBRANCH  27  32
ENDBRANCH  22  23
ENDBRANCH   7  22
BRANCH   1  34
HETATM   34  N1  UNL     1      28.546  17.990 -36.429  1.00  0.00    -0.398 N 
HETATM   35  C1  UNL     1      27.321  18.319 -36.258  1.00  0.00     0.112 C 
ATOM     36  H1  UNL     1      28.869  17.648 -37.335  1.00  0.00     0.158 HD
ENDBRANCH   1  34
BRANCH   2  37
HETATM   37  O1  UNL     1      29.742  20.263 -36.200  1.00  0.00    -0.391 OA
ATOM     38  H1  UNL     1      29.331  19.965 -37.003  1.00  0.00     0.210 HD
ENDBRANCH   2  37
TORSDOF 12
ENDMDL
MODEL 5
REMARK VINA RESULT: -7.444740711      2.465      7.706
REMARK  12 active torsions:
REMARK  status: ('A' for Active; 'I' for Inactive)
REMARK    1  A    between atoms: N1_2  and  C2_4 
REMARK    2  A    between atoms: C3_5  and  O1_6 
REMARK    3  A    between atoms: C6_11  and  O3_12 
REMARK    4  A    between atoms: O3_12  and  C7_13 
REMARK    5  A    between atoms: C9_17  and  C10_18 
REMARK    6  A    between atoms: N2_19  and  O6_21 
REMARK    7  A    between atoms: C11_23  and  O7_24 
REMARK    8  A    between atoms: C13_26  and  O8_27 
REMARK    9  A    between atoms: O8_27  and  C14_28 
REMARK   10  A    between atoms: C15_30  and  O10_31 
REMARK   11  A    between atoms: C16_33  and  O11_34 
REMARK   12  A    between atoms: C17_36  and  O12_37 
ROOT
HETATM    1  C2  UNL     1      34.951  17.091 -34.679  1.00  0.00     0.145 C 
HETATM    2  C3  UNL     1      34.960  18.560 -34.322  1.00  0.00     0.172 C 
HETATM    3  C4  UNL     1      34.133  18.883 -33.118  1.00  0.00     0.151 C 
HETATM    4  C5  UNL     1      34.155  20.382 -32.929  1.00  0.00     0.042 C 
HETATM    5  O2  UNL     1      32.849  18.363 -33.165  1.00  0.00    -0.351 OA
HETATM    6  C6  UNL     1      32.555  17.758 -34.379  1.00  0.00     0.294 C 
HETATM    7  C13 UNL     1      33.512  16.639 -34.712  1.00  0.00     0.205 C 
ENDROOT
BRANCH   6   8
HETATM    8  O3  UNL     1      31.290  17.195 -34.261  1.00  0.00    -0.326 OA
BRANCH   8   9
HETATM    9  C7  UNL     1      30.334  18.058 -34.707  1.00  0.00     0.297 C 
HETATM   10  O4  UNL     1      30.783  18.639 -35.889  1.00  0.00    -0.334 OA
HETATM   11  C8  UNL     1      29.726  19.321 -36.466  1.00  0.00     0.342 C 
HETATM   12  O5  UNL     1      28.720  19.642 -35.564  1.00  0.00    -0.354 OA
HETATM   13  C9  UNL     1      27.996  18.524 -35.164  1.00  0.00     0.198 C 
HETATM   14  C11 UNL     1      29.011  17.387 -35.020  1.00  0.00     0.210 C 
BRANCH  13  15
HETATM   15  C10 UNL     1      26.937  18.198 -36.125  1.00  0.00     0.121 C 
HETATM   16  N2  UNL     1      26.218  17.158 -35.927  1.00  0.00    -0.282 N 
ATOM     17  H2  UNL     1      26.424  16.603 -35.097  1.00  0.00     0.193 HD
BRANCH  16  18
HETATM   18  O6  UNL     1      25.207  16.729 -36.721  1.00  0.00    -0.290 OA
ATOM     19  H6  UNL     1      24.351  16.442 -36.426  1.00  0.00     0.244 HD
ENDBRANCH  16  18
ENDBRANCH  13  15
BRANCH  14  20
HETATM   20  O7  UNL     1      29.060  16.659 -36.196  1.00  0.00    -0.383 OA
HETATM   21  C12 UNL     1      29.205  15.288 -35.907  1.00  0.00     0.202 C 
ENDBRANCH  14  20
ENDBRANCH   8   9
ENDBRANCH   6   8
BRANCH   7  22
HETATM   22  O8  UNL     1      33.397  15.546 -33.885  1.00  0.00    -0.346 OA
BRANCH  22  23
HETATM   23  C14 UNL     1      33.042  14.393 -34.592  1.00  0.00     0.295 C 
HETATM   24  O9  UNL     1      34.126  13.851 -35.241  1.00  0.00    -0.326 OA
HETATM   25  C15 UNL     1      34.370  12.587 -34.773  1.00  0.00     0.291 C 
HETATM   26  C16 UNL     1      33.068  12.049 -34.201  1.00  0.00     0.206 C 
HETATM   27  C17 UNL     1      32.417  13.335 -33.731  1.00  0.00     0.207 C 
BRANCH  25  28
HETATM   28  O10 UNL     1      34.830  11.800 -35.826  1.00  0.00    -0.368 OA
ATOM     29  H10 UNL     1      34.276  11.032 -35.898  1.00  0.00     0.212 HD
ENDBRANCH  25  28
BRANCH  26  30
HETATM   30  O11 UNL     1      32.370  11.469 -35.251  1.00  0.00    -0.388 OA
ATOM     31  H11 UNL     1      31.522  11.895 -35.292  1.00  0.00     0.210 HD
ENDBRANCH  26  30
BRANCH  27  32
HETATM   32  O12 UNL     1      32.743  13.479 -32.375  1.00  0.00    -0.388 OA
ATOM     33  H12 UNL     1      32.502  12.720 -31.858  1.00  0.00     0.210 HD
ENDBRANCH  27  32
ENDBRANCH  22  23
ENDBRANCH   7  22
BRANCH   1  34
HETATM   34  N1  UNL     1      35.714  16.400 -33.691  1.00  0.00    -0.398 N 
HETATM   35  C1  UNL     1      36.732  15.715 -34.058  1.00  0.00     0.112 C 
ATOM     36  H1  UNL     1      35.452  16.452 -32.707  1.00  0.00     0.158 HD
ENDBRANCH   1  34
BRANCH   2  37
HETATM   37  O1  UNL     1      36.291  18.891 -34.023  1.00  0.00    -0.391 OA
ATOM     38  H1  UNL     1      36.370  19.830 -34.143  1.00  0.00     0.210 HD
ENDBRANCH   2  37
TORSDOF 12
ENDMDL
