MODEL 1
REMARK VINA RESULT: -7.214062133      0.000      0.000
REMARK  14 active torsions:
REMARK  status: ('A' for Active; 'I' for Inactive)
REMARK    1  A    between atoms: O1_2  and  C2_3 
REMARK    2  A    between atoms: C3_5  and  C4_6 
REMARK    3  A    between atoms: C4_6  and  S1_7 
REMARK    4  A    between atoms: N1_12  and  C8_13 
REMARK    5  A    between atoms: C9_15  and  O4_16 
REMARK    6  A    between atoms: C9_15  and  C10_18 
REMARK    7  A    between atoms: C10_18  and  O5_19 
REMARK    8  A    between atoms: C11_21  and  O6_22 
REMARK    9  A    between atoms: C12_24  and  O7_25 
REMARK   10  A    between atoms: C12_24  and  C13_27 
REMARK   11  A    between atoms: C13_27  and  O8_28 
REMARK   12  A    between atoms: C14_30  and  O9_31 
REMARK   13  A    between atoms: O9_31  and  N2_32 
REMARK   14  A    between atoms: N2_32  and  O10_36 
ROOT
HETATM    1  C8  UNL     1      33.021  15.463 -33.790  1.00  0.00     0.399 C 
HETATM    2  O3  UNL     1      34.393  15.598 -33.899  1.00  0.00    -0.313 OA
HETATM    3  C9  UNL     1      35.101  14.547 -33.353  1.00  0.00     0.215 C 
HETATM    4  C11 UNL     1      34.631  13.192 -33.721  1.00  0.00     0.222 C 
HETATM    5  C12 UNL     1      33.127  13.063 -33.678  1.00  0.00     0.142 C 
HETATM    6  C14 UNL     1      32.587  14.222 -34.530  1.00  0.00     0.255 C 
ENDROOT
BRANCH   1   7
HETATM    7  N1  UNL     1      32.383  16.669 -34.144  1.00  0.00     0.146 N 
HETATM    8  C6  UNL     1      32.153  17.108 -35.482  1.00  0.00     0.300 A 
HETATM    9  C3  UNL     1      32.322  18.569 -35.840  1.00  0.00     0.171 C 
HETATM   10  C7  UNL     1      31.045  16.787 -34.606  1.00  0.00     0.329 A 
HETATM   11  O2  UNL     1      32.322  19.415 -34.763  1.00  0.00    -0.344 OA
HETATM   12  C2  UNL     1      31.088  19.705 -34.236  1.00  0.00     0.327 C 
HETATM   13  S2  UNL     1      30.130  18.202 -33.950  1.00  0.00    -0.071 SA
BRANCH   9  14
HETATM   14  C4  UNL     1      31.334  18.994 -36.902  1.00  0.00     0.108 C 
BRANCH  14  15
HETATM   15  S1  UNL     1      31.214  17.772 -38.231  1.00  0.00    -0.171 SA
HETATM   16  C5  UNL     1      32.369  18.157 -39.570  1.00  0.00     0.089 C 
ENDBRANCH  14  15
ENDBRANCH   9  14
BRANCH  12  17
HETATM   17  O1  UNL     1      31.266  20.327 -32.999  1.00  0.00    -0.357 OA
HETATM   18  C1  UNL     1      32.396  19.836 -32.340  1.00  0.00     0.206 C 
ENDBRANCH  12  17
ENDBRANCH   1   7
BRANCH   6  19
HETATM   19  O9  UNL     1      33.215  14.091 -35.783  1.00  0.00    -0.226 OA
BRANCH  19  20
HETATM   20  N2  UNL     1      32.553  13.736 -36.924  1.00  0.00    -0.061 N 
HETATM   21  N3  UNL     1      31.342  14.010 -37.155  1.00  0.00    -0.298 N 
ATOM     22  H32 UNL     1      30.867  14.528 -36.414  1.00  0.00     0.181 HD
ATOM     23  H31 UNL     1      30.848  13.746 -38.007  1.00  0.00     0.181 HD
BRANCH  20  24
HETATM   24  O10 UNL     1      33.199  13.030 -37.933  1.00  0.00    -0.248 OA
ATOM     25  H10 UNL     1      33.053  12.099 -38.046  1.00  0.00     0.249 HD
ENDBRANCH  20  24
ENDBRANCH  19  20
ENDBRANCH   6  19
BRANCH   3  26
HETATM   26  O4  UNL     1      35.158  14.629 -31.950  1.00  0.00    -0.362 OA
ATOM     27  H4  UNL     1      35.192  13.770 -31.547  1.00  0.00     0.213 HD
ENDBRANCH   3  26
BRANCH   3  28
HETATM   28  C10 UNL     1      36.533  14.698 -33.828  1.00  0.00     0.235 C 
BRANCH  28  29
HETATM   29  O5  UNL     1      37.375  13.871 -33.109  1.00  0.00    -0.395 OA
ATOM     30  H5  UNL     1      38.272  14.178 -33.163  1.00  0.00     0.209 HD
ENDBRANCH  28  29
ENDBRANCH   3  28
BRANCH   5  31
HETATM   31  O7  UNL     1      32.688  13.288 -32.397  1.00  0.00    -0.382 OA
ATOM     32  H7  UNL     1      31.790  12.989 -32.316  1.00  0.00     0.210 HD
ENDBRANCH   5  31
BRANCH   5  33
HETATM   33  C13 UNL     1      32.640  11.737 -34.135  1.00  0.00     0.207 C 
BRANCH  33  34
HETATM   34  O8  UNL     1      31.372  11.902 -34.725  1.00  0.00    -0.398 OA
ATOM     35  H8  UNL     1      31.409  11.584 -35.620  1.00  0.00     0.209 HD
ENDBRANCH  33  34
ENDBRANCH   5  33
BRANCH   4  36
HETATM   36  O6  UNL     1      35.175  12.791 -34.914  1.00  0.00    -0.387 OA
ATOM     37  H6  UNL     1      35.320  11.852 -34.923  1.00  0.00     0.210 HD
ENDBRANCH   4  36
TORSDOF 14
ENDMDL
MODEL 2
REMARK VINA RESULT: -7.107001201      1.671      2.671
REMARK  14 active torsions:
REMARK  status: ('A' for Active; 'I' for Inactive)
REMARK    1  A    between atoms: O1_2  and  C2_3 
REMARK    2  A    between atoms: C3_5  and  C4_6 
REMARK    3  A    between atoms: C4_6  and  S1_7 
REMARK    4  A    between atoms: N1_12  and  C8_13 
REMARK    5  A    between atoms: C9_15  and  O4_16 
REMARK    6  A    between atoms: C9_15  and  C10_18 
REMARK    7  A    between atoms: C10_18  and  O5_19 
REMARK    8  A    between atoms: C11_21  and  O6_22 
REMARK    9  A    between atoms: C12_24  and  O7_25 
REMARK   10  A    between atoms: C12_24  and  C13_27 
REMARK   11  A    between atoms: C13_27  and  O8_28 
REMARK   12  A    between atoms: C14_30  and  O9_31 
REMARK   13  A    between atoms: O9_31  and  N2_32 
REMARK   14  A    between atoms: N2_32  and  O10_36 
ROOT
HETATM    1  C8  UNL     1      32.826  15.386 -34.200  1.00  0.00     0.399 C 
HETATM    2  O3  UNL     1      34.185  15.626 -34.295  1.00  0.00    -0.313 OA
HETATM    3  C9  UNL     1      34.957  14.753 -33.555  1.00  0.00     0.215 C 
HETATM    4  C11 UNL     1      34.621  13.318 -33.694  1.00  0.00     0.222 C 
HETATM    5  C12 UNL     1      33.133  13.061 -33.669  1.00  0.00     0.142 C 
HETATM    6  C14 UNL     1      32.531  14.003 -34.724  1.00  0.00     0.255 C 
ENDROOT
BRANCH   1   7
HETATM    7  N1  UNL     1      32.102  16.450 -34.776  1.00  0.00     0.146 N 
HETATM    8  C6  UNL     1      30.735  16.750 -34.498  1.00  0.00     0.300 A 
HETATM    9  C3  UNL     1      29.815  17.194 -35.615  1.00  0.00     0.171 C 
HETATM   10  C7  UNL     1      31.786  17.675 -34.129  1.00  0.00     0.329 A 
HETATM   11  O2  UNL     1      30.465  17.630 -36.739  1.00  0.00    -0.344 OA
HETATM   12  C2  UNL     1      30.973  18.904 -36.674  1.00  0.00     0.327 C 
HETATM   13  S2  UNL     1      31.933  19.149 -35.166  1.00  0.00    -0.071 SA
BRANCH   9  14
HETATM   14  C4  UNL     1      28.792  18.192 -35.123  1.00  0.00     0.108 C 
BRANCH  14  15
HETATM   15  S1  UNL     1      27.104  17.662 -35.505  1.00  0.00    -0.171 SA
HETATM   16  C5  UNL     1      25.892  18.664 -34.609  1.00  0.00     0.089 C 
ENDBRANCH  14  15
ENDBRANCH   9  14
BRANCH  12  17
HETATM   17  O1  UNL     1      31.837  19.096 -37.754  1.00  0.00    -0.357 OA
HETATM   18  C1  UNL     1      31.833  17.992 -38.611  1.00  0.00     0.206 C 
ENDBRANCH  12  17
ENDBRANCH   1   7
BRANCH   6  19
HETATM   19  O9  UNL     1      33.220  13.717 -35.918  1.00  0.00    -0.226 OA
BRANCH  19  20
HETATM   20  N2  UNL     1      32.613  13.641 -37.139  1.00  0.00    -0.061 N 
HETATM   21  N3  UNL     1      31.460  14.095 -37.385  1.00  0.00    -0.298 N 
ATOM     22  H32 UNL     1      30.990  14.535 -36.593  1.00  0.00     0.181 HD
ATOM     23  H31 UNL     1      31.006  14.039 -38.297  1.00  0.00     0.181 HD
BRANCH  20  24
HETATM   24  O10 UNL     1      33.253  13.042 -38.218  1.00  0.00    -0.248 OA
ATOM     25  H10 UNL     1      34.197  13.083 -38.308  1.00  0.00     0.249 HD
ENDBRANCH  20  24
ENDBRANCH  19  20
ENDBRANCH   6  19
BRANCH   3  26
HETATM   26  O4  UNL     1      34.948  15.080 -32.187  1.00  0.00    -0.362 OA
ATOM     27  H4  UNL     1      34.477  14.435 -31.674  1.00  0.00     0.213 HD
ENDBRANCH   3  26
BRANCH   3  28
HETATM   28  C10 UNL     1      36.389  14.952 -34.011  1.00  0.00     0.235 C 
BRANCH  28  29
HETATM   29  O5  UNL     1      37.236  14.081 -33.352  1.00  0.00    -0.395 OA
ATOM     30  H5  UNL     1      38.086  14.057 -33.775  1.00  0.00     0.209 HD
ENDBRANCH  28  29
ENDBRANCH   3  28
BRANCH   5  31
HETATM   31  O7  UNL     1      32.623  13.461 -32.458  1.00  0.00    -0.382 OA
ATOM     32  H7  UNL     1      32.490  14.401 -32.469  1.00  0.00     0.210 HD
ENDBRANCH   5  31
BRANCH   5  33
HETATM   33  C13 UNL     1      32.781  11.638 -33.899  1.00  0.00     0.207 C 
BRANCH  33  34
HETATM   34  O8  UNL     1      31.587  11.584 -34.643  1.00  0.00    -0.398 OA
ATOM     35  H8  UNL     1      31.343  10.673 -34.762  1.00  0.00     0.209 HD
ENDBRANCH  33  34
ENDBRANCH   5  33
BRANCH   4  36
HETATM   36  O6  UNL     1      35.246  12.770 -34.784  1.00  0.00    -0.387 OA
ATOM     37  H6  UNL     1      34.818  13.033 -35.589  1.00  0.00     0.210 HD
ENDBRANCH   4  36
TORSDOF 14
ENDMDL
MODEL 3
REMARK VINA RESULT: -7.080443741      1.393      2.711
REMARK  14 active torsions:
REMARK  status: ('A' for Active; 'I' for Inactive)
REMARK    1  A    between atoms: O1_2  and  C2_3 
REMARK    2  A    between atoms: C3_5  and  C4_6 
REMARK    3  A    between atoms: C4_6  and  S1_7 
REMARK    4  A    between atoms: N1_12  and  C8_13 
REMARK    5  A    between atoms: C9_15  and  O4_16 
REMARK    6  A    between atoms: C9_15  and  C10_18 
REMARK    7  A    between atoms: C10_18  and  O5_19 
REMARK    8  A    between atoms: C11_21  and  O6_22 
REMARK    9  A    between atoms: C12_24  and  O7_25 
REMARK   10  A    between atoms: C12_24  and  C13_27 
REMARK   11  A    between atoms: C13_27  and  O8_28 
REMARK   12  A    between atoms: C14_30  and  O9_31 
REMARK   13  A    between atoms: O9_31  and  N2_32 
REMARK   14  A    between atoms: N2_32  and  O10_36 
ROOT
HETATM    1  C8  UNL     1      32.934  15.309 -34.018  1.00  0.00     0.399 C 
HETATM    2  O3  UNL     1      34.293  15.557 -34.081  1.00  0.00    -0.313 OA
HETATM    3  C9  UNL     1      35.059  14.632 -33.401  1.00  0.00     0.215 C 
HETATM    4  C11 UNL     1      34.727  13.211 -33.649  1.00  0.00     0.222 C 
HETATM    5  C12 UNL     1      33.239  12.951 -33.658  1.00  0.00     0.142 C 
HETATM    6  C14 UNL     1      32.646  13.968 -34.646  1.00  0.00     0.255 C 
ENDROOT
BRANCH   1   7
HETATM    7  N1  UNL     1      32.214  16.413 -34.520  1.00  0.00     0.146 N 
HETATM    8  C6  UNL     1      32.413  17.767 -34.117  1.00  0.00     0.300 A 
HETATM    9  C3  UNL     1      31.224  18.686 -33.939  1.00  0.00     0.171 C 
HETATM   10  C7  UNL     1      32.700  17.347 -35.473  1.00  0.00     0.329 A 
HETATM   11  O2  UNL     1      30.076  18.244 -34.541  1.00  0.00    -0.344 OA
HETATM   12  C2  UNL     1      30.003  18.441 -35.897  1.00  0.00     0.327 C 
HETATM   13  S2  UNL     1      31.499  17.861 -36.723  1.00  0.00    -0.071 SA
BRANCH   9  14
HETATM   14  C4  UNL     1      31.562  20.107 -34.328  1.00  0.00     0.108 C 
BRANCH  14  15
HETATM   15  S1  UNL     1      32.264  21.032 -32.939  1.00  0.00    -0.171 SA
HETATM   16  C5  UNL     1      31.883  20.224 -31.365  1.00  0.00     0.089 C 
ENDBRANCH  14  15
ENDBRANCH   9  14
BRANCH  12  17
HETATM   17  O1  UNL     1      28.934  17.697 -36.400  1.00  0.00    -0.357 OA
HETATM   18  C1  UNL     1      28.756  16.512 -35.681  1.00  0.00     0.206 C 
ENDBRANCH  12  17
ENDBRANCH   1   7
BRANCH   6  19
HETATM   19  O9  UNL     1      33.348  13.772 -35.851  1.00  0.00    -0.226 OA
BRANCH  19  20
HETATM   20  N2  UNL     1      32.735  13.595 -37.059  1.00  0.00    -0.061 N 
HETATM   21  N3  UNL     1      31.540  13.924 -37.302  1.00  0.00    -0.298 N 
ATOM     22  H32 UNL     1      31.039  14.345 -36.519  1.00  0.00     0.181 HD
ATOM     23  H31 UNL     1      31.083  13.792 -38.204  1.00  0.00     0.181 HD
BRANCH  20  24
HETATM   24  O10 UNL     1      33.417  13.022 -38.127  1.00  0.00    -0.248 OA
ATOM     25  H10 UNL     1      34.072  12.350 -37.982  1.00  0.00     0.249 HD
ENDBRANCH  20  24
ENDBRANCH  19  20
ENDBRANCH   6  19
BRANCH   3  26
HETATM   26  O4  UNL     1      35.036  14.856 -32.012  1.00  0.00    -0.362 OA
ATOM     27  H4  UNL     1      35.690  15.491 -31.747  1.00  0.00     0.213 HD
ENDBRANCH   3  26
BRANCH   3  28
HETATM   28  C10 UNL     1      36.496  14.865 -33.826  1.00  0.00     0.235 C 
BRANCH  28  29
HETATM   29  O5  UNL     1      37.345  13.993 -33.172  1.00  0.00    -0.395 OA
ATOM     30  H5  UNL     1      38.215  14.025 -33.553  1.00  0.00     0.209 HD
ENDBRANCH  28  29
ENDBRANCH   3  28
BRANCH   5  31
HETATM   31  O7  UNL     1      32.717  13.259 -32.426  1.00  0.00    -0.382 OA
ATOM     32  H7  UNL     1      31.789  13.056 -32.419  1.00  0.00     0.210 HD
ENDBRANCH   5  31
BRANCH   5  33
HETATM   33  C13 UNL     1      32.891  11.549 -33.998  1.00  0.00     0.207 C 
BRANCH  33  34
HETATM   34  O8  UNL     1      31.876  11.560 -34.973  1.00  0.00    -0.398 OA
ATOM     35  H8  UNL     1      32.268  11.399 -35.823  1.00  0.00     0.209 HD
ENDBRANCH  33  34
ENDBRANCH   5  33
BRANCH   4  36
HETATM   36  O6  UNL     1      35.364  12.746 -34.770  1.00  0.00    -0.387 OA
ATOM     37  H6  UNL     1      34.815  12.846 -35.539  1.00  0.00     0.210 HD
ENDBRANCH   4  36
TORSDOF 14
ENDMDL
MODEL 4
REMARK VINA RESULT: -7.025853295      1.435      1.744
REMARK  14 active torsions:
REMARK  status: ('A' for Active; 'I' for Inactive)
REMARK    1  A    between atoms: O1_2  and  C2_3 
REMARK    2  A    between atoms: C3_5  and  C4_6 
REMARK    3  A    between atoms: C4_6  and  S1_7 
REMARK    4  A    between atoms: N1_12  and  C8_13 
REMARK    5  A    between atoms: C9_15  and  O4_16 
REMARK    6  A    between atoms: C9_15  and  C10_18 
REMARK    7  A    between atoms: C10_18  and  O5_19 
REMARK    8  A    between atoms: C11_21  and  O6_22 
REMARK    9  A    between atoms: C12_24  and  O7_25 
REMARK   10  A    between atoms: C12_24  and  C13_27 
REMARK   11  A    between atoms: C13_27  and  O8_28 
REMARK   12  A    between atoms: C14_30  and  O9_31 
REMARK   13  A    between atoms: O9_31  and  N2_32 
REMARK   14  A    between atoms: N2_32  and  O10_36 
ROOT
HETATM    1  C8  UNL     1      32.974  15.385 -33.812  1.00  0.00     0.399 C 
HETATM    2  O3  UNL     1      34.340  15.573 -33.917  1.00  0.00    -0.313 OA
HETATM    3  C9  UNL     1      35.087  14.555 -33.357  1.00  0.00     0.215 C 
HETATM    4  C11 UNL     1      34.671  13.180 -33.713  1.00  0.00     0.222 C 
HETATM    5  C12 UNL     1      33.173  12.992 -33.675  1.00  0.00     0.142 C 
HETATM    6  C14 UNL     1      32.591  14.121 -34.541  1.00  0.00     0.255 C 
ENDROOT
BRANCH   1   7
HETATM    7  N1  UNL     1      32.291  16.562 -34.181  1.00  0.00     0.146 N 
HETATM    8  C6  UNL     1      32.918  17.808 -34.482  1.00  0.00     0.300 A 
HETATM    9  C3  UNL     1      32.290  19.104 -34.015  1.00  0.00     0.171 C 
HETATM   10  C7  UNL     1      32.194  17.077 -35.502  1.00  0.00     0.329 A 
HETATM   11  O2  UNL     1      30.973  18.994 -33.659  1.00  0.00    -0.344 OA
HETATM   12  C2  UNL     1      30.078  18.957 -34.699  1.00  0.00     0.327 C 
HETATM   13  S2  UNL     1      30.574  17.748 -35.944  1.00  0.00    -0.071 SA
BRANCH   9  14
HETATM   14  C4  UNL     1      32.524  20.219 -35.008  1.00  0.00     0.108 C 
BRANCH  14  15
HETATM   15  S1  UNL     1      34.169  20.116 -35.754  1.00  0.00    -0.171 SA
HETATM   16  C5  UNL     1      34.055  19.900 -37.547  1.00  0.00     0.089 C 
ENDBRANCH  14  15
ENDBRANCH   9  14
BRANCH  12  17
HETATM   17  O1  UNL     1      28.834  18.559 -34.205  1.00  0.00    -0.357 OA
HETATM   18  C1  UNL     1      28.755  17.169 -34.084  1.00  0.00     0.206 C 
ENDBRANCH  12  17
ENDBRANCH   1   7
BRANCH   6  19
HETATM   19  O9  UNL     1      33.230  14.001 -35.790  1.00  0.00    -0.226 OA
BRANCH  19  20
HETATM   20  N2  UNL     1      32.571  13.696 -36.947  1.00  0.00    -0.061 N 
HETATM   21  N3  UNL     1      31.351  13.953 -37.156  1.00  0.00    -0.298 N 
ATOM     22  H32 UNL     1      30.869  14.415 -36.385  1.00  0.00     0.181 HD
ATOM     23  H31 UNL     1      30.859  13.725 -38.020  1.00  0.00     0.181 HD
BRANCH  20  24
HETATM   24  O10 UNL     1      33.228  13.066 -37.998  1.00  0.00    -0.248 OA
ATOM     25  H10 UNL     1      32.786  12.413 -38.526  1.00  0.00     0.249 HD
ENDBRANCH  20  24
ENDBRANCH  19  20
ENDBRANCH   6  19
BRANCH   3  26
HETATM   26  O4  UNL     1      35.134  14.654 -31.955  1.00  0.00    -0.362 OA
ATOM     27  H4  UNL     1      34.674  13.937 -31.536  1.00  0.00     0.213 HD
ENDBRANCH   3  26
BRANCH   3  28
HETATM   28  C10 UNL     1      36.514  14.758 -33.828  1.00  0.00     0.235 C 
BRANCH  28  29
HETATM   29  O5  UNL     1      37.369  13.888 -33.179  1.00  0.00    -0.395 OA
ATOM     30  H5  UNL     1      38.097  14.360 -32.794  1.00  0.00     0.209 HD
ENDBRANCH  28  29
ENDBRANCH   3  28
BRANCH   5  31
HETATM   31  O7  UNL     1      32.721  13.213 -32.398  1.00  0.00    -0.382 OA
ATOM     32  H7  UNL     1      32.151  12.498 -32.139  1.00  0.00     0.210 HD
ENDBRANCH   5  31
BRANCH   5  33
HETATM   33  C13 UNL     1      32.740  11.644 -34.119  1.00  0.00     0.207 C 
BRANCH  33  34
HETATM   34  O8  UNL     1      31.492  11.760 -34.761  1.00  0.00    -0.398 OA
ATOM     35  H8  UNL     1      30.816  11.450 -34.170  1.00  0.00     0.209 HD
ENDBRANCH  33  34
ENDBRANCH   5  33
BRANCH   4  36
HETATM   36  O6  UNL     1      35.235  12.788 -34.900  1.00  0.00    -0.387 OA
ATOM     37  H6  UNL     1      36.061  12.342 -34.754  1.00  0.00     0.210 HD
ENDBRANCH   4  36
TORSDOF 14
ENDMDL
MODEL 5
REMARK VINA RESULT: -6.842612440      2.908      6.123
REMARK  14 active torsions:
REMARK  status: ('A' for Active; 'I' for Inactive)
REMARK    1  A    between atoms: O1_2  and  C2_3 
REMARK    2  A    between atoms: C3_5  and  C4_6 
REMARK    3  A    between atoms: C4_6  and  S1_7 
REMARK    4  A    between atoms: N1_12  and  C8_13 
REMARK    5  A    between atoms: C9_15  and  O4_16 
REMARK    6  A    between atoms: C9_15  and  C10_18 
REMARK    7  A    between atoms: C10_18  and  O5_19 
REMARK    8  A    between atoms: C11_21  and  O6_22 
REMARK    9  A    between atoms: C12_24  and  O7_25 
REMARK   10  A    between atoms: C12_24  and  C13_27 
REMARK   11  A    between atoms: C13_27  and  O8_28 
REMARK   12  A    between atoms: C14_30  and  O9_31 
REMARK   13  A    between atoms: O9_31  and  N2_32 
REMARK   14  A    between atoms: N2_32  and  O10_36 
ROOT
HETATM    1  C8  UNL     1      32.408  16.651 -35.354  1.00  0.00     0.399 C 
HETATM    2  O3  UNL     1      31.299  16.499 -34.542  1.00  0.00    -0.313 OA
HETATM    3  C9  UNL     1      30.305  17.427 -34.778  1.00  0.00     0.215 C 
HETATM    4  C11 UNL     1      29.946  17.642 -36.198  1.00  0.00     0.222 C 
HETATM    5  C12 UNL     1      31.155  17.732 -37.100  1.00  0.00     0.142 C 
HETATM    6  C14 UNL     1      31.994  16.480 -36.794  1.00  0.00     0.255 C 
ENDROOT
BRANCH   1   7
HETATM    7  N1  UNL     1      33.463  15.836 -34.896  1.00  0.00     0.146 N 
HETATM    8  C6  UNL     1      34.589  16.301 -34.153  1.00  0.00     0.300 A 
HETATM    9  C3  UNL     1      35.966  15.740 -34.434  1.00  0.00     0.171 C 
HETATM   10  C7  UNL     1      33.634  15.387 -33.559  1.00  0.00     0.329 A 
HETATM   11  O2  UNL     1      35.961  14.559 -35.128  1.00  0.00    -0.344 OA
HETATM   12  C2  UNL     1      35.675  13.438 -34.389  1.00  0.00     0.327 C 
HETATM   13  S2  UNL     1      34.190  13.674 -33.392  1.00  0.00    -0.071 SA
BRANCH   9  14
HETATM   14  C4  UNL     1      36.797  15.659 -33.174  1.00  0.00     0.108 C 
BRANCH  14  15
HETATM   15  S1  UNL     1      38.167  16.841 -33.199  1.00  0.00    -0.171 SA
HETATM   16  C5  UNL     1      37.555  18.541 -33.293  1.00  0.00     0.089 C 
ENDBRANCH  14  15
ENDBRANCH   9  14
BRANCH  12  17
HETATM   17  O1  UNL     1      35.426  12.378 -35.264  1.00  0.00    -0.357 OA
HETATM   18  C1  UNL     1      34.147  11.848 -35.070  1.00  0.00     0.206 C 
ENDBRANCH  12  17
ENDBRANCH   1   7
BRANCH   6  19
HETATM   19  O9  UNL     1      31.122  15.390 -36.982  1.00  0.00    -0.226 OA
BRANCH  19  20
HETATM   20  N2  UNL     1      31.445  14.103 -36.657  1.00  0.00    -0.061 N 
HETATM   21  N3  UNL     1      32.234  13.380 -37.328  1.00  0.00    -0.298 N 
ATOM     22  H32 UNL     1      32.631  13.826 -38.156  1.00  0.00     0.181 HD
ATOM     23  H31 UNL     1      32.476  12.420 -37.086  1.00  0.00     0.181 HD
BRANCH  20  24
HETATM   24  O10 UNL     1      30.905  13.496 -35.529  1.00  0.00    -0.248 OA
ATOM     25  H10 UNL     1      31.396  12.843 -35.045  1.00  0.00     0.249 HD
ENDBRANCH  20  24
ENDBRANCH  19  20
ENDBRANCH   6  19
BRANCH   3  26
HETATM   26  O4  UNL     1      30.610  18.675 -34.205  1.00  0.00    -0.362 OA
ATOM     27  H4  UNL     1      30.936  19.289 -34.852  1.00  0.00     0.213 HD
ENDBRANCH   3  26
BRANCH   3  28
HETATM   28  C10 UNL     1      29.072  16.934 -34.046  1.00  0.00     0.235 C 
BRANCH  28  29
HETATM   29  O5  UNL     1      29.005  15.554 -34.079  1.00  0.00    -0.395 OA
ATOM     30  H5  UNL     1      29.715  15.173 -33.576  1.00  0.00     0.209 HD
ENDBRANCH  28  29
ENDBRANCH   3  28
BRANCH   5  31
HETATM   31  O7  UNL     1      31.920  18.809 -36.728  1.00  0.00    -0.382 OA
ATOM     32  H7  UNL     1      31.974  18.844 -35.780  1.00  0.00     0.210 HD
ENDBRANCH   5  31
BRANCH   5  33
HETATM   33  C13 UNL     1      30.806  17.854 -38.537  1.00  0.00     0.207 C 
BRANCH  33  34
HETATM   34  O8  UNL     1      31.445  16.819 -39.246  1.00  0.00    -0.398 OA
ATOM     35  H8  UNL     1      31.524  16.063 -38.676  1.00  0.00     0.209 HD
ENDBRANCH  33  34
ENDBRANCH   5  33
BRANCH   4  36
HETATM   36  O6  UNL     1      29.026  16.717 -36.618  1.00  0.00    -0.387 OA
ATOM     37  H6  UNL     1      29.434  16.053 -37.161  1.00  0.00     0.210 HD
ENDBRANCH   4  36
TORSDOF 14
ENDMDL
