MODEL 1
REMARK VINA RESULT: -8.988738502      0.000      0.000
REMARK  9 active torsions:
REMARK  status: ('A' for Active; 'I' for Inactive)
REMARK    1  A    between atoms: N1_1  and  C1_4 
REMARK    2  A    between atoms: C3_10  and  N4_11 
REMARK       I    between atoms: N5_14  and  C6_15 
REMARK    3  A    between atoms: C6_15  and  C7_17 
REMARK    4  A    between atoms: C7_17  and  N6_18 
REMARK    5  A    between atoms: N12_34  and  N13_35 
REMARK    6  A    between atoms: N13_35  and  C13_37 
REMARK    7  A    between atoms: C13_37  and  C14_38 
REMARK    8  A    between atoms: C14_38  and  C15_39 
REMARK    9  A    between atoms: N14_40  and  O3_42 
ROOT
HETATM    1  C1  UNL     1      32.510  12.425 -34.462  1.00  0.00     0.714 A 
HETATM    2  N2  UNL     1      31.261  12.823 -34.860  1.00  0.00    -0.170 N 
ATOM      3  H2  UNL     1      30.688  12.172 -35.398  1.00  0.00     0.186 HD
HETATM    4  C2  UNL     1      30.759  14.031 -34.574  1.00  0.00     0.182 A 
HETATM    5  N3  UNL     1      29.603  14.668 -34.829  1.00  0.00    -0.172 N 
ATOM      6  H3  UNL     1      28.814  14.284 -35.349  1.00  0.00     0.186 HD
HETATM    7  C3  UNL     1      29.657  15.888 -34.287  1.00  0.00     0.683 A 
HETATM    8  N10 UNL     1      30.855  16.009 -33.692  1.00  0.00    -0.171 N 
ATOM      9  H10 UNL     1      31.177  16.840 -33.194  1.00  0.00     0.186 HD
HETATM   10  C12 UNL     1      31.579  14.870 -33.846  1.00  0.00     0.183 A 
HETATM   11  N11 UNL     1      32.779  14.460 -33.477  1.00  0.00    -0.246 N 
ATOM     12  H11 UNL     1      33.357  15.107 -32.940  1.00  0.00     0.191 HD
HETATM   13  N12 UNL     1      33.298  13.240 -33.761  1.00  0.00    -0.023 N 
ENDROOT
BRANCH   7  14
HETATM   14  N4  UNL     1      28.623  16.897 -34.331  1.00  0.00    -0.214 N 
HETATM   15  C4  UNL     1      27.632  16.777 -35.360  1.00  0.00     0.161 C 
HETATM   16  C5  UNL     1      27.075  18.096 -35.775  1.00  0.00     0.146 C 
HETATM   17  N5  UNL     1      26.860  18.857 -34.533  1.00  0.00    -0.348 N 
HETATM   18  C6  UNL     1      25.587  19.158 -34.064  1.00  0.00     0.239 C 
HETATM   19  C10 UNL     1      28.052  19.253 -33.853  1.00  0.00     0.146 C 
HETATM   20  O1  UNL     1      24.539  18.773 -34.700  1.00  0.00    -0.271 OA
HETATM   21  C11 UNL     1      28.674  17.944 -33.330  1.00  0.00     0.161 C 
BRANCH  18  22
HETATM   22  C7  UNL     1      25.365  19.924 -32.825  1.00  0.00     0.257 C 
BRANCH  22  23
HETATM   23  N6  UNL     1      24.941  21.264 -33.199  1.00  0.00    -0.231 N 
HETATM   24  N7  UNL     1      23.924  21.682 -33.926  1.00  0.00    -0.267 N 
HETATM   25  C8  UNL     1      23.925  23.022 -34.010  1.00  0.00     0.211 A 
ATOM     26  H7  UNL     1      23.233  21.072 -34.364  1.00  0.00     0.190 HD
HETATM   27  N8  UNL     1      22.977  23.839 -34.715  1.00  0.00    -0.062 NA
HETATM   28  N9  UNL     1      24.984  23.458 -33.307  1.00  0.00    -0.280 N 
HETATM   29  C9  UNL     1      25.602  22.381 -32.814  1.00  0.00     0.344 A 
ATOM     30  H9  UNL     1      25.264  24.430 -33.175  1.00  0.00     0.173 HD
HETATM   31  O2  UNL     1      26.640  22.402 -32.099  1.00  0.00    -0.245 OA
ENDBRANCH  22  23
ENDBRANCH  18  22
ENDBRANCH   7  14
BRANCH   1  32
HETATM   32  N1  UNL     1      32.904  11.234 -34.751  1.00  0.00    -0.231 N 
ATOM     33  H12 UNL     1      32.236  10.540 -35.085  1.00  0.00     0.174 HD
ATOM     34  H11 UNL     1      33.895  11.008 -34.662  1.00  0.00     0.174 HD
ENDBRANCH   1  32
BRANCH  13  35
HETATM   35  N13 UNL     1      34.590  12.966 -33.337  1.00  0.00    -0.300 N 
ATOM     36  H13 UNL     1      34.690  12.188 -32.686  1.00  0.00     0.182 HD
BRANCH  35  37
HETATM   37  C13 UNL     1      35.786  13.630 -33.692  1.00  0.00     0.147 C 
BRANCH  37  38
HETATM   38  C14 UNL     1      36.163  14.812 -32.817  1.00  0.00     0.067 C 
BRANCH  38  39
HETATM   39  C15 UNL     1      37.640  14.855 -32.800  1.00  0.00     0.088 C 
HETATM   40  N14 UNL     1      38.287  13.878 -32.296  1.00  0.00    -0.284 N 
ATOM     41  H14 UNL     1      37.752  13.095 -31.919  1.00  0.00     0.192 HD
BRANCH  40  42
HETATM   42  O3  UNL     1      39.655  13.814 -32.228  1.00  0.00    -0.291 OA
ATOM     43  H3  UNL     1      40.162  13.033 -32.419  1.00  0.00     0.244 HD
ENDBRANCH  40  42
ENDBRANCH  38  39
ENDBRANCH  37  38
ENDBRANCH  35  37
ENDBRANCH  13  35
TORSDOF 9
ENDMDL
MODEL 2
REMARK VINA RESULT: -8.950967145      1.535      2.075
REMARK  9 active torsions:
REMARK  status: ('A' for Active; 'I' for Inactive)
REMARK    1  A    between atoms: N1_1  and  C1_4 
REMARK    2  A    between atoms: C3_10  and  N4_11 
REMARK       I    between atoms: N5_14  and  C6_15 
REMARK    3  A    between atoms: C6_15  and  C7_17 
REMARK    4  A    between atoms: C7_17  and  N6_18 
REMARK    5  A    between atoms: N12_34  and  N13_35 
REMARK    6  A    between atoms: N13_35  and  C13_37 
REMARK    7  A    between atoms: C13_37  and  C14_38 
REMARK    8  A    between atoms: C14_38  and  C15_39 
REMARK    9  A    between atoms: N14_40  and  O3_42 
ROOT
HETATM    1  C1  UNL     1      31.879  12.784 -34.674  1.00  0.00     0.714 A 
HETATM    2  N2  UNL     1      30.705  13.345 -35.103  1.00  0.00    -0.170 N 
ATOM      3  H2  UNL     1      30.125  12.821 -35.760  1.00  0.00     0.186 HD
HETATM    4  C2  UNL     1      30.285  14.550 -34.699  1.00  0.00     0.182 A 
HETATM    5  N3  UNL     1      29.212  15.319 -34.949  1.00  0.00    -0.172 N 
ATOM      6  H3  UNL     1      28.439  15.078 -35.569  1.00  0.00     0.186 HD
HETATM    7  C3  UNL     1      29.325  16.453 -34.251  1.00  0.00     0.683 A 
HETATM    8  N10 UNL     1      30.476  16.386 -33.562  1.00  0.00    -0.171 N 
ATOM      9  H10 UNL     1      30.825  17.115 -32.939  1.00  0.00     0.186 HD
HETATM   10  C12 UNL     1      31.111  15.211 -33.812  1.00  0.00     0.183 A 
HETATM   11  N11 UNL     1      32.238  14.648 -33.416  1.00  0.00    -0.246 N 
ATOM     12  H11 UNL     1      32.823  15.167 -32.760  1.00  0.00     0.191 HD
HETATM   13  N12 UNL     1      32.673  13.429 -33.820  1.00  0.00    -0.023 N 
ENDROOT
BRANCH   7  14
HETATM   14  N4  UNL     1      28.387  17.553 -34.236  1.00  0.00    -0.214 N 
HETATM   15  C4  UNL     1      28.438  18.444 -33.115  1.00  0.00     0.161 C 
HETATM   16  C5  UNL     1      27.115  19.062 -32.814  1.00  0.00     0.146 C 
HETATM   17  N5  UNL     1      26.534  19.435 -34.115  1.00  0.00    -0.348 N 
HETATM   18  C6  UNL     1      26.378  20.761 -34.499  1.00  0.00     0.239 C 
HETATM   19  C10 UNL     1      26.153  18.336 -34.944  1.00  0.00     0.146 C 
HETATM   20  O1  UNL     1      26.744  21.721 -33.728  1.00  0.00    -0.271 OA
HETATM   21  C11 UNL     1      27.476  17.663 -35.358  1.00  0.00     0.161 C 
BRANCH  18  22
HETATM   22  C7  UNL     1      25.793  21.141 -35.797  1.00  0.00     0.257 C 
BRANCH  22  23
HETATM   23  N6  UNL     1      24.367  21.350 -35.600  1.00  0.00    -0.231 N 
HETATM   24  N7  UNL     1      23.361  20.498 -35.563  1.00  0.00    -0.267 N 
HETATM   25  C8  UNL     1      22.204  21.146 -35.355  1.00  0.00     0.211 A 
ATOM     26  H7  UNL     1      23.450  19.488 -35.676  1.00  0.00     0.190 HD
HETATM   27  N8  UNL     1      20.896  20.559 -35.256  1.00  0.00    -0.062 NA
HETATM   28  N9  UNL     1      22.498  22.454 -35.259  1.00  0.00    -0.280 N 
HETATM   29  C9  UNL     1      23.821  22.573 -35.409  1.00  0.00     0.344 A 
ATOM     30  H9  UNL     1      21.836  23.213 -35.101  1.00  0.00     0.173 HD
HETATM   31  O2  UNL     1      24.460  23.659 -35.377  1.00  0.00    -0.245 OA
ENDBRANCH  22  23
ENDBRANCH  18  22
ENDBRANCH   7  14
BRANCH   1  32
HETATM   32  N1  UNL     1      32.193  11.606 -35.087  1.00  0.00    -0.231 N 
ATOM     33  H12 UNL     1      31.539  11.072 -35.659  1.00  0.00     0.174 HD
ATOM     34  H11 UNL     1      33.112  11.231 -34.852  1.00  0.00     0.174 HD
ENDBRANCH   1  32
BRANCH  13  35
HETATM   35  N13 UNL     1      33.899  12.984 -33.345  1.00  0.00    -0.300 N 
ATOM     36  H13 UNL     1      33.870  12.176 -32.724  1.00  0.00     0.182 HD
BRANCH  35  37
HETATM   37  C13 UNL     1      35.183  13.511 -33.613  1.00  0.00     0.147 C 
BRANCH  37  38
HETATM   38  C14 UNL     1      35.785  14.359 -32.507  1.00  0.00     0.067 C 
BRANCH  38  39
HETATM   39  C15 UNL     1      37.218  14.506 -32.837  1.00  0.00     0.088 C 
HETATM   40  N14 UNL     1      38.086  13.872 -32.150  1.00  0.00    -0.284 N 
ATOM     41  H14 UNL     1      37.752  13.280 -31.389  1.00  0.00     0.192 HD
BRANCH  40  42
HETATM   42  O3  UNL     1      39.438  13.936 -32.370  1.00  0.00    -0.291 OA
ATOM     43  H3  UNL     1      39.957  14.725 -32.271  1.00  0.00     0.244 HD
ENDBRANCH  40  42
ENDBRANCH  38  39
ENDBRANCH  37  38
ENDBRANCH  35  37
ENDBRANCH  13  35
TORSDOF 9
ENDMDL
MODEL 3
REMARK VINA RESULT: -8.922907127      2.593     10.940
REMARK  9 active torsions:
REMARK  status: ('A' for Active; 'I' for Inactive)
REMARK    1  A    between atoms: N1_1  and  C1_4 
REMARK    2  A    between atoms: C3_10  and  N4_11 
REMARK       I    between atoms: N5_14  and  C6_15 
REMARK    3  A    between atoms: C6_15  and  C7_17 
REMARK    4  A    between atoms: C7_17  and  N6_18 
REMARK    5  A    between atoms: N12_34  and  N13_35 
REMARK    6  A    between atoms: N13_35  and  C13_37 
REMARK    7  A    between atoms: C13_37  and  C14_38 
REMARK    8  A    between atoms: C14_38  and  C15_39 
REMARK    9  A    between atoms: N14_40  and  O3_42 
ROOT
HETATM    1  C1  UNL     1      26.201  16.927 -36.037  1.00  0.00     0.714 A 
HETATM    2  N2  UNL     1      26.942  15.779 -35.944  1.00  0.00    -0.170 N 
ATOM      3  H2  UNL     1      26.484  14.886 -36.125  1.00  0.00     0.186 HD
HETATM    4  C2  UNL     1      28.243  15.779 -35.627  1.00  0.00     0.182 A 
HETATM    5  N3  UNL     1      29.186  14.834 -35.469  1.00  0.00    -0.172 N 
ATOM      6  H3  UNL     1      29.046  13.830 -35.582  1.00  0.00     0.186 HD
HETATM    7  C3  UNL     1      30.337  15.427 -35.140  1.00  0.00     0.683 A 
HETATM    8  N10 UNL     1      30.107  16.749 -35.094  1.00  0.00    -0.171 N 
ATOM      9  H10 UNL     1      30.809  17.454 -34.867  1.00  0.00     0.186 HD
HETATM   10  C12 UNL     1      28.809  17.016 -35.392  1.00  0.00     0.183 A 
HETATM   11  N11 UNL     1      28.070  18.107 -35.487  1.00  0.00    -0.246 N 
ATOM     12  H11 UNL     1      28.522  19.003 -35.307  1.00  0.00     0.191 HD
HETATM   13  N12 UNL     1      26.752  18.119 -35.807  1.00  0.00    -0.023 N 
ENDROOT
BRANCH   7  14
HETATM   14  N4  UNL     1      31.599  14.772 -34.879  1.00  0.00    -0.214 N 
HETATM   15  C4  UNL     1      32.382  14.379 -36.013  1.00  0.00     0.161 C 
HETATM   16  C5  UNL     1      33.231  13.186 -35.737  1.00  0.00     0.146 C 
HETATM   17  N5  UNL     1      33.802  13.394 -34.395  1.00  0.00    -0.348 N 
HETATM   18  C6  UNL     1      35.156  13.639 -34.201  1.00  0.00     0.239 C 
HETATM   19  C10 UNL     1      32.863  13.330 -33.321  1.00  0.00     0.146 C 
HETATM   20  O1  UNL     1      35.967  13.701 -35.195  1.00  0.00    -0.271 OA
HETATM   21  C11 UNL     1      31.968  14.572 -33.491  1.00  0.00     0.161 C 
BRANCH  18  22
HETATM   22  C7  UNL     1      35.736  13.843 -32.861  1.00  0.00     0.257 C 
BRANCH  22  23
HETATM   23  N6  UNL     1      36.647  14.974 -32.937  1.00  0.00    -0.231 N 
HETATM   24  N7  UNL     1      36.456  16.219 -33.325  1.00  0.00    -0.267 N 
HETATM   25  C8  UNL     1      37.596  16.922 -33.228  1.00  0.00     0.211 A 
ATOM     26  H7  UNL     1      35.566  16.596 -33.653  1.00  0.00     0.190 HD
HETATM   27  N8  UNL     1      37.782  18.307 -33.560  1.00  0.00    -0.062 NA
HETATM   28  N9  UNL     1      38.536  16.082 -32.761  1.00  0.00    -0.280 N 
HETATM   29  C9  UNL     1      37.952  14.893 -32.585  1.00  0.00     0.344 A 
ATOM     30  H9  UNL     1      39.513  16.310 -32.576  1.00  0.00     0.173 HD
HETATM   31  O2  UNL     1      38.528  13.857 -32.156  1.00  0.00    -0.245 OA
ENDBRANCH  22  23
ENDBRANCH  18  22
ENDBRANCH   7  14
BRANCH   1  32
HETATM   32  N1  UNL     1      24.963  16.843 -36.380  1.00  0.00    -0.231 N 
ATOM     33  H12 UNL     1      24.231  17.133 -35.732  1.00  0.00     0.174 HD
ATOM     34  H11 UNL     1      24.733  16.504 -37.314  1.00  0.00     0.174 HD
ENDBRANCH   1  32
BRANCH  13  35
HETATM   35  N13 UNL     1      26.099  19.343 -35.832  1.00  0.00    -0.300 N 
ATOM     36  H13 UNL     1      25.902  19.725 -36.757  1.00  0.00     0.182 HD
BRANCH  35  37
HETATM   37  C13 UNL     1      25.672  20.129 -34.737  1.00  0.00     0.147 C 
BRANCH  37  38
HETATM   38  C14 UNL     1      24.522  19.555 -33.931  1.00  0.00     0.067 C 
BRANCH  38  39
HETATM   39  C15 UNL     1      23.311  19.734 -34.760  1.00  0.00     0.088 C 
HETATM   40  N14 UNL     1      22.423  18.819 -34.773  1.00  0.00    -0.284 N 
ATOM     41  H14 UNL     1      22.585  17.987 -34.204  1.00  0.00     0.192 HD
BRANCH  40  42
HETATM   42  O3  UNL     1      21.264  18.881 -35.505  1.00  0.00    -0.291 OA
ATOM     43  H3  UNL     1      20.400  18.711 -35.149  1.00  0.00     0.244 HD
ENDBRANCH  40  42
ENDBRANCH  38  39
ENDBRANCH  37  38
ENDBRANCH  35  37
ENDBRANCH  13  35
TORSDOF 9
ENDMDL
MODEL 4
REMARK VINA RESULT: -8.669284091      2.515     10.104
REMARK  9 active torsions:
REMARK  status: ('A' for Active; 'I' for Inactive)
REMARK    1  A    between atoms: N1_1  and  C1_4 
REMARK    2  A    between atoms: C3_10  and  N4_11 
REMARK       I    between atoms: N5_14  and  C6_15 
REMARK    3  A    between atoms: C6_15  and  C7_17 
REMARK    4  A    between atoms: C7_17  and  N6_18 
REMARK    5  A    between atoms: N12_34  and  N13_35 
REMARK    6  A    between atoms: N13_35  and  C13_37 
REMARK    7  A    between atoms: C13_37  and  C14_38 
REMARK    8  A    between atoms: C14_38  and  C15_39 
REMARK    9  A    between atoms: N14_40  and  O3_42 
ROOT
HETATM    1  C1  UNL     1      26.387  17.463 -35.412  1.00  0.00     0.714 A 
HETATM    2  N2  UNL     1      27.140  16.375 -35.764  1.00  0.00    -0.170 N 
ATOM      3  H2  UNL     1      26.735  15.684 -36.397  1.00  0.00     0.186 HD
HETATM    4  C2  UNL     1      28.385  16.178 -35.314  1.00  0.00     0.182 A 
HETATM    5  N3  UNL     1      29.323  15.231 -35.488  1.00  0.00    -0.172 N 
ATOM      6  H3  UNL     1      29.227  14.398 -36.070  1.00  0.00     0.186 HD
HETATM    7  C3  UNL     1      30.403  15.560 -34.772  1.00  0.00     0.683 A 
HETATM    8  N10 UNL     1      30.133  16.719 -34.150  1.00  0.00    -0.171 N 
ATOM      9  H10 UNL     1      30.777  17.212 -33.532  1.00  0.00     0.186 HD
HETATM   10  C12 UNL     1      28.880  17.143 -34.461  1.00  0.00     0.183 A 
HETATM   11  N11 UNL     1      28.131  18.182 -34.137  1.00  0.00    -0.246 N 
ATOM     12  H11 UNL     1      28.530  18.876 -33.504  1.00  0.00     0.191 HD
HETATM   13  N12 UNL     1      26.869  18.392 -34.586  1.00  0.00    -0.023 N 
ENDROOT
BRANCH   7  14
HETATM   14  N4  UNL     1      31.635  14.810 -34.679  1.00  0.00    -0.214 N 
HETATM   15  C4  UNL     1      32.289  14.466 -35.907  1.00  0.00     0.161 C 
HETATM   16  C5  UNL     1      33.076  13.204 -35.802  1.00  0.00     0.146 C 
HETATM   17  N5  UNL     1      33.774  13.265 -34.506  1.00  0.00    -0.348 N 
HETATM   18  C6  UNL     1      35.152  13.411 -34.419  1.00  0.00     0.239 C 
HETATM   19  C10 UNL     1      32.928  13.170 -33.359  1.00  0.00     0.146 C 
HETATM   20  O1  UNL     1      35.877  13.505 -35.475  1.00  0.00    -0.271 OA
HETATM   21  C11 UNL     1      32.108  14.474 -33.350  1.00  0.00     0.161 C 
BRANCH  18  22
HETATM   22  C7  UNL     1      35.858  13.467 -33.126  1.00  0.00     0.257 C 
BRANCH  22  23
HETATM   23  N6  UNL     1      36.624  14.703 -33.089  1.00  0.00    -0.231 N 
HETATM   24  N7  UNL     1      36.314  15.929 -33.463  1.00  0.00    -0.267 N 
HETATM   25  C8  UNL     1      37.344  16.762 -33.244  1.00  0.00     0.211 A 
ATOM     26  H7  UNL     1      35.417  16.205 -33.862  1.00  0.00     0.190 HD
HETATM   27  N8  UNL     1      37.384  18.170 -33.524  1.00  0.00    -0.062 NA
HETATM   28  N9  UNL     1      38.337  16.027 -32.714  1.00  0.00    -0.280 N 
HETATM   29  C9  UNL     1      37.892  14.770 -32.621  1.00  0.00     0.344 A 
ATOM     30  H9  UNL     1      39.257  16.366 -32.434  1.00  0.00     0.173 HD
HETATM   31  O2  UNL     1      38.553  13.797 -32.166  1.00  0.00    -0.245 OA
ENDBRANCH  22  23
ENDBRANCH  18  22
ENDBRANCH   7  14
BRANCH   1  32
HETATM   32  N1  UNL     1      25.209  17.595 -35.916  1.00  0.00    -0.231 N 
ATOM     33  H12 UNL     1      24.999  17.204 -36.834  1.00  0.00     0.174 HD
ATOM     34  H11 UNL     1      24.491  18.073 -35.372  1.00  0.00     0.174 HD
ENDBRANCH   1  32
BRANCH  13  35
HETATM   35  N13 UNL     1      26.192  19.513 -34.128  1.00  0.00    -0.300 N 
ATOM     36  H13 UNL     1      25.874  20.166 -34.844  1.00  0.00     0.182 HD
BRANCH  35  37
HETATM   37  C13 UNL     1      25.888  19.866 -32.794  1.00  0.00     0.147 C 
BRANCH  37  38
HETATM   38  C14 UNL     1      27.068  20.316 -31.952  1.00  0.00     0.067 C 
BRANCH  38  39
HETATM   39  C15 UNL     1      27.317  19.229 -30.981  1.00  0.00     0.088 C 
HETATM   40  N14 UNL     1      28.519  18.899 -30.709  1.00  0.00    -0.284 N 
ATOM     41  H14 UNL     1      29.271  19.405 -31.178  1.00  0.00     0.192 HD
BRANCH  40  42
HETATM   42  O3  UNL     1      28.863  17.907 -29.826  1.00  0.00    -0.291 OA
ATOM     43  H3  UNL     1      29.548  17.268 -29.984  1.00  0.00     0.244 HD
ENDBRANCH  40  42
ENDBRANCH  38  39
ENDBRANCH  37  38
ENDBRANCH  35  37
ENDBRANCH  13  35
TORSDOF 9
ENDMDL
MODEL 5
REMARK VINA RESULT: -8.652697351      2.489     11.024
REMARK  9 active torsions:
REMARK  status: ('A' for Active; 'I' for Inactive)
REMARK    1  A    between atoms: N1_1  and  C1_4 
REMARK    2  A    between atoms: C3_10  and  N4_11 
REMARK       I    between atoms: N5_14  and  C6_15 
REMARK    3  A    between atoms: C6_15  and  C7_17 
REMARK    4  A    between atoms: C7_17  and  N6_18 
REMARK    5  A    between atoms: N12_34  and  N13_35 
REMARK    6  A    between atoms: N13_35  and  C13_37 
REMARK    7  A    between atoms: C13_37  and  C14_38 
REMARK    8  A    between atoms: C14_38  and  C15_39 
REMARK    9  A    between atoms: N14_40  and  O3_42 
ROOT
HETATM    1  C1  UNL     1      26.866  19.237 -33.598  1.00  0.00     0.714 A 
HETATM    2  N2  UNL     1      28.063  18.730 -33.167  1.00  0.00    -0.170 N 
ATOM      3  H2  UNL     1      28.518  19.167 -32.365  1.00  0.00     0.186 HD
HETATM    4  C2  UNL     1      28.661  17.686 -33.753  1.00  0.00     0.182 A 
HETATM    5  N3  UNL     1      29.800  17.002 -33.549  1.00  0.00    -0.172 N 
ATOM      6  H3  UNL     1      30.484  17.190 -32.816  1.00  0.00     0.186 HD
HETATM    7  C3  UNL     1      29.889  16.033 -34.465  1.00  0.00     0.683 A 
HETATM    8  N10 UNL     1      28.797  16.116 -35.243  1.00  0.00    -0.171 N 
ATOM      9  H10 UNL     1      28.595  15.500 -36.030  1.00  0.00     0.186 HD
HETATM   10  C12 UNL     1      28.000  17.137 -34.834  1.00  0.00     0.183 A 
HETATM   11  N11 UNL     1      26.847  17.648 -35.229  1.00  0.00    -0.246 N 
ATOM     12  H11 UNL     1      26.387  17.216 -36.031  1.00  0.00     0.191 HD
HETATM   13  N12 UNL     1      26.232  18.705 -34.643  1.00  0.00    -0.023 N 
ENDROOT
BRANCH   7  14
HETATM   14  N4  UNL     1      30.960  15.071 -34.601  1.00  0.00    -0.214 N 
HETATM   15  C4  UNL     1      31.159  14.490 -35.896  1.00  0.00     0.161 C 
HETATM   16  C5  UNL     1      31.731  13.115 -35.824  1.00  0.00     0.146 C 
HETATM   17  N5  UNL     1      32.780  13.164 -34.791  1.00  0.00    -0.348 N 
HETATM   18  C6  UNL     1      34.128  13.046 -35.105  1.00  0.00     0.239 C 
HETATM   19  C10 UNL     1      32.305  13.345 -33.456  1.00  0.00     0.146 C 
HETATM   20  O1  UNL     1      34.516  12.896 -36.320  1.00  0.00    -0.271 OA
HETATM   21  C11 UNL     1      31.743  14.778 -33.417  1.00  0.00     0.161 C 
BRANCH  18  22
HETATM   22  C7  UNL     1      35.183  13.088 -34.075  1.00  0.00     0.257 C 
BRANCH  22  23
HETATM   23  N6  UNL     1      35.669  14.457 -33.991  1.00  0.00    -0.231 N 
HETATM   24  N7  UNL     1      35.195  15.580 -34.493  1.00  0.00    -0.267 N 
HETATM   25  C8  UNL     1      35.983  16.614 -34.157  1.00  0.00     0.211 A 
ATOM     26  H7  UNL     1      34.348  15.652 -35.057  1.00  0.00     0.190 HD
HETATM   27  N8  UNL     1      35.793  17.991 -34.518  1.00  0.00    -0.062 NA
HETATM   28  N9  UNL     1      36.988  16.117 -33.416  1.00  0.00    -0.280 N 
HETATM   29  C9  UNL     1      36.792  14.799 -33.318  1.00  0.00     0.344 A 
ATOM     30  H9  UNL     1      37.757  16.648 -33.006  1.00  0.00     0.173 HD
HETATM   31  O2  UNL     1      37.539  13.998 -32.692  1.00  0.00    -0.245 OA
ENDBRANCH  22  23
ENDBRANCH  18  22
ENDBRANCH   7  14
BRANCH   1  32
HETATM   32  N1  UNL     1      26.341  20.223 -32.958  1.00  0.00    -0.231 N 
ATOM     33  H12 UNL     1      26.904  20.766 -32.303  1.00  0.00     0.174 HD
ATOM     34  H11 UNL     1      25.366  20.463 -33.135  1.00  0.00     0.174 HD
ENDBRANCH   1  32
BRANCH  13  35
HETATM   35  N13 UNL     1      25.040  19.152 -35.195  1.00  0.00    -0.300 N 
ATOM     36  H13 UNL     1      25.124  19.861 -35.923  1.00  0.00     0.182 HD
BRANCH  35  37
HETATM   37  C13 UNL     1      23.723  18.750 -34.874  1.00  0.00     0.147 C 
BRANCH  37  38
HETATM   38  C14 UNL     1      22.900  19.765 -34.101  1.00  0.00     0.067 C 
BRANCH  38  39
HETATM   39  C15 UNL     1      21.627  19.907 -34.839  1.00  0.00     0.088 C 
HETATM   40  N14 UNL     1      21.609  20.568 -35.929  1.00  0.00    -0.284 N 
ATOM     41  H14 UNL     1      22.485  20.978 -36.254  1.00  0.00     0.192 HD
BRANCH  40  42
HETATM   42  O3  UNL     1      20.486  20.762 -36.692  1.00  0.00    -0.291 OA
ATOM     43  H3  UNL     1      20.407  21.430 -37.363  1.00  0.00     0.244 HD
ENDBRANCH  40  42
ENDBRANCH  38  39
ENDBRANCH  37  38
ENDBRANCH  35  37
ENDBRANCH  13  35
TORSDOF 9
ENDMDL
