MODEL 1
REMARK VINA RESULT: -7.936547715      0.000      0.000
REMARK  12 active torsions:
REMARK  status: ('A' for Active; 'I' for Inactive)
REMARK    1  A    between atoms: C2_2  and  N1_3 
REMARK    2  A    between atoms: C2_2  and  C15_40 
REMARK    3  A    between atoms: N1_3  and  C3_5 
REMARK    4  A    between atoms: C4_8  and  S1_9 
REMARK    5  A    between atoms: S1_9  and  C5_10 
REMARK    6  A    between atoms: C5_10  and  C6_11 
REMARK    7  A    between atoms: C6_11  and  C7_12 
REMARK    8  A    between atoms: C7_12  and  N3_13 
REMARK    9  A    between atoms: N3_13  and  C8_15 
REMARK   10  A    between atoms: C9_18  and  N5_19 
REMARK   11  A    between atoms: C15_40  and  O2_41 
REMARK   12  A    between atoms: C15_40  and  O3_43 
ROOT
HETATM    1  C3  UNL     1      35.618  17.290 -34.302  1.00  0.00     0.697 A 
HETATM    2  N2  UNL     1      35.040  16.111 -34.597  1.00  0.00    -0.167 N 
ATOM      3  H2  UNL     1      34.166  16.102 -35.121  1.00  0.00     0.186 HD
HETATM    4  C4  UNL     1      35.598  14.930 -34.208  1.00  0.00     0.198 A 
HETATM    5  N9  UNL     1      36.751  15.014 -33.516  1.00  0.00    -0.061 N 
HETATM    6  N10 UNL     1      37.527  14.077 -33.007  1.00  0.00    -0.273 N 
ATOM      7  H10 UNL     1      37.349  13.075 -33.069  1.00  0.00     0.189 HD
HETATM    8  C12 UNL     1      38.587  14.632 -32.395  1.00  0.00     0.216 A 
HETATM    9  N11 UNL     1      38.484  15.964 -32.517  1.00  0.00    -0.184 N 
ATOM     10  H11 UNL     1      39.131  16.666 -32.158  1.00  0.00     0.185 HD
HETATM   11  C13 UNL     1      37.343  16.184 -33.213  1.00  0.00     0.723 A 
HETATM   12  N12 UNL     1      36.772  17.342 -33.609  1.00  0.00    -0.017 N 
HETATM   13  C14 UNL     1      37.381  18.599 -33.300  1.00  0.00     0.195 C 
ENDROOT
BRANCH   4  14
HETATM   14  S1  UNL     1      34.855  13.368 -34.584  1.00  0.00    -0.091 SA
BRANCH  14  15
HETATM   15  C5  UNL     1      33.484  13.001 -33.422  1.00  0.00     0.084 C 
BRANCH  15  16
HETATM   16  C6  UNL     1      32.693  11.802 -33.960  1.00  0.00     0.030 C 
BRANCH  16  17
HETATM   17  C7  UNL     1      31.513  12.286 -34.770  1.00  0.00     0.122 C 
BRANCH  17  18
HETATM   18  N3  UNL     1      30.989  13.525 -34.327  1.00  0.00    -0.374 N 
ATOM     19  H3  UNL     1      31.462  13.926 -33.516  1.00  0.00     0.161 HD
BRANCH  18  20
HETATM   20  C8  UNL     1      30.029  14.213 -34.774  1.00  0.00     0.149 A 
HETATM   21  N4  UNL     1      29.229  13.676 -35.713  1.00  0.00    -0.175 N 
HETATM   22  C9  UNL     1      28.177  14.353 -36.241  1.00  0.00     0.679 A 
ATOM     23  H4  UNL     1      29.419  12.728 -36.040  1.00  0.00     0.186 HD
HETATM   24  N6  UNL     1      27.843  15.604 -35.882  1.00  0.00    -0.173 N 
HETATM   25  C10 UNL     1      28.575  16.219 -34.961  1.00  0.00     0.175 A 
ATOM     26  H6  UNL     1      27.043  16.071 -36.308  1.00  0.00     0.186 HD
HETATM   27  N7  UNL     1      28.599  17.415 -34.331  1.00  0.00    -0.223 N 
HETATM   28  C11 UNL     1      29.719  15.496 -34.378  1.00  0.00     0.147 A 
HETATM   29  O1  UNL     1      29.589  17.443 -33.494  1.00  0.00    -0.155 OA
ATOM     30  H7  UNL     1      27.940  18.177 -34.491  1.00  0.00     0.198 HD
HETATM   31  N8  UNL     1      30.260  16.331 -33.504  1.00  0.00    -0.234 N 
ATOM     32  H8  UNL     1      31.077  16.131 -32.927  1.00  0.00     0.197 HD
BRANCH  22  33
HETATM   33  N5  UNL     1      27.450  13.779 -37.138  1.00  0.00    -0.234 N 
ATOM     34  H52 UNL     1      27.392  14.227 -38.053  1.00  0.00     0.174 HD
ATOM     35  H51 UNL     1      26.969  12.911 -36.904  1.00  0.00     0.174 HD
ENDBRANCH  22  33
ENDBRANCH  18  20
ENDBRANCH  17  18
ENDBRANCH  16  17
ENDBRANCH  15  16
ENDBRANCH  14  15
ENDBRANCH   4  14
BRANCH   1  36
HETATM   36  N1  UNL     1      35.103  18.423 -34.664  1.00  0.00    -0.216 N 
ATOM     37  H1  UNL     1      35.586  19.301 -34.477  1.00  0.00     0.178 HD
BRANCH  36  38
HETATM   38  C2  UNL     1      33.825  18.408 -35.339  1.00  0.00     0.150 C 
HETATM   39  C1  UNL     1      33.780  19.405 -36.485  1.00  0.00     0.038 C 
BRANCH  38  40
HETATM   40  C15 UNL     1      32.705  18.825 -34.380  1.00  0.00     0.276 C 
BRANCH  40  41
HETATM   41  O2  UNL     1      32.611  17.943 -33.307  1.00  0.00    -0.369 OA
ATOM     42  H2  UNL     1      31.711  17.677 -33.162  1.00  0.00     0.212 HD
ENDBRANCH  40  41
BRANCH  40  43
HETATM   43  O3  UNL     1      31.479  18.791 -35.039  1.00  0.00    -0.369 OA
ATOM     44  H3  UNL     1      31.474  18.087 -35.676  1.00  0.00     0.212 HD
ENDBRANCH  40  43
ENDBRANCH  38  40
ENDBRANCH  36  38
ENDBRANCH   1  36
TORSDOF 12
ENDMDL
MODEL 2
REMARK VINA RESULT: -7.849654054      2.793      5.467
REMARK  12 active torsions:
REMARK  status: ('A' for Active; 'I' for Inactive)
REMARK    1  A    between atoms: C2_2  and  N1_3 
REMARK    2  A    between atoms: C2_2  and  C15_40 
REMARK    3  A    between atoms: N1_3  and  C3_5 
REMARK    4  A    between atoms: C4_8  and  S1_9 
REMARK    5  A    between atoms: S1_9  and  C5_10 
REMARK    6  A    between atoms: C5_10  and  C6_11 
REMARK    7  A    between atoms: C6_11  and  C7_12 
REMARK    8  A    between atoms: C7_12  and  N3_13 
REMARK    9  A    between atoms: N3_13  and  C8_15 
REMARK   10  A    between atoms: C9_18  and  N5_19 
REMARK   11  A    between atoms: C15_40  and  O2_41 
REMARK   12  A    between atoms: C15_40  and  O3_43 
ROOT
HETATM    1  C3  UNL     1      31.706  13.889 -34.419  1.00  0.00     0.697 A 
HETATM    2  N2  UNL     1      31.782  15.232 -34.380  1.00  0.00    -0.167 N 
ATOM      3  H2  UNL     1      30.974  15.786 -34.662  1.00  0.00     0.186 HD
HETATM    4  C4  UNL     1      32.917  15.868 -33.972  1.00  0.00     0.198 A 
HETATM    5  N9  UNL     1      33.948  15.076 -33.616  1.00  0.00    -0.061 N 
HETATM    6  N10 UNL     1      35.159  15.372 -33.184  1.00  0.00    -0.273 N 
ATOM      7  H10 UNL     1      35.516  16.318 -33.050  1.00  0.00     0.189 HD
HETATM    8  C12 UNL     1      35.857  14.248 -32.948  1.00  0.00     0.216 A 
HETATM    9  N11 UNL     1      35.067  13.203 -33.237  1.00  0.00    -0.184 N 
ATOM     10  H11 UNL     1      35.304  12.214 -33.163  1.00  0.00     0.185 HD
HETATM   11  C13 UNL     1      33.890  13.733 -33.649  1.00  0.00     0.723 A 
HETATM   12  N12 UNL     1      32.755  13.125 -34.056  1.00  0.00    -0.017 N 
HETATM   13  C14 UNL     1      32.667  11.697 -34.100  1.00  0.00     0.195 C 
ENDROOT
BRANCH   4  14
HETATM   14  S1  UNL     1      33.040  17.632 -33.913  1.00  0.00    -0.091 SA
BRANCH  14  15
HETATM   15  C5  UNL     1      31.946  18.405 -35.165  1.00  0.00     0.084 C 
BRANCH  15  16
HETATM   16  C6  UNL     1      30.869  19.221 -34.440  1.00  0.00     0.030 C 
BRANCH  16  17
HETATM   17  C7  UNL     1      29.956  18.298 -33.667  1.00  0.00     0.122 C 
BRANCH  17  18
HETATM   18  N3  UNL     1      28.859  17.818 -34.425  1.00  0.00    -0.374 N 
ATOM     19  H3  UNL     1      29.085  17.069 -35.080  1.00  0.00     0.161 HD
BRANCH  18  20
HETATM   20  C8  UNL     1      27.646  18.169 -34.418  1.00  0.00     0.149 A 
HETATM   21  N4  UNL     1      27.269  19.184 -33.618  1.00  0.00    -0.175 N 
HETATM   22  C9  UNL     1      25.985  19.618 -33.557  1.00  0.00     0.679 A 
ATOM     23  H4  UNL     1      27.973  19.642 -33.038  1.00  0.00     0.186 HD
HETATM   24  N6  UNL     1      24.985  19.083 -34.277  1.00  0.00    -0.173 N 
HETATM   25  C10 UNL     1      25.258  18.075 -35.096  1.00  0.00     0.175 A 
ATOM     26  H6  UNL     1      24.034  19.445 -34.197  1.00  0.00     0.186 HD
HETATM   27  N7  UNL     1      24.595  17.277 -35.963  1.00  0.00    -0.223 N 
HETATM   28  C11 UNL     1      26.648  17.593 -35.173  1.00  0.00     0.147 A 
HETATM   29  O1  UNL     1      25.424  16.436 -36.497  1.00  0.00    -0.155 OA
ATOM     30  H7  UNL     1      23.597  17.329 -36.166  1.00  0.00     0.198 HD
HETATM   31  N8  UNL     1      26.633  16.601 -36.050  1.00  0.00    -0.234 N 
ATOM     32  H8  UNL     1      27.445  16.051 -36.331  1.00  0.00     0.197 HD
BRANCH  22  33
HETATM   33  N5  UNL     1      25.692  20.597 -32.770  1.00  0.00    -0.234 N 
ATOM     34  H52 UNL     1      24.906  20.467 -32.132  1.00  0.00     0.174 HD
ATOM     35  H51 UNL     1      26.249  21.450 -32.812  1.00  0.00     0.174 HD
ENDBRANCH  22  33
ENDBRANCH  18  20
ENDBRANCH  17  18
ENDBRANCH  16  17
ENDBRANCH  15  16
ENDBRANCH  14  15
ENDBRANCH   4  14
BRANCH   1  36
HETATM   36  N1  UNL     1      30.636  13.267 -34.803  1.00  0.00    -0.216 N 
ATOM     37  H1  UNL     1      30.629  12.253 -34.906  1.00  0.00     0.178 HD
BRANCH  36  38
HETATM   38  C2  UNL     1      29.454  14.051 -35.080  1.00  0.00     0.150 C 
HETATM   39  C1  UNL     1      28.184  13.229 -34.932  1.00  0.00     0.038 C 
BRANCH  38  40
HETATM   40  C15 UNL     1      29.463  14.543 -36.532  1.00  0.00     0.276 C 
BRANCH  40  41
HETATM   41  O2  UNL     1      29.517  15.933 -36.588  1.00  0.00    -0.369 OA
ATOM     42  H2  UNL     1      28.694  16.294 -36.894  1.00  0.00     0.212 HD
ENDBRANCH  40  41
BRANCH  40  43
HETATM   43  O3  UNL     1      28.288  14.158 -37.171  1.00  0.00    -0.369 OA
ATOM     44  H3  UNL     1      27.633  14.840 -37.081  1.00  0.00     0.212 HD
ENDBRANCH  40  43
ENDBRANCH  38  40
ENDBRANCH  36  38
ENDBRANCH   1  36
TORSDOF 12
ENDMDL
MODEL 3
REMARK VINA RESULT: -7.744837303      3.361      6.310
REMARK  12 active torsions:
REMARK  status: ('A' for Active; 'I' for Inactive)
REMARK    1  A    between atoms: C2_2  and  N1_3 
REMARK    2  A    between atoms: C2_2  and  C15_40 
REMARK    3  A    between atoms: N1_3  and  C3_5 
REMARK    4  A    between atoms: C4_8  and  S1_9 
REMARK    5  A    between atoms: S1_9  and  C5_10 
REMARK    6  A    between atoms: C5_10  and  C6_11 
REMARK    7  A    between atoms: C6_11  and  C7_12 
REMARK    8  A    between atoms: C7_12  and  N3_13 
REMARK    9  A    between atoms: N3_13  and  C8_15 
REMARK   10  A    between atoms: C9_18  and  N5_19 
REMARK   11  A    between atoms: C15_40  and  O2_41 
REMARK   12  A    between atoms: C15_40  and  O3_43 
ROOT
HETATM    1  C3  UNL     1      30.671  14.052 -34.647  1.00  0.00     0.697 A 
HETATM    2  N2  UNL     1      30.499  15.373 -34.836  1.00  0.00    -0.167 N 
ATOM      3  H2  UNL     1      29.648  15.705 -35.289  1.00  0.00     0.186 HD
HETATM    4  C4  UNL     1      31.437  16.276 -34.435  1.00  0.00     0.198 A 
HETATM    5  N9  UNL     1      32.539  15.770 -33.846  1.00  0.00    -0.061 N 
HETATM    6  N10 UNL     1      33.610  16.363 -33.355  1.00  0.00    -0.273 N 
ATOM      7  H10 UNL     1      33.769  17.371 -33.354  1.00  0.00     0.189 HD
HETATM    8  C12 UNL     1      34.461  15.450 -32.858  1.00  0.00     0.216 A 
HETATM    9  N11 UNL     1      33.917  14.237 -33.037  1.00  0.00    -0.184 N 
ATOM     10  H11 UNL     1      34.316  13.339 -32.768  1.00  0.00     0.185 HD
HETATM   11  C13 UNL     1      32.728  14.453 -33.649  1.00  0.00     0.723 A 
HETATM   12  N12 UNL     1      31.784  13.576 -34.054  1.00  0.00    -0.017 N 
HETATM   13  C14 UNL     1      31.961  12.170 -33.856  1.00  0.00     0.195 C 
ENDROOT
BRANCH   4  14
HETATM   14  S1  UNL     1      31.232  18.018 -34.674  1.00  0.00    -0.091 SA
BRANCH  14  15
HETATM   15  C5  UNL     1      30.153  18.732 -33.374  1.00  0.00     0.084 C 
BRANCH  15  16
HETATM   16  C6  UNL     1      29.513  20.016 -33.918  1.00  0.00     0.030 C 
BRANCH  16  17
HETATM   17  C7  UNL     1      28.381  20.448 -33.016  1.00  0.00     0.122 C 
BRANCH  17  18
HETATM   18  N3  UNL     1      27.373  19.465 -32.857  1.00  0.00    -0.374 N 
ATOM     19  H3  UNL     1      27.444  18.912 -32.002  1.00  0.00     0.161 HD
BRANCH  18  20
HETATM   20  C8  UNL     1      26.401  19.164 -33.604  1.00  0.00     0.149 A 
HETATM   21  N4  UNL     1      25.216  19.768 -33.402  1.00  0.00    -0.175 N 
HETATM   22  C9  UNL     1      24.126  19.498 -34.165  1.00  0.00     0.679 A 
ATOM     23  H4  UNL     1      25.134  20.453 -32.650  1.00  0.00     0.186 HD
HETATM   24  N6  UNL     1      24.128  18.613 -35.176  1.00  0.00    -0.173 N 
HETATM   25  C10 UNL     1      25.253  17.964 -35.452  1.00  0.00     0.175 A 
ATOM     26  H6  UNL     1      23.283  18.444 -35.721  1.00  0.00     0.186 HD
HETATM   27  N7  UNL     1      25.686  17.036 -36.335  1.00  0.00    -0.223 N 
HETATM   28  C11 UNL     1      26.445  18.248 -34.633  1.00  0.00     0.147 A 
HETATM   29  O1  UNL     1      26.937  16.778 -36.112  1.00  0.00    -0.155 OA
ATOM     30  H7  UNL     1      25.117  16.606 -37.063  1.00  0.00     0.198 HD
HETATM   31  N8  UNL     1      27.404  17.476 -35.120  1.00  0.00    -0.234 N 
ATOM     32  H8  UNL     1      28.361  17.435 -34.770  1.00  0.00     0.197 HD
BRANCH  22  33
HETATM   33  N5  UNL     1      23.021  20.114 -33.918  1.00  0.00    -0.234 N 
ATOM     34  H52 UNL     1      22.659  20.066 -32.965  1.00  0.00     0.174 HD
ATOM     35  H51 UNL     1      22.557  20.620 -34.672  1.00  0.00     0.174 HD
ENDBRANCH  22  33
ENDBRANCH  18  20
ENDBRANCH  17  18
ENDBRANCH  16  17
ENDBRANCH  15  16
ENDBRANCH  14  15
ENDBRANCH   4  14
BRANCH   1  36
HETATM   36  N1  UNL     1      29.790  13.178 -35.021  1.00  0.00    -0.216 N 
ATOM     37  H1  UNL     1      30.071  12.242 -35.312  1.00  0.00     0.178 HD
BRANCH  36  38
HETATM   38  C2  UNL     1      28.398  13.566 -35.012  1.00  0.00     0.150 C 
HETATM   39  C1  UNL     1      27.537  12.564 -34.261  1.00  0.00     0.038 C 
BRANCH  38  40
HETATM   40  C15 UNL     1      27.842  13.605 -36.441  1.00  0.00     0.276 C 
BRANCH  40  41
HETATM   41  O2  UNL     1      28.608  14.437 -37.252  1.00  0.00    -0.369 OA
ATOM     42  H2  UNL     1      28.083  15.146 -37.604  1.00  0.00     0.212 HD
ENDBRANCH  40  41
BRANCH  40  43
HETATM   43  O3  UNL     1      26.551  14.124 -36.433  1.00  0.00    -0.369 OA
ATOM     44  H3  UNL     1      26.047  13.749 -37.145  1.00  0.00     0.212 HD
ENDBRANCH  40  43
ENDBRANCH  38  40
ENDBRANCH  36  38
ENDBRANCH   1  36
TORSDOF 12
ENDMDL
MODEL 4
REMARK VINA RESULT: -7.698347127      2.547      7.001
REMARK  12 active torsions:
REMARK  status: ('A' for Active; 'I' for Inactive)
REMARK    1  A    between atoms: C2_2  and  N1_3 
REMARK    2  A    between atoms: C2_2  and  C15_40 
REMARK    3  A    between atoms: N1_3  and  C3_5 
REMARK    4  A    between atoms: C4_8  and  S1_9 
REMARK    5  A    between atoms: S1_9  and  C5_10 
REMARK    6  A    between atoms: C5_10  and  C6_11 
REMARK    7  A    between atoms: C6_11  and  C7_12 
REMARK    8  A    between atoms: C7_12  and  N3_13 
REMARK    9  A    between atoms: N3_13  and  C8_15 
REMARK   10  A    between atoms: C9_18  and  N5_19 
REMARK   11  A    between atoms: C15_40  and  O2_41 
REMARK   12  A    between atoms: C15_40  and  O3_43 
ROOT
HETATM    1  C3  UNL     1      30.893  17.275 -36.729  1.00  0.00     0.697 A 
HETATM    2  N2  UNL     1      31.706  16.203 -36.745  1.00  0.00    -0.167 N 
ATOM      3  H2  UNL     1      32.696  16.330 -36.954  1.00  0.00     0.186 HD
HETATM    4  C4  UNL     1      31.234  14.950 -36.487  1.00  0.00     0.198 A 
HETATM    5  N9  UNL     1      29.917  14.853 -36.220  1.00  0.00    -0.061 N 
HETATM    6  N10 UNL     1      29.164  13.807 -35.935  1.00  0.00    -0.273 N 
ATOM      7  H10 UNL     1      29.501  12.846 -35.874  1.00  0.00     0.189 HD
HETATM    8  C12 UNL     1      27.891  14.189 -35.739  1.00  0.00     0.216 A 
HETATM    9  N11 UNL     1      27.829  15.519 -35.903  1.00  0.00    -0.184 N 
ATOM     10  H11 UNL     1      27.002  16.110 -35.822  1.00  0.00     0.185 HD
HETATM   11  C13 UNL     1      29.090  15.914 -36.200  1.00  0.00     0.723 A 
HETATM   12  N12 UNL     1      29.580  17.146 -36.458  1.00  0.00    -0.017 N 
HETATM   13  C14 UNL     1      28.722  18.291 -36.443  1.00  0.00     0.195 C 
ENDROOT
BRANCH   4  14
HETATM   14  S1  UNL     1      32.283  13.525 -36.502  1.00  0.00    -0.091 SA
BRANCH  14  15
HETATM   15  C5  UNL     1      32.340  12.738 -34.847  1.00  0.00     0.084 C 
BRANCH  15  16
HETATM   16  C6  UNL     1      33.510  11.746 -34.814  1.00  0.00     0.030 C 
BRANCH  16  17
HETATM   17  C7  UNL     1      34.795  12.455 -35.176  1.00  0.00     0.122 C 
BRANCH  17  18
HETATM   18  N3  UNL     1      35.423  13.090 -34.076  1.00  0.00    -0.374 N 
ATOM     19  H3  UNL     1      35.589  12.487 -33.270  1.00  0.00     0.161 HD
BRANCH  18  20
HETATM   20  C8  UNL     1      35.810  14.284 -33.935  1.00  0.00     0.149 A 
HETATM   21  N4  UNL     1      35.035  15.277 -34.407  1.00  0.00    -0.175 N 
HETATM   22  C9  UNL     1      35.383  16.584 -34.292  1.00  0.00     0.679 A 
ATOM     23  H4  UNL     1      34.156  15.040 -34.868  1.00  0.00     0.186 HD
HETATM   24  N6  UNL     1      36.517  17.001 -33.705  1.00  0.00    -0.173 N 
HETATM   25  C10 UNL     1      37.349  16.093 -33.209  1.00  0.00     0.175 A 
ATOM     26  H6  UNL     1      36.735  17.995 -33.642  1.00  0.00     0.186 HD
HETATM   27  N7  UNL     1      38.539  16.065 -32.567  1.00  0.00    -0.223 N 
HETATM   28  C11 UNL     1      36.984  14.671 -33.326  1.00  0.00     0.147 A 
HETATM   29  O1  UNL     1      38.869  14.836 -32.322  1.00  0.00    -0.155 OA
ATOM     30  H7  UNL     1      39.091  16.885 -32.316  1.00  0.00     0.198 HD
HETATM   31  N8  UNL     1      37.974  14.000 -32.757  1.00  0.00    -0.234 N 
ATOM     32  H8  UNL     1      38.026  12.985 -32.673  1.00  0.00     0.197 HD
BRANCH  22  33
HETATM   33  N5  UNL     1      34.593  17.486 -34.766  1.00  0.00    -0.234 N 
ATOM     34  H52 UNL     1      34.090  18.068 -34.096  1.00  0.00     0.174 HD
ATOM     35  H51 UNL     1      34.503  17.584 -35.777  1.00  0.00     0.174 HD
ENDBRANCH  22  33
ENDBRANCH  18  20
ENDBRANCH  17  18
ENDBRANCH  16  17
ENDBRANCH  15  16
ENDBRANCH  14  15
ENDBRANCH   4  14
BRANCH   1  36
HETATM   36  N1  UNL     1      31.324  18.473 -36.971  1.00  0.00    -0.216 N 
ATOM     37  H1  UNL     1      30.757  19.289 -36.744  1.00  0.00     0.178 HD
BRANCH  36  38
HETATM   38  C2  UNL     1      32.631  18.621 -37.570  1.00  0.00     0.150 C 
HETATM   39  C1  UNL     1      33.323  19.894 -37.110  1.00  0.00     0.038 C 
BRANCH  38  40
HETATM   40  C15 UNL     1      32.514  18.739 -39.094  1.00  0.00     0.276 C 
BRANCH  40  41
HETATM   41  O2  UNL     1      32.207  17.509 -39.668  1.00  0.00    -0.369 OA
ATOM     42  H2  UNL     1      31.581  17.032 -39.136  1.00  0.00     0.212 HD
ENDBRANCH  40  41
BRANCH  40  43
HETATM   43  O3  UNL     1      33.731  19.145 -39.633  1.00  0.00    -0.369 OA
ATOM     44  H3  UNL     1      34.354  18.429 -39.600  1.00  0.00     0.212 HD
ENDBRANCH  40  43
ENDBRANCH  38  40
ENDBRANCH  36  38
ENDBRANCH   1  36
TORSDOF 12
ENDMDL
MODEL 5
REMARK VINA RESULT: -7.650799650      3.043      5.867
REMARK  12 active torsions:
REMARK  status: ('A' for Active; 'I' for Inactive)
REMARK    1  A    between atoms: C2_2  and  N1_3 
REMARK    2  A    between atoms: C2_2  and  C15_40 
REMARK    3  A    between atoms: N1_3  and  C3_5 
REMARK    4  A    between atoms: C4_8  and  S1_9 
REMARK    5  A    between atoms: S1_9  and  C5_10 
REMARK    6  A    between atoms: C5_10  and  C6_11 
REMARK    7  A    between atoms: C6_11  and  C7_12 
REMARK    8  A    between atoms: C7_12  and  N3_13 
REMARK    9  A    between atoms: N3_13  and  C8_15 
REMARK   10  A    between atoms: C9_18  and  N5_19 
REMARK   11  A    between atoms: C15_40  and  O2_41 
REMARK   12  A    between atoms: C15_40  and  O3_43 
ROOT
HETATM    1  C3  UNL     1      30.878  13.786 -34.635  1.00  0.00     0.697 A 
HETATM    2  N2  UNL     1      30.799  15.129 -34.670  1.00  0.00    -0.167 N 
ATOM      3  H2  UNL     1      29.960  15.570 -35.045  1.00  0.00     0.186 HD
HETATM    4  C4  UNL     1      31.819  15.912 -34.217  1.00  0.00     0.198 A 
HETATM    5  N9  UNL     1      32.899  15.265 -33.737  1.00  0.00    -0.061 N 
HETATM    6  N10 UNL     1      34.031  15.721 -33.234  1.00  0.00    -0.273 N 
ATOM      7  H10 UNL     1      34.266  16.708 -33.130  1.00  0.00     0.189 HD
HETATM    8  C12 UNL     1      34.828  14.699 -32.879  1.00  0.00     0.216 A 
HETATM    9  N11 UNL     1      34.186  13.556 -33.165  1.00  0.00    -0.184 N 
ATOM     10  H11 UNL     1      34.526  12.607 -33.014  1.00  0.00     0.185 HD
HETATM   11  C13 UNL     1      32.995  13.924 -33.695  1.00  0.00     0.723 A 
HETATM   12  N12 UNL     1      31.972  13.168 -34.149  1.00  0.00    -0.017 N 
HETATM   13  C14 UNL     1      32.049  11.740 -34.115  1.00  0.00     0.195 C 
ENDROOT
BRANCH   4  14
HETATM   14  S1  UNL     1      31.738  17.680 -34.254  1.00  0.00    -0.091 SA
BRANCH  14  15
HETATM   15  C5  UNL     1      32.239  18.322 -35.897  1.00  0.00     0.084 C 
BRANCH  15  16
HETATM   16  C6  UNL     1      31.524  17.506 -36.982  1.00  0.00     0.030 C 
BRANCH  16  17
HETATM   17  C7  UNL     1      30.229  18.184 -37.365  1.00  0.00     0.122 C 
BRANCH  17  18
HETATM   18  N3  UNL     1      29.102  17.701 -36.653  1.00  0.00    -0.374 N 
ATOM     19  H3  UNL     1      28.976  16.689 -36.684  1.00  0.00     0.161 HD
BRANCH  18  20
HETATM   20  C8  UNL     1      28.230  18.324 -35.985  1.00  0.00     0.149 A 
HETATM   21  N4  UNL     1      28.587  19.452 -35.344  1.00  0.00    -0.175 N 
HETATM   22  C9  UNL     1      27.706  20.176 -34.609  1.00  0.00     0.679 A 
ATOM     23  H4  UNL     1      29.553  19.774 -35.414  1.00  0.00     0.186 HD
HETATM   24  N6  UNL     1      26.415  19.838 -34.452  1.00  0.00    -0.173 N 
HETATM   25  C10 UNL     1      25.968  18.738 -35.046  1.00  0.00     0.175 A 
ATOM     26  H6  UNL     1      25.791  20.415 -33.888  1.00  0.00     0.186 HD
HETATM   27  N7  UNL     1      24.805  18.057 -35.154  1.00  0.00    -0.223 N 
HETATM   28  C11 UNL     1      26.913  17.943 -35.849  1.00  0.00     0.147 A 
HETATM   29  O1  UNL     1      24.985  17.010 -35.897  1.00  0.00    -0.155 OA
ATOM     30  H7  UNL     1      23.923  18.325 -34.717  1.00  0.00     0.198 HD
HETATM   31  N8  UNL     1      26.212  16.922 -36.317  1.00  0.00    -0.234 N 
ATOM     32  H8  UNL     1      26.578  16.180 -36.913  1.00  0.00     0.197 HD
BRANCH  22  33
HETATM   33  N5  UNL     1      28.114  21.249 -34.021  1.00  0.00    -0.234 N 
ATOM     34  H52 UNL     1      28.085  21.265 -33.001  1.00  0.00     0.174 HD
ATOM     35  H51 UNL     1      28.446  22.028 -34.588  1.00  0.00     0.174 HD
ENDBRANCH  22  33
ENDBRANCH  18  20
ENDBRANCH  17  18
ENDBRANCH  16  17
ENDBRANCH  15  16
ENDBRANCH  14  15
ENDBRANCH   4  14
BRANCH   1  36
HETATM   36  N1  UNL     1      29.919  13.025 -35.061  1.00  0.00    -0.216 N 
ATOM     37  H1  UNL     1      30.112  12.089 -35.416  1.00  0.00     0.178 HD
BRANCH  36  38
HETATM   38  C2  UNL     1      28.569  13.539 -35.019  1.00  0.00     0.150 C 
HETATM   39  C1  UNL     1      27.612  12.560 -34.359  1.00  0.00     0.038 C 
BRANCH  38  40
HETATM   40  C15 UNL     1      28.031  13.756 -36.438  1.00  0.00     0.276 C 
BRANCH  40  41
HETATM   41  O2  UNL     1      28.757  14.740 -37.102  1.00  0.00    -0.369 OA
ATOM     42  H2  UNL     1      28.197  15.245 -37.680  1.00  0.00     0.212 HD
ENDBRANCH  40  41
BRANCH  40  43
HETATM   43  O3  UNL     1      26.711  14.194 -36.382  1.00  0.00    -0.369 OA
ATOM     44  H3  UNL     1      26.294  14.074 -37.227  1.00  0.00     0.212 HD
ENDBRANCH  40  43
ENDBRANCH  38  40
ENDBRANCH  36  38
ENDBRANCH   1  36
TORSDOF 12
ENDMDL
