MODEL 1
REMARK VINA RESULT: -7.298722283      0.000      0.000
REMARK  10 active torsions:
REMARK  status: ('A' for Active; 'I' for Inactive)
REMARK    1  A    between atoms: N2_3  and  S1_5 
REMARK    2  A    between atoms: S1_5  and  C2_8 
REMARK    3  A    between atoms: C3_9  and  C4_10 
REMARK    4  A    between atoms: C4_10  and  O3_11 
REMARK    5  A    between atoms: O3_11  and  C5_12 
REMARK    6  A    between atoms: C6_14  and  C7_15 
REMARK    7  A    between atoms: C8_18  and  O7_19 
REMARK    8  A    between atoms: C9_21  and  O8_22 
REMARK    9  A    between atoms: C10_24  and  O9_25 
REMARK   10  A    between atoms: C15_31  and  C16_32 
ROOT
HETATM    1  N1  UNL     1      -3.689  89.166  24.211  1.00  0.00    -0.171 NA
HETATM    2  C1  UNL     1      -3.707  88.416  25.103  1.00  0.00     0.192 C 
HETATM    3  N2  UNL     1      -3.738  87.525  26.195  1.00  0.00    -0.217 N 
ATOM      4  H2  UNL     1      -4.016  87.820  27.131  1.00  0.00     0.191 HD
ENDROOT
BRANCH   3   5
HETATM    5  S1  UNL     1      -3.312  86.038  25.869  1.00  0.00     0.260 S 
HETATM    6  O1  UNL     1      -4.381  85.499  24.951  1.00  0.00    -0.200 OA
HETATM    7  O2  UNL     1      -3.365  85.177  27.289  1.00  0.00    -0.200 OA
BRANCH   5   8
HETATM    8  C2  UNL     1      -1.728  85.966  25.149  1.00  0.00     0.131 C 
HETATM    9  C3  UNL     1      -1.107  84.841  24.849  1.00  0.00     0.025 C 
BRANCH   9  10
HETATM   10  C4  UNL     1       0.248  84.920  24.235  1.00  0.00     0.096 C 
HETATM   11  C11 UNL     1       0.861  86.219  24.729  1.00  0.00     0.043 C 
HETATM   12  C12 UNL     1       1.089  86.188  26.227  1.00  0.00     0.003 C 
HETATM   13  C13 UNL     1       1.544  84.802  26.657  1.00  0.00     0.001 C 
HETATM   14  C14 UNL     1       2.152  84.057  25.485  1.00  0.00     0.019 C 
HETATM   15  C15 UNL     1       1.077  83.717  24.484  1.00  0.00     0.125 C 
BRANCH  10  16
HETATM   16  O3  UNL     1       0.043  85.082  22.874  1.00  0.00    -0.343 OA
BRANCH  16  17
HETATM   17  C5  UNL     1      -1.152  84.688  22.373  1.00  0.00     0.293 C 
HETATM   18  O4  UNL     1      -1.746  85.639  21.537  1.00  0.00    -0.340 OA
HETATM   19  C6  UNL     1      -2.816  85.161  20.832  1.00  0.00     0.256 C 
HETATM   20  C8  UNL     1      -3.309  83.816  21.360  1.00  0.00     0.189 C 
HETATM   21  C9  UNL     1      -2.232  82.778  21.290  1.00  0.00     0.183 C 
HETATM   22  C10 UNL     1      -0.907  83.467  21.508  1.00  0.00     0.204 C 
BRANCH  19  23
HETATM   23  C7  UNL     1      -3.990  86.090  20.895  1.00  0.00     0.206 C 
HETATM   24  O5  UNL     1      -4.314  86.688  21.942  1.00  0.00    -0.646 OA
HETATM   25  O6  UNL     1      -4.750  86.297  19.755  1.00  0.00    -0.646 OA
ENDBRANCH  19  23
BRANCH  20  26
HETATM   26  O7  UNL     1      -4.344  83.409  20.507  1.00  0.00    -0.390 OA
ATOM     27  H7  UNL     1      -4.537  82.505  20.728  1.00  0.00     0.210 HD
ENDBRANCH  20  26
BRANCH  21  28
HETATM   28  O8  UNL     1      -2.405  81.858  22.321  1.00  0.00    -0.390 OA
ATOM     29  H8  UNL     1      -1.640  81.866  22.886  1.00  0.00     0.210 HD
ENDBRANCH  21  28
BRANCH  22  30
HETATM   30  O9  UNL     1      -0.289  83.808  20.309  1.00  0.00    -0.388 OA
ATOM     31  H9  UNL     1      -0.925  83.948  19.616  1.00  0.00     0.210 HD
ENDBRANCH  22  30
ENDBRANCH  16  17
ENDBRANCH  10  16
BRANCH  15  32
HETATM   32  C16 UNL     1       0.299  82.546  24.955  1.00  0.00     0.180 C 
HETATM   33  O10 UNL     1      -0.116  81.727  24.105  1.00  0.00    -0.648 OA
HETATM   34  O11 UNL     1       0.007  82.309  26.286  1.00  0.00    -0.648 OA
ENDBRANCH  15  32
ENDBRANCH   9  10
ENDBRANCH   5   8
ENDBRANCH   3   5
TORSDOF 10
ENDMDL
MODEL 2
REMARK VINA RESULT: -7.234139237      2.668      5.636
REMARK  10 active torsions:
REMARK  status: ('A' for Active; 'I' for Inactive)
REMARK    1  A    between atoms: N2_3  and  S1_5 
REMARK    2  A    between atoms: S1_5  and  C2_8 
REMARK    3  A    between atoms: C3_9  and  C4_10 
REMARK    4  A    between atoms: C4_10  and  O3_11 
REMARK    5  A    between atoms: O3_11  and  C5_12 
REMARK    6  A    between atoms: C6_14  and  C7_15 
REMARK    7  A    between atoms: C8_18  and  O7_19 
REMARK    8  A    between atoms: C9_21  and  O8_22 
REMARK    9  A    between atoms: C10_24  and  O9_25 
REMARK   10  A    between atoms: C15_31  and  C16_32 
ROOT
HETATM    1  N1  UNL     1      -0.290  83.485  27.374  1.00  0.00    -0.171 NA
HETATM    2  C1  UNL     1       0.317  84.206  26.688  1.00  0.00     0.192 C 
HETATM    3  N2  UNL     1       1.063  85.086  25.879  1.00  0.00    -0.217 N 
ATOM      4  H2  UNL     1       1.716  85.766  26.270  1.00  0.00     0.191 HD
ENDROOT
BRANCH   3   5
HETATM    5  S1  UNL     1       0.818  84.949  24.323  1.00  0.00     0.260 S 
HETATM    6  O1  UNL     1       1.303  83.568  23.954  1.00  0.00    -0.200 OA
HETATM    7  O2  UNL     1       1.788  86.060  23.560  1.00  0.00    -0.200 OA
BRANCH   5   8
HETATM    8  C2  UNL     1      -0.857  85.189  23.912  1.00  0.00     0.131 C 
HETATM    9  C3  UNL     1      -1.353  85.000  22.704  1.00  0.00     0.025 C 
BRANCH   9  10
HETATM   10  C4  UNL     1      -2.806  85.242  22.487  1.00  0.00     0.096 C 
HETATM   11  C11 UNL     1      -2.899  86.376  21.480  1.00  0.00     0.043 C 
HETATM   12  C12 UNL     1      -2.346  85.963  20.130  1.00  0.00     0.003 C 
HETATM   13  C13 UNL     1      -2.710  84.516  19.837  1.00  0.00     0.001 C 
HETATM   14  C14 UNL     1      -3.922  84.101  20.647  1.00  0.00     0.019 C 
HETATM   15  C15 UNL     1      -3.556  84.022  22.108  1.00  0.00     0.125 C 
BRANCH  10  16
HETATM   16  O3  UNL     1      -3.293  85.747  23.682  1.00  0.00    -0.343 OA
BRANCH  16  17
HETATM   17  C5  UNL     1      -3.822  86.994  23.662  1.00  0.00     0.293 C 
HETATM   18  O4  UNL     1      -5.211  87.008  23.504  1.00  0.00    -0.340 OA
HETATM   19  C6  UNL     1      -5.779  88.230  23.732  1.00  0.00     0.256 C 
HETATM   20  C8  UNL     1      -4.747  89.354  23.785  1.00  0.00     0.189 C 
HETATM   21  C9  UNL     1      -3.745  89.120  24.872  1.00  0.00     0.183 C 
HETATM   22  C10 UNL     1      -3.550  87.629  25.012  1.00  0.00     0.204 C 
BRANCH  19  23
HETATM   23  C7  UNL     1      -6.752  88.608  22.657  1.00  0.00     0.206 C 
HETATM   24  O5  UNL     1      -6.994  87.864  21.683  1.00  0.00    -0.646 OA
HETATM   25  O6  UNL     1      -7.412  89.823  22.738  1.00  0.00    -0.646 OA
ENDBRANCH  19  23
BRANCH  20  26
HETATM   26  O7  UNL     1      -5.449  90.524  24.102  1.00  0.00    -0.390 OA
ATOM     27  H7  UNL     1      -4.864  91.056  24.630  1.00  0.00     0.210 HD
ENDBRANCH  20  26
BRANCH  21  28
HETATM   28  O8  UNL     1      -2.521  89.674  24.505  1.00  0.00    -0.390 OA
ATOM     29  H8  UNL     1      -2.451  90.553  24.857  1.00  0.00     0.210 HD
ENDBRANCH  21  28
BRANCH  22  30
HETATM   30  O9  UNL     1      -4.359  87.085  26.004  1.00  0.00    -0.388 OA
ATOM     31  H9  UNL     1      -3.944  86.339  26.422  1.00  0.00     0.210 HD
ENDBRANCH  22  30
ENDBRANCH  16  17
ENDBRANCH  10  16
BRANCH  15  32
HETATM   32  C16 UNL     1      -2.819  82.763  22.377  1.00  0.00     0.180 C 
HETATM   33  O10 UNL     1      -2.276  82.174  21.416  1.00  0.00    -0.648 OA
HETATM   34  O11 UNL     1      -2.700  82.205  23.637  1.00  0.00    -0.648 OA
ENDBRANCH  15  32
ENDBRANCH   9  10
ENDBRANCH   5   8
ENDBRANCH   3   5
TORSDOF 10
ENDMDL
MODEL 3
REMARK VINA RESULT: -7.133389747      3.398      5.061
REMARK  10 active torsions:
REMARK  status: ('A' for Active; 'I' for Inactive)
REMARK    1  A    between atoms: N2_3  and  S1_5 
REMARK    2  A    between atoms: S1_5  and  C2_8 
REMARK    3  A    between atoms: C3_9  and  C4_10 
REMARK    4  A    between atoms: C4_10  and  O3_11 
REMARK    5  A    between atoms: O3_11  and  C5_12 
REMARK    6  A    between atoms: C6_14  and  C7_15 
REMARK    7  A    between atoms: C8_18  and  O7_19 
REMARK    8  A    between atoms: C9_21  and  O8_22 
REMARK    9  A    between atoms: C10_24  and  O9_25 
REMARK   10  A    between atoms: C15_31  and  C16_32 
ROOT
HETATM    1  N1  UNL     1       0.042  80.850  20.965  1.00  0.00    -0.171 NA
HETATM    2  C1  UNL     1       0.473  80.271  21.880  1.00  0.00     0.192 C 
HETATM    3  N2  UNL     1       0.990  79.550  22.976  1.00  0.00    -0.217 N 
ATOM      4  H2  UNL     1       0.981  78.531  23.011  1.00  0.00     0.191 HD
ENDROOT
BRANCH   3   5
HETATM    5  S1  UNL     1       1.585  80.431  24.147  1.00  0.00     0.260 S 
HETATM    6  O1  UNL     1       2.891  80.977  23.623  1.00  0.00    -0.200 OA
HETATM    7  O2  UNL     1       1.920  79.417  25.419  1.00  0.00    -0.200 OA
BRANCH   5   8
HETATM    8  C2  UNL     1       0.485  81.695  24.622  1.00  0.00     0.131 C 
HETATM    9  C3  UNL     1       0.852  82.780  25.276  1.00  0.00     0.025 C 
BRANCH   9  10
HETATM   10  C4  UNL     1      -0.190  83.786  25.623  1.00  0.00     0.096 C 
HETATM   11  C11 UNL     1      -0.551  83.536  27.077  1.00  0.00     0.043 C 
HETATM   12  C12 UNL     1       0.620  83.824  27.996  1.00  0.00     0.003 C 
HETATM   13  C13 UNL     1       1.390  85.036  27.495  1.00  0.00     0.001 C 
HETATM   14  C14 UNL     1       0.506  85.899  26.617  1.00  0.00     0.019 C 
HETATM   15  C15 UNL     1       0.215  85.180  25.324  1.00  0.00     0.125 C 
BRANCH  10  16
HETATM   16  O3  UNL     1      -1.311  83.448  24.882  1.00  0.00    -0.343 OA
BRANCH  16  17
HETATM   17  C5  UNL     1      -1.674  84.289  23.884  1.00  0.00     0.293 C 
HETATM   18  O4  UNL     1      -1.804  83.657  22.644  1.00  0.00    -0.340 OA
HETATM   19  C6  UNL     1      -2.407  84.431  21.691  1.00  0.00     0.256 C 
HETATM   20  C8  UNL     1      -2.500  85.897  22.104  1.00  0.00     0.189 C 
HETATM   21  C9  UNL     1      -3.285  86.058  23.369  1.00  0.00     0.183 C 
HETATM   22  C10 UNL     1      -3.049  84.833  24.220  1.00  0.00     0.204 C 
BRANCH  19  23
HETATM   23  C7  UNL     1      -1.660  84.409  20.393  1.00  0.00     0.206 C 
HETATM   24  O5  UNL     1      -2.209  84.670  19.302  1.00  0.00    -0.646 OA
HETATM   25  O6  UNL     1      -0.312  84.088  20.392  1.00  0.00    -0.646 OA
ENDBRANCH  19  23
BRANCH  20  26
HETATM   26  O7  UNL     1      -3.203  86.554  21.085  1.00  0.00    -0.390 OA
ATOM     27  H7  UNL     1      -4.121  86.531  21.331  1.00  0.00     0.210 HD
ENDBRANCH  20  26
BRANCH  21  28
HETATM   28  O8  UNL     1      -2.813  87.161  24.075  1.00  0.00    -0.390 OA
ATOM     29  H8  UNL     1      -2.013  86.928  24.531  1.00  0.00     0.210 HD
ENDBRANCH  21  28
BRANCH  22  30
HETATM   30  O9  UNL     1      -4.037  83.870  24.041  1.00  0.00    -0.388 OA
ATOM     31  H9  UNL     1      -4.886  84.184  24.330  1.00  0.00     0.210 HD
ENDBRANCH  22  30
ENDBRANCH  16  17
ENDBRANCH  10  16
BRANCH  15  32
HETATM   32  C16 UNL     1       1.384  85.278  24.416  1.00  0.00     0.180 C 
HETATM   33  O10 UNL     1       1.198  85.128  23.188  1.00  0.00    -0.648 OA
HETATM   34  O11 UNL     1       2.671  85.526  24.856  1.00  0.00    -0.648 OA
ENDBRANCH  15  32
ENDBRANCH   9  10
ENDBRANCH   5   8
ENDBRANCH   3   5
TORSDOF 10
ENDMDL
MODEL 4
REMARK VINA RESULT: -6.942506986      3.681      6.171
REMARK  10 active torsions:
REMARK  status: ('A' for Active; 'I' for Inactive)
REMARK    1  A    between atoms: N2_3  and  S1_5 
REMARK    2  A    between atoms: S1_5  and  C2_8 
REMARK    3  A    between atoms: C3_9  and  C4_10 
REMARK    4  A    between atoms: C4_10  and  O3_11 
REMARK    5  A    between atoms: O3_11  and  C5_12 
REMARK    6  A    between atoms: C6_14  and  C7_15 
REMARK    7  A    between atoms: C8_18  and  O7_19 
REMARK    8  A    between atoms: C9_21  and  O8_22 
REMARK    9  A    between atoms: C10_24  and  O9_25 
REMARK   10  A    between atoms: C15_31  and  C16_32 
ROOT
HETATM    1  N1  UNL     1      -5.485  81.474  22.561  1.00  0.00    -0.171 NA
HETATM    2  C1  UNL     1      -4.958  80.653  21.923  1.00  0.00     0.192 C 
HETATM    3  N2  UNL     1      -4.342  79.647  21.153  1.00  0.00    -0.217 N 
ATOM      4  H2  UNL     1      -4.804  78.762  20.941  1.00  0.00     0.191 HD
ENDROOT
BRANCH   3   5
HETATM    5  S1  UNL     1      -2.885  79.984  20.639  1.00  0.00     0.260 S 
HETATM    6  O1  UNL     1      -3.073  80.827  19.402  1.00  0.00    -0.200 OA
HETATM    7  O2  UNL     1      -2.167  78.555  20.188  1.00  0.00    -0.200 OA
BRANCH   5   8
HETATM    8  C2  UNL     1      -1.947  80.801  21.858  1.00  0.00     0.131 C 
HETATM    9  C3  UNL     1      -0.764  80.390  22.274  1.00  0.00     0.025 C 
BRANCH   9  10
HETATM   10  C4  UNL     1      -0.066  81.183  23.324  1.00  0.00     0.096 C 
HETATM   11  C11 UNL     1      -1.015  81.243  24.509  1.00  0.00     0.043 C 
HETATM   12  C12 UNL     1      -1.236  79.869  25.110  1.00  0.00     0.003 C 
HETATM   13  C13 UNL     1       0.058  79.073  25.082  1.00  0.00     0.001 C 
HETATM   14  C14 UNL     1       1.251  80.004  25.000  1.00  0.00     0.019 C 
HETATM   15  C15 UNL     1       1.286  80.669  23.647  1.00  0.00     0.125 C 
BRANCH  10  16
HETATM   16  O3  UNL     1       0.022  82.476  22.833  1.00  0.00    -0.343 OA
BRANCH  16  17
HETATM   17  C5  UNL     1       0.012  83.486  23.736  1.00  0.00     0.293 C 
HETATM   18  O4  UNL     1       1.253  84.113  23.883  1.00  0.00    -0.340 OA
HETATM   19  C6  UNL     1       1.200  85.280  24.592  1.00  0.00     0.256 C 
HETATM   20  C8  UNL     1      -0.126  85.457  25.328  1.00  0.00     0.189 C 
HETATM   21  C9  UNL     1      -1.280  85.465  24.373  1.00  0.00     0.183 C 
HETATM   22  C10 UNL     1      -0.935  84.553  23.221  1.00  0.00     0.204 C 
BRANCH  19  23
HETATM   23  C7  UNL     1       2.270  85.353  25.638  1.00  0.00     0.206 C 
HETATM   24  O5  UNL     1       2.065  85.029  26.827  1.00  0.00    -0.646 OA
HETATM   25  O6  UNL     1       3.535  85.794  25.284  1.00  0.00    -0.646 OA
ENDBRANCH  19  23
BRANCH  20  26
HETATM   26  O7  UNL     1      -0.076  86.717  25.940  1.00  0.00    -0.390 OA
ATOM     27  H7  UNL     1       0.017  86.560  26.873  1.00  0.00     0.210 HD
ENDBRANCH  20  26
BRANCH  21  28
HETATM   28  O8  UNL     1      -2.408  84.943  25.002  1.00  0.00    -0.390 OA
ATOM     29  H8  UNL     1      -2.703  84.170  24.535  1.00  0.00     0.210 HD
ENDBRANCH  21  28
BRANCH  22  30
HETATM   30  O9  UNL     1      -0.385  85.247  22.148  1.00  0.00    -0.388 OA
ATOM     31  H9  UNL     1       0.237  84.712  21.668  1.00  0.00     0.210 HD
ENDBRANCH  22  30
ENDBRANCH  16  17
ENDBRANCH  10  16
BRANCH  15  32
HETATM   32  C16 UNL     1       1.823  79.729  22.634  1.00  0.00     0.180 C 
HETATM   33  O10 UNL     1       2.077  78.556  22.987  1.00  0.00    -0.648 OA
HETATM   34  O11 UNL     1       2.059  80.080  21.318  1.00  0.00    -0.648 OA
ENDBRANCH  15  32
ENDBRANCH   9  10
ENDBRANCH   5   8
ENDBRANCH   3   5
TORSDOF 10
ENDMDL
MODEL 5
REMARK VINA RESULT: -6.932366868      3.143      5.831
REMARK  10 active torsions:
REMARK  status: ('A' for Active; 'I' for Inactive)
REMARK    1  A    between atoms: N2_3  and  S1_5 
REMARK    2  A    between atoms: S1_5  and  C2_8 
REMARK    3  A    between atoms: C3_9  and  C4_10 
REMARK    4  A    between atoms: C4_10  and  O3_11 
REMARK    5  A    between atoms: O3_11  and  C5_12 
REMARK    6  A    between atoms: C6_14  and  C7_15 
REMARK    7  A    between atoms: C8_18  and  O7_19 
REMARK    8  A    between atoms: C9_21  and  O8_22 
REMARK    9  A    between atoms: C10_24  and  O9_25 
REMARK   10  A    between atoms: C15_31  and  C16_32 
ROOT
HETATM    1  N1  UNL     1      -2.387  86.019  20.510  1.00  0.00    -0.171 NA
HETATM    2  C1  UNL     1      -2.619  85.015  19.966  1.00  0.00     0.192 C 
HETATM    3  N2  UNL     1      -2.901  83.813  19.286  1.00  0.00    -0.217 N 
ATOM      4  H2  UNL     1      -3.058  83.780  18.278  1.00  0.00     0.191 HD
ENDROOT
BRANCH   3   5
HETATM    5  S1  UNL     1      -2.956  82.518  20.193  1.00  0.00     0.260 S 
HETATM    6  O1  UNL     1      -2.909  81.350  19.238  1.00  0.00    -0.200 OA
HETATM    7  O2  UNL     1      -4.429  82.504  20.960  1.00  0.00    -0.200 OA
BRANCH   5   8
HETATM    8  C2  UNL     1      -1.647  82.483  21.341  1.00  0.00     0.131 C 
HETATM    9  C3  UNL     1      -1.509  81.556  22.270  1.00  0.00     0.025 C 
BRANCH   9  10
HETATM   10  C4  UNL     1      -0.343  81.642  23.191  1.00  0.00     0.096 C 
HETATM   11  C11 UNL     1      -0.918  81.728  24.595  1.00  0.00     0.043 C 
HETATM   12  C12 UNL     1      -1.646  80.453  24.972  1.00  0.00     0.003 C 
HETATM   13  C13 UNL     1      -0.909  79.246  24.415  1.00  0.00     0.001 C 
HETATM   14  C14 UNL     1       0.544  79.587  24.154  1.00  0.00     0.019 C 
HETATM   15  C15 UNL     1       0.642  80.551  22.998  1.00  0.00     0.125 C 
BRANCH  10  16
HETATM   16  O3  UNL     1       0.253  82.868  22.942  1.00  0.00    -0.343 OA
BRANCH  16  17
HETATM   17  C5  UNL     1       0.247  83.778  23.946  1.00  0.00     0.293 C 
HETATM   18  O4  UNL     1       1.483  84.403  24.138  1.00  0.00    -0.340 OA
HETATM   19  C6  UNL     1       1.429  85.489  24.966  1.00  0.00     0.256 C 
HETATM   20  C8  UNL     1       0.113  85.570  25.737  1.00  0.00     0.189 C 
HETATM   21  C9  UNL     1      -1.057  85.662  24.807  1.00  0.00     0.183 C 
HETATM   22  C10 UNL     1      -0.721  84.880  23.560  1.00  0.00     0.204 C 
BRANCH  19  23
HETATM   23  C7  UNL     1       2.515  85.466  25.997  1.00  0.00     0.206 C 
HETATM   24  O5  UNL     1       3.707  85.716  25.718  1.00  0.00    -0.646 OA
HETATM   25  O6  UNL     1       2.197  85.157  27.310  1.00  0.00    -0.646 OA
ENDBRANCH  19  23
BRANCH  20  26
HETATM   26  O7  UNL     1       0.158  86.759  26.477  1.00  0.00    -0.390 OA
ATOM     27  H7  UNL     1       1.070  86.904  26.702  1.00  0.00     0.210 HD
ENDBRANCH  20  26
BRANCH  21  28
HETATM   28  O8  UNL     1      -2.168  85.062  25.395  1.00  0.00    -0.390 OA
ATOM     29  H8  UNL     1      -2.545  84.432  24.792  1.00  0.00     0.210 HD
ENDBRANCH  21  28
BRANCH  22  30
HETATM   30  O9  UNL     1      -0.198  85.690  22.557  1.00  0.00    -0.388 OA
ATOM     31  H9  UNL     1      -0.346  86.611  22.741  1.00  0.00     0.210 HD
ENDBRANCH  22  30
ENDBRANCH  16  17
ENDBRANCH  10  16
BRANCH  15  32
HETATM   32  C16 UNL     1       0.478  79.822  21.717  1.00  0.00     0.180 C 
HETATM   33  O10 UNL     1      -0.055  78.690  21.740  1.00  0.00    -0.648 OA
HETATM   34  O11 UNL     1       0.885  80.327  20.496  1.00  0.00    -0.648 OA
ENDBRANCH  15  32
ENDBRANCH   9  10
ENDBRANCH   5   8
ENDBRANCH   3   5
TORSDOF 10
ENDMDL
