MODEL 1
REMARK VINA RESULT: -6.667412369      0.000      0.000
REMARK  13 active torsions:
REMARK  status: ('A' for Active; 'I' for Inactive)
REMARK    1  A    between atoms: C2_2  and  O1_3 
REMARK    2  A    between atoms: O1_3  and  C3_4 
REMARK    3  A    between atoms: C3_4  and  C6_7 
REMARK    4  A    between atoms: C6_7  and  C7_8 
REMARK    5  A    between atoms: C8_9  and  O2_10 
REMARK    6  A    between atoms: O2_10  and  C9_11 
REMARK    7  A    between atoms: C10_13  and  C11_14 
REMARK    8  A    between atoms: C11_14  and  O4_15 
REMARK    9  A    between atoms: C12_17  and  O5_18 
REMARK   10  A    between atoms: C13_20  and  O6_21 
REMARK   11  A    between atoms: C14_23  and  O7_24 
REMARK   12  A    between atoms: O7_24  and  N1_25 
REMARK   13  A    between atoms: C21_35  and  O9_36 
ROOT
HETATM    1  C7  UNL     1       0.848  81.962  24.413  1.00  0.00     0.049 C 
HETATM    2  C8  UNL     1      -0.397  82.720  23.939  1.00  0.00     0.132 C 
HETATM    3  C15 UNL     1      -0.956  83.607  25.029  1.00  0.00     0.042 C 
HETATM    4  C16 UNL     1       0.115  84.544  25.465  1.00  0.00     0.053 C 
HETATM    5  C17 UNL     1       1.249  83.794  26.068  1.00  0.00     0.158 C 
HETATM    6  O8  UNL     1       0.796  84.088  27.354  1.00  0.00    -0.372 OA
HETATM    7  C18 UNL     1       0.013  85.126  26.833  1.00  0.00     0.060 C 
HETATM    8  C19 UNL     1       0.799  86.431  26.904  1.00  0.00     0.046 C 
HETATM    9  C20 UNL     1      -1.379  85.214  27.420  1.00  0.00     0.046 C 
HETATM   10  C21 UNL     1       1.185  82.291  25.825  1.00  0.00     0.154 C 
ENDROOT
BRANCH   2  11
HETATM   11  O2  UNL     1      -0.099  83.565  22.860  1.00  0.00    -0.353 OA
BRANCH  11  12
HETATM   12  C9  UNL     1      -1.245  83.837  22.095  1.00  0.00     0.294 C 
HETATM   13  O3  UNL     1      -0.948  84.894  21.279  1.00  0.00    -0.348 OA
HETATM   14  C10 UNL     1      -1.860  85.212  20.314  1.00  0.00     0.179 C 
HETATM   15  C12 UNL     1      -2.514  84.068  19.623  1.00  0.00     0.180 C 
HETATM   16  C13 UNL     1      -2.779  82.874  20.476  1.00  0.00     0.185 C 
HETATM   17  C14 UNL     1      -1.487  82.591  21.256  1.00  0.00     0.237 C 
BRANCH  14  18
HETATM   18  C11 UNL     1      -2.916  86.203  20.810  1.00  0.00     0.198 C 
BRANCH  18  19
HETATM   19  O4  UNL     1      -3.766  85.652  21.738  1.00  0.00    -0.398 OA
ATOM     20  H4  UNL     1      -4.389  86.281  22.083  1.00  0.00     0.209 HD
ENDBRANCH  18  19
ENDBRANCH  14  18
BRANCH  15  21
HETATM   21  O5  UNL     1      -3.752  84.530  19.126  1.00  0.00    -0.390 OA
ATOM     22  H5  UNL     1      -3.686  84.549  18.178  1.00  0.00     0.210 HD
ENDBRANCH  15  21
BRANCH  16  23
HETATM   23  O6  UNL     1      -2.964  81.776  19.609  1.00  0.00    -0.390 OA
ATOM     24  H6  UNL     1      -3.602  81.203  20.016  1.00  0.00     0.210 HD
ENDBRANCH  16  23
BRANCH  17  25
HETATM   25  O7  UNL     1      -0.488  82.424  20.299  1.00  0.00    -0.274 OA
BRANCH  25  26
HETATM   26  N1  UNL     1       0.199  81.275  20.472  1.00  0.00    -0.310 N 
ATOM     27  H12 UNL     1      -0.111  80.380  20.095  1.00  0.00     0.184 HD
ATOM     28  H11 UNL     1       1.050  81.412  21.017  1.00  0.00     0.184 HD
ENDBRANCH  25  26
ENDBRANCH  17  25
ENDBRANCH  11  12
ENDBRANCH   2  11
BRANCH   1  29
HETATM   29  C6  UNL     1       0.575  80.521  24.215  1.00  0.00     0.047 C 
BRANCH  29  30
HETATM   30  C3  UNL     1       1.546  79.710  23.449  1.00  0.00     0.054 C 
HETATM   31  C4  UNL     1       2.467  79.039  24.485  1.00  0.00     0.045 C 
HETATM   32  C5  UNL     1       0.900  78.555  22.704  1.00  0.00     0.045 C 
BRANCH  30  33
HETATM   33  O1  UNL     1       2.367  80.440  22.636  1.00  0.00    -0.381 OA
BRANCH  33  34
HETATM   34  C2  UNL     1       3.678  80.035  22.633  1.00  0.00     0.164 C 
HETATM   35  C1  UNL     1       4.186  80.063  21.192  1.00  0.00     0.033 C 
ENDBRANCH  33  34
ENDBRANCH  30  33
ENDBRANCH  29  30
ENDBRANCH   1  29
BRANCH  10  36
HETATM   36  O9  UNL     1       0.349  81.698  26.774  1.00  0.00    -0.393 OA
ATOM     37  H9  UNL     1       0.289  82.170  27.596  1.00  0.00     0.210 HD
ENDBRANCH  10  36
TORSDOF 13
ENDMDL
MODEL 2
REMARK VINA RESULT: -6.516079326      1.295      1.670
REMARK  13 active torsions:
REMARK  status: ('A' for Active; 'I' for Inactive)
REMARK    1  A    between atoms: C2_2  and  O1_3 
REMARK    2  A    between atoms: O1_3  and  C3_4 
REMARK    3  A    between atoms: C3_4  and  C6_7 
REMARK    4  A    between atoms: C6_7  and  C7_8 
REMARK    5  A    between atoms: C8_9  and  O2_10 
REMARK    6  A    between atoms: O2_10  and  C9_11 
REMARK    7  A    between atoms: C10_13  and  C11_14 
REMARK    8  A    between atoms: C11_14  and  O4_15 
REMARK    9  A    between atoms: C12_17  and  O5_18 
REMARK   10  A    between atoms: C13_20  and  O6_21 
REMARK   11  A    between atoms: C14_23  and  O7_24 
REMARK   12  A    between atoms: O7_24  and  N1_25 
REMARK   13  A    between atoms: C21_35  and  O9_36 
ROOT
HETATM    1  C7  UNL     1       0.176  82.041  24.455  1.00  0.00     0.049 C 
HETATM    2  C8  UNL     1      -0.556  83.294  23.960  1.00  0.00     0.132 C 
HETATM    3  C15 UNL     1      -0.230  84.500  24.811  1.00  0.00     0.042 C 
HETATM    4  C16 UNL     1       1.245  84.695  24.801  1.00  0.00     0.053 C 
HETATM    5  C17 UNL     1       1.929  83.535  25.432  1.00  0.00     0.158 C 
HETATM    6  O8  UNL     1       2.081  84.238  26.627  1.00  0.00    -0.372 OA
HETATM    7  C18 UNL     1       1.854  85.439  25.940  1.00  0.00     0.060 C 
HETATM    8  C19 UNL     1       3.193  86.035  25.518  1.00  0.00     0.046 C 
HETATM    9  C20 UNL     1       0.950  86.411  26.665  1.00  0.00     0.046 C 
HETATM   10  C21 UNL     1       1.016  82.334  25.648  1.00  0.00     0.154 C 
ENDROOT
BRANCH   2  11
HETATM   11  O2  UNL     1      -0.174  83.623  22.651  1.00  0.00    -0.353 OA
BRANCH  11  12
HETATM   12  C9  UNL     1      -1.294  83.789  21.820  1.00  0.00     0.294 C 
HETATM   13  O3  UNL     1      -0.965  84.721  20.874  1.00  0.00    -0.348 OA
HETATM   14  C10 UNL     1      -1.845  84.903  19.847  1.00  0.00     0.179 C 
HETATM   15  C12 UNL     1      -2.487  83.677  19.303  1.00  0.00     0.180 C 
HETATM   16  C13 UNL     1      -2.787  82.615  20.306  1.00  0.00     0.185 C 
HETATM   17  C14 UNL     1      -1.522  82.439  21.158  1.00  0.00     0.237 C 
BRANCH  14  18
HETATM   18  C11 UNL     1      -2.908  85.958  20.168  1.00  0.00     0.198 C 
BRANCH  18  19
HETATM   19  O4  UNL     1      -2.419  86.988  20.933  1.00  0.00    -0.398 OA
ATOM     20  H4  UNL     1      -2.926  87.131  21.724  1.00  0.00     0.209 HD
ENDBRANCH  18  19
ENDBRANCH  14  18
BRANCH  15  21
HETATM   21  O5  UNL     1      -3.707  84.069  18.709  1.00  0.00    -0.390 OA
ATOM     22  H5  UNL     1      -4.299  84.309  19.412  1.00  0.00     0.210 HD
ENDBRANCH  15  21
BRANCH  16  23
HETATM   23  O6  UNL     1      -2.955  81.407  19.596  1.00  0.00    -0.390 OA
ATOM     24  H6  UNL     1      -2.324  80.788  19.945  1.00  0.00     0.210 HD
ENDBRANCH  16  23
BRANCH  17  25
HETATM   25  O7  UNL     1      -0.495  82.136  20.264  1.00  0.00    -0.274 OA
BRANCH  25  26
HETATM   26  N1  UNL     1       0.218  81.059  20.652  1.00  0.00    -0.310 N 
ATOM     27  H12 UNL     1       1.237  81.057  20.707  1.00  0.00     0.184 HD
ATOM     28  H11 UNL     1      -0.377  80.261  20.878  1.00  0.00     0.184 HD
ENDBRANCH  25  26
ENDBRANCH  17  25
ENDBRANCH  11  12
ENDBRANCH   2  11
BRANCH   1  29
HETATM   29  C6  UNL     1      -0.859  81.018  24.725  1.00  0.00     0.047 C 
BRANCH  29  30
HETATM   30  C3  UNL     1      -0.804  79.737  23.989  1.00  0.00     0.054 C 
HETATM   31  C4  UNL     1      -0.776  78.623  25.052  1.00  0.00     0.045 C 
HETATM   32  C5  UNL     1      -2.058  79.463  23.177  1.00  0.00     0.045 C 
BRANCH  30  33
HETATM   33  O1  UNL     1       0.329  79.568  23.241  1.00  0.00    -0.381 OA
BRANCH  33  34
HETATM   34  C2  UNL     1       1.175  78.588  23.696  1.00  0.00     0.164 C 
HETATM   35  C1  UNL     1       2.613  79.066  23.499  1.00  0.00     0.033 C 
ENDBRANCH  33  34
ENDBRANCH  30  33
ENDBRANCH  29  30
ENDBRANCH   1  29
BRANCH  10  36
HETATM   36  O9  UNL     1       0.299  82.498  26.836  1.00  0.00    -0.393 OA
ATOM     37  H9  UNL     1      -0.076  83.363  26.953  1.00  0.00     0.210 HD
ENDBRANCH  10  36
TORSDOF 13
ENDMDL
MODEL 3
REMARK VINA RESULT: -6.412876554      2.368      7.007
REMARK  13 active torsions:
REMARK  status: ('A' for Active; 'I' for Inactive)
REMARK    1  A    between atoms: C2_2  and  O1_3 
REMARK    2  A    between atoms: O1_3  and  C3_4 
REMARK    3  A    between atoms: C3_4  and  C6_7 
REMARK    4  A    between atoms: C6_7  and  C7_8 
REMARK    5  A    between atoms: C8_9  and  O2_10 
REMARK    6  A    between atoms: O2_10  and  C9_11 
REMARK    7  A    between atoms: C10_13  and  C11_14 
REMARK    8  A    between atoms: C11_14  and  O4_15 
REMARK    9  A    between atoms: C12_17  and  O5_18 
REMARK   10  A    between atoms: C13_20  and  O6_21 
REMARK   11  A    between atoms: C14_23  and  O7_24 
REMARK   12  A    between atoms: O7_24  and  N1_25 
REMARK   13  A    between atoms: C21_35  and  O9_36 
ROOT
HETATM    1  C7  UNL     1      -2.039  83.554  21.572  1.00  0.00     0.049 C 
HETATM    2  C8  UNL     1      -1.295  83.181  22.859  1.00  0.00     0.132 C 
HETATM    3  C15 UNL     1      -1.149  81.683  23.003  1.00  0.00     0.042 C 
HETATM    4  C16 UNL     1      -0.445  81.164  21.799  1.00  0.00     0.053 C 
HETATM    5  C17 UNL     1      -1.260  81.395  20.578  1.00  0.00     0.158 C 
HETATM    6  O8  UNL     1      -1.710  80.075  20.593  1.00  0.00    -0.372 OA
HETATM    7  C18 UNL     1      -0.648  79.732  21.441  1.00  0.00     0.060 C 
HETATM    8  C19 UNL     1       0.524  79.234  20.599  1.00  0.00     0.046 C 
HETATM    9  C20 UNL     1      -1.028  78.805  22.574  1.00  0.00     0.046 C 
HETATM   10  C21 UNL     1      -2.431  82.346  20.797  1.00  0.00     0.154 C 
ENDROOT
BRANCH   2  11
HETATM   11  O2  UNL     1       0.007  83.704  22.863  1.00  0.00    -0.353 OA
BRANCH  11  12
HETATM   12  C9  UNL     1       0.164  84.671  23.870  1.00  0.00     0.294 C 
HETATM   13  O3  UNL     1      -0.700  84.350  24.881  1.00  0.00    -0.348 OA
HETATM   14  C10 UNL     1      -0.584  85.051  26.046  1.00  0.00     0.179 C 
HETATM   15  C12 UNL     1       0.800  85.358  26.496  1.00  0.00     0.180 C 
HETATM   16  C13 UNL     1       1.779  85.638  25.406  1.00  0.00     0.185 C 
HETATM   17  C14 UNL     1       1.599  84.533  24.355  1.00  0.00     0.237 C 
BRANCH  14  18
HETATM   18  C11 UNL     1      -1.435  86.324  26.049  1.00  0.00     0.198 C 
BRANCH  18  19
HETATM   19  O4  UNL     1      -0.949  87.289  25.200  1.00  0.00    -0.398 OA
ATOM     20  H4  UNL     1      -0.350  87.888  25.630  1.00  0.00     0.209 HD
ENDBRANCH  18  19
ENDBRANCH  14  18
BRANCH  15  21
HETATM   21  O5  UNL     1       0.731  86.502  27.320  1.00  0.00    -0.390 OA
ATOM     22  H5  UNL     1      -0.089  86.942  27.125  1.00  0.00     0.210 HD
ENDBRANCH  15  21
BRANCH  16  23
HETATM   23  O6  UNL     1       3.069  85.459  25.949  1.00  0.00    -0.390 OA
ATOM     24  H6  UNL     1       3.008  85.644  26.879  1.00  0.00     0.210 HD
ENDBRANCH  16  23
BRANCH  17  25
HETATM   25  O7  UNL     1       1.791  83.327  25.027  1.00  0.00    -0.274 OA
BRANCH  25  26
HETATM   26  N1  UNL     1       2.189  82.338  24.200  1.00  0.00    -0.310 N 
ATOM     27  H12 UNL     1       1.537  81.768  23.661  1.00  0.00     0.184 HD
ATOM     28  H11 UNL     1       3.203  82.233  24.182  1.00  0.00     0.184 HD
ENDBRANCH  25  26
ENDBRANCH  17  25
ENDBRANCH  11  12
ENDBRANCH   2  11
BRANCH   1  29
HETATM   29  C6  UNL     1      -3.204  84.375  21.973  1.00  0.00     0.047 C 
BRANCH  29  30
HETATM   30  C3  UNL     1      -3.564  85.550  21.151  1.00  0.00     0.054 C 
HETATM   31  C4  UNL     1      -2.238  86.153  20.648  1.00  0.00     0.045 C 
HETATM   32  C5  UNL     1      -4.322  85.183  19.887  1.00  0.00     0.045 C 
BRANCH  30  33
HETATM   33  O1  UNL     1      -4.189  86.549  21.844  1.00  0.00    -0.381 OA
BRANCH  33  34
HETATM   34  C2  UNL     1      -3.659  86.806  23.083  1.00  0.00     0.164 C 
HETATM   35  C1  UNL     1      -4.334  88.056  23.645  1.00  0.00     0.033 C 
ENDBRANCH  33  34
ENDBRANCH  30  33
ENDBRANCH  29  30
ENDBRANCH   1  29
BRANCH  10  36
HETATM   36  O9  UNL     1      -3.513  81.641  21.330  1.00  0.00    -0.393 OA
ATOM     37  H9  UNL     1      -3.673  80.797  20.923  1.00  0.00     0.210 HD
ENDBRANCH  10  36
TORSDOF 13
ENDMDL
MODEL 4
REMARK VINA RESULT: -6.394103085      4.254      9.074
REMARK  13 active torsions:
REMARK  status: ('A' for Active; 'I' for Inactive)
REMARK    1  A    between atoms: C2_2  and  O1_3 
REMARK    2  A    between atoms: O1_3  and  C3_4 
REMARK    3  A    between atoms: C3_4  and  C6_7 
REMARK    4  A    between atoms: C6_7  and  C7_8 
REMARK    5  A    between atoms: C8_9  and  O2_10 
REMARK    6  A    between atoms: O2_10  and  C9_11 
REMARK    7  A    between atoms: C10_13  and  C11_14 
REMARK    8  A    between atoms: C11_14  and  O4_15 
REMARK    9  A    between atoms: C12_17  and  O5_18 
REMARK   10  A    between atoms: C13_20  and  O6_21 
REMARK   11  A    between atoms: C14_23  and  O7_24 
REMARK   12  A    between atoms: O7_24  and  N1_25 
REMARK   13  A    between atoms: C21_35  and  O9_36 
ROOT
HETATM    1  C7  UNL     1      -1.918  86.556  26.186  1.00  0.00     0.049 C 
HETATM    2  C8  UNL     1      -1.351  85.762  27.368  1.00  0.00     0.132 C 
HETATM    3  C15 UNL     1      -0.243  84.831  26.932  1.00  0.00     0.042 C 
HETATM    4  C16 UNL     1       0.814  85.640  26.267  1.00  0.00     0.053 C 
HETATM    5  C17 UNL     1       0.284  86.275  25.032  1.00  0.00     0.158 C 
HETATM    6  O8  UNL     1       0.871  85.290  24.239  1.00  0.00    -0.372 OA
HETATM    7  C18 UNL     1       1.715  84.947  25.303  1.00  0.00     0.060 C 
HETATM    8  C19 UNL     1       3.026  85.715  25.171  1.00  0.00     0.046 C 
HETATM    9  C20 UNL     1       1.892  83.458  25.504  1.00  0.00     0.046 C 
HETATM   10  C21 UNL     1      -1.234  86.204  24.911  1.00  0.00     0.154 C 
ENDROOT
BRANCH   2  11
HETATM   11  O2  UNL     1      -0.792  86.614  28.331  1.00  0.00    -0.353 OA
BRANCH  11  12
HETATM   12  C9  UNL     1      -0.601  85.946  29.553  1.00  0.00     0.294 C 
HETATM   13  O3  UNL     1       0.375  86.617  30.237  1.00  0.00    -0.348 OA
HETATM   14  C10 UNL     1       0.592  86.250  31.533  1.00  0.00     0.179 C 
HETATM   15  C12 UNL     1      -0.617  85.933  32.340  1.00  0.00     0.180 C 
HETATM   16  C13 UNL     1      -1.725  85.268  31.597  1.00  0.00     0.185 C 
HETATM   17  C14 UNL     1      -1.923  86.058  30.296  1.00  0.00     0.237 C 
BRANCH  14  18
HETATM   18  C11 UNL     1       1.620  85.122  31.656  1.00  0.00     0.198 C 
BRANCH  18  19
HETATM   19  O4  UNL     1       2.533  85.343  32.658  1.00  0.00    -0.398 OA
ATOM     20  H4  UNL     1       3.098  86.087  32.482  1.00  0.00     0.209 HD
ENDBRANCH  18  19
ENDBRANCH  14  18
BRANCH  15  21
HETATM   21  O5  UNL     1      -0.212  85.070  33.381  1.00  0.00    -0.390 OA
ATOM     22  H5  UNL     1      -0.917  84.448  33.522  1.00  0.00     0.210 HD
ENDBRANCH  15  21
BRANCH  16  23
HETATM   23  O6  UNL     1      -2.902  85.451  32.353  1.00  0.00    -0.390 OA
ATOM     24  H6  UNL     1      -3.188  86.346  32.212  1.00  0.00     0.210 HD
ENDBRANCH  16  23
BRANCH  17  25
HETATM   25  O7  UNL     1      -2.176  87.375  30.680  1.00  0.00    -0.274 OA
BRANCH  25  26
HETATM   26  N1  UNL     1      -3.493  87.666  30.673  1.00  0.00    -0.310 N 
ATOM     27  H12 UNL     1      -4.214  86.975  30.463  1.00  0.00     0.184 HD
ATOM     28  H11 UNL     1      -3.674  88.644  30.898  1.00  0.00     0.184 HD
ENDBRANCH  25  26
ENDBRANCH  17  25
ENDBRANCH  11  12
ENDBRANCH   2  11
BRANCH   1  29
HETATM   29  C6  UNL     1      -3.372  86.285  26.144  1.00  0.00     0.047 C 
BRANCH  29  30
HETATM   30  C3  UNL     1      -4.217  87.070  25.217  1.00  0.00     0.054 C 
HETATM   31  C4  UNL     1      -5.626  87.108  25.837  1.00  0.00     0.045 C 
HETATM   32  C5  UNL     1      -3.799  88.527  25.123  1.00  0.00     0.045 C 
BRANCH  30  33
HETATM   33  O1  UNL     1      -4.367  86.506  23.981  1.00  0.00    -0.381 OA
BRANCH  33  34
HETATM   34  C2  UNL     1      -4.109  87.350  22.931  1.00  0.00     0.164 C 
HETATM   35  C1  UNL     1      -3.539  86.524  21.779  1.00  0.00     0.033 C 
ENDBRANCH  33  34
ENDBRANCH  30  33
ENDBRANCH  29  30
ENDBRANCH   1  29
BRANCH  10  36
HETATM   36  O9  UNL     1      -1.603  84.967  24.378  1.00  0.00    -0.393 OA
ATOM     37  H9  UNL     1      -1.640  84.942  23.429  1.00  0.00     0.210 HD
ENDBRANCH  10  36
TORSDOF 13
ENDMDL
MODEL 5
REMARK VINA RESULT: -6.208907918      2.148      6.001
REMARK  13 active torsions:
REMARK  status: ('A' for Active; 'I' for Inactive)
REMARK    1  A    between atoms: C2_2  and  O1_3 
REMARK    2  A    between atoms: O1_3  and  C3_4 
REMARK    3  A    between atoms: C3_4  and  C6_7 
REMARK    4  A    between atoms: C6_7  and  C7_8 
REMARK    5  A    between atoms: C8_9  and  O2_10 
REMARK    6  A    between atoms: O2_10  and  C9_11 
REMARK    7  A    between atoms: C10_13  and  C11_14 
REMARK    8  A    between atoms: C11_14  and  O4_15 
REMARK    9  A    between atoms: C12_17  and  O5_18 
REMARK   10  A    between atoms: C13_20  and  O6_21 
REMARK   11  A    between atoms: C14_23  and  O7_24 
REMARK   12  A    between atoms: O7_24  and  N1_25 
REMARK   13  A    between atoms: C21_35  and  O9_36 
ROOT
HETATM    1  C7  UNL     1      -0.366  80.950  22.178  1.00  0.00     0.049 C 
HETATM    2  C8  UNL     1      -0.249  81.471  23.615  1.00  0.00     0.132 C 
HETATM    3  C15 UNL     1       0.603  80.561  24.469  1.00  0.00     0.042 C 
HETATM    4  C16 UNL     1       1.940  80.434  23.827  1.00  0.00     0.053 C 
HETATM    5  C17 UNL     1       1.820  79.778  22.498  1.00  0.00     0.158 C 
HETATM    6  O8  UNL     1       2.223  78.555  23.034  1.00  0.00    -0.372 OA
HETATM    7  C18 UNL     1       2.750  79.225  24.146  1.00  0.00     0.060 C 
HETATM    8  C19 UNL     1       4.229  79.509  23.905  1.00  0.00     0.046 C 
HETATM    9  C20 UNL     1       2.461  78.555  25.472  1.00  0.00     0.046 C 
HETATM   10  C21 UNL     1       0.386  79.678  21.994  1.00  0.00     0.154 C 
ENDROOT
BRANCH   2  11
HETATM   11  O2  UNL     1       0.366  82.731  23.649  1.00  0.00    -0.353 OA
BRANCH  11  12
HETATM   12  C9  UNL     1      -0.025  83.458  24.786  1.00  0.00     0.294 C 
HETATM   13  O3  UNL     1       1.064  84.169  25.210  1.00  0.00    -0.348 OA
HETATM   14  C10 UNL     1       0.862  85.091  26.195  1.00  0.00     0.179 C 
HETATM   15  C12 UNL     1      -0.393  85.886  26.107  1.00  0.00     0.180 C 
HETATM   16  C13 UNL     1      -1.577  85.151  25.575  1.00  0.00     0.185 C 
HETATM   17  C14 UNL     1      -1.111  84.412  24.313  1.00  0.00     0.237 C 
BRANCH  14  18
HETATM   18  C11 UNL     1       1.009  84.492  27.597  1.00  0.00     0.198 C 
BRANCH  18  19
HETATM   19  O4  UNL     1       1.652  85.336  28.469  1.00  0.00    -0.398 OA
ATOM     20  H4  UNL     1       1.191  85.431  29.294  1.00  0.00     0.209 HD
ENDBRANCH  18  19
ENDBRANCH  14  18
BRANCH  15  21
HETATM   21  O5  UNL     1      -0.705  86.326  27.411  1.00  0.00    -0.390 OA
ATOM     22  H5  UNL     1      -1.508  85.890  27.672  1.00  0.00     0.210 HD
ENDBRANCH  15  21
BRANCH  16  23
HETATM   23  O6  UNL     1      -2.508  86.121  25.143  1.00  0.00    -0.390 OA
ATOM     24  H6  UNL     1      -3.251  86.077  25.734  1.00  0.00     0.210 HD
ENDBRANCH  16  23
BRANCH  17  25
HETATM   25  O7  UNL     1      -0.591  85.389  23.465  1.00  0.00    -0.274 OA
BRANCH  25  26
HETATM   26  N1  UNL     1      -1.452  85.723  22.481  1.00  0.00    -0.310 N 
ATOM     27  H12 UNL     1      -2.459  85.794  22.624  1.00  0.00     0.184 HD
ATOM     28  H11 UNL     1      -0.978  85.893  21.594  1.00  0.00     0.184 HD
ENDBRANCH  25  26
ENDBRANCH  17  25
ENDBRANCH  11  12
ENDBRANCH   2  11
BRANCH   1  29
HETATM   29  C6  UNL     1      -1.811  80.801  21.892  1.00  0.00     0.047 C 
BRANCH  29  30
HETATM   30  C3  UNL     1      -2.469  81.794  21.016  1.00  0.00     0.054 C 
HETATM   31  C4  UNL     1      -3.455  82.576  21.904  1.00  0.00     0.045 C 
HETATM   32  C5  UNL     1      -1.511  82.847  20.486  1.00  0.00     0.045 C 
BRANCH  30  33
HETATM   33  O1  UNL     1      -3.222  81.247  20.014  1.00  0.00    -0.381 OA
BRANCH  33  34
HETATM   34  C2  UNL     1      -2.567  80.315  19.249  1.00  0.00     0.164 C 
HETATM   35  C1  UNL     1      -3.595  79.306  18.738  1.00  0.00     0.033 C 
ENDBRANCH  33  34
ENDBRANCH  30  33
ENDBRANCH  29  30
ENDBRANCH   1  29
BRANCH  10  36
HETATM   36  O9  UNL     1      -0.229  78.555  22.553  1.00  0.00    -0.393 OA
ATOM     37  H9  UNL     1       0.372  77.877  22.837  1.00  0.00     0.210 HD
ENDBRANCH  10  36
TORSDOF 13
ENDMDL
