MODEL 1
REMARK VINA RESULT: -7.163462436      0.000      0.000
REMARK  12 active torsions:
REMARK  status: ('A' for Active; 'I' for Inactive)
REMARK    1  A    between atoms: N1_1  and  C1_5 
REMARK    2  A    between atoms: C1_5  and  C2_6 
REMARK    3  A    between atoms: C4_8  and  O1_9 
REMARK    4  A    between atoms: O1_9  and  C5_10 
REMARK    5  A    between atoms: C6_11  and  N2_12 
REMARK    6  A    between atoms: C8_17  and  O2_18 
REMARK    7  A    between atoms: O2_18  and  C9_19 
REMARK    8  A    between atoms: C11_22  and  C12_23 
REMARK    9  A    between atoms: C12_23  and  N3_24 
REMARK       I    between atoms: N3_24  and  C13_26 
REMARK   10  A    between atoms: C13_26  and  C14_28 
REMARK   11  A    between atoms: C20_35  and  N4_36 
REMARK   12  A    between atoms: C22_41  and  O6_42 
ROOT
HETATM    1  C5  UNL     1      -2.256  85.055  22.842  1.00  0.00     0.181 C 
HETATM    2  C6  UNL     1      -3.428  85.974  22.493  1.00  0.00     0.217 C 
HETATM    3  C7  UNL     1      -3.136  85.656  21.041  1.00  0.00     0.070 C 
HETATM    4  C8  UNL     1      -2.510  84.352  21.543  1.00  0.00     0.160 C 
ENDROOT
BRANCH   1   5
HETATM    5  O1  UNL     1      -1.044  85.687  22.987  1.00  0.00    -0.374 OA
BRANCH   5   6
HETATM    6  C4  UNL     1      -0.417  85.319  24.149  1.00  0.00     0.153 C 
HETATM    7  C3  UNL     1      -0.204  86.489  25.103  1.00  0.00     0.043 C 
HETATM    8  C2  UNL     1      -0.013  85.952  26.501  1.00  0.00     0.042 C 
HETATM    9  C22 UNL     1       1.037  84.879  26.454  1.00  0.00     0.126 C 
HETATM   10  C21 UNL     1       1.833  84.920  25.163  1.00  0.00     0.067 C 
HETATM   11  C20 UNL     1       0.947  84.692  23.954  1.00  0.00     0.214 C 
BRANCH   8  12
HETATM   12  C1  UNL     1      -1.283  85.440  27.104  1.00  0.00     0.236 C 
BRANCH  12  13
HETATM   13  N1  UNL     1      -1.053  84.101  27.604  1.00  0.00    -0.079 N 
ATOM     14  H13 UNL     1      -0.671  83.479  26.893  1.00  0.00     0.274 HD
ATOM     15  H12 UNL     1      -0.275  84.059  28.263  1.00  0.00     0.274 HD
ATOM     16  H11 UNL     1      -1.923  83.747  28.004  1.00  0.00     0.274 HD
ENDBRANCH  12  13
ENDBRANCH   8  12
BRANCH   9  17
HETATM   17  O6  UNL     1       1.953  85.112  27.484  1.00  0.00    -0.395 OA
ATOM     18  H6  UNL     1       1.813  84.461  28.163  1.00  0.00     0.210 HD
ENDBRANCH   9  17
BRANCH  11  19
HETATM   19  N4  UNL     1       0.844  83.248  23.773  1.00  0.00    -0.072 N 
ATOM     20  H43 UNL     1       0.131  82.844  24.379  1.00  0.00     0.274 HD
ATOM     21  H42 UNL     1       0.432  83.012  22.869  1.00  0.00     0.274 HD
ATOM     22  H41 UNL     1       1.747  82.794  23.903  1.00  0.00     0.274 HD
ENDBRANCH  11  19
ENDBRANCH   5   6
ENDBRANCH   1   5
BRANCH   2  23
HETATM   23  N2  UNL     1      -3.289  87.343  22.863  1.00  0.00    -0.072 N 
ATOM     24  H23 UNL     1      -3.813  87.523  23.720  1.00  0.00     0.274 HD
ATOM     25  H22 UNL     1      -2.338  87.518  23.187  1.00  0.00     0.274 HD
ATOM     26  H21 UNL     1      -3.542  88.032  22.153  1.00  0.00     0.274 HD
ENDBRANCH   2  23
BRANCH   4  27
HETATM   27  O2  UNL     1      -1.438  84.027  20.756  1.00  0.00    -0.331 OA
BRANCH  27  28
HETATM   28  C9  UNL     1      -1.392  82.640  20.657  1.00  0.00     0.413 C 
HETATM   29  O3  UNL     1      -2.569  82.090  20.126  1.00  0.00    -0.336 OA
HETATM   30  C10 UNL     1      -2.542  80.754  20.520  1.00  0.00     0.207 C 
HETATM   31  C11 UNL     1      -1.938  80.842  21.901  1.00  0.00     0.168 C 
HETATM   32  O5  UNL     1      -1.175  81.994  21.847  1.00  0.00    -0.330 OA
BRANCH  31  33
HETATM   33  C12 UNL     1      -1.095  79.623  22.213  1.00  0.00     0.157 C 
BRANCH  33  34
HETATM   34  N3  UNL     1      -0.043  79.503  21.238  1.00  0.00    -0.354 N 
HETATM   35  C13 UNL     1       1.296  79.875  21.399  1.00  0.00     0.251 C 
HETATM   36  O4  UNL     1       1.659  80.374  22.507  1.00  0.00    -0.268 OA
ATOM     37  H3  UNL     1      -0.301  79.106  20.334  1.00  0.00     0.162 HD
BRANCH  35  38
HETATM   38  C14 UNL     1       2.316  79.731  20.386  1.00  0.00     0.032 A 
HETATM   39  C15 UNL     1       2.063  79.890  19.049  1.00  0.00     0.017 A 
HETATM   40  C16 UNL     1       3.035  79.760  18.060  1.00  0.00     0.001 A 
HETATM   41  C17 UNL     1       4.318  79.455  18.455  1.00  0.00     0.000 A 
HETATM   42  C18 UNL     1       4.624  79.285  19.788  1.00  0.00     0.001 A 
HETATM   43  C19 UNL     1       3.631  79.424  20.727  1.00  0.00     0.017 A 
ENDBRANCH  35  38
ENDBRANCH  33  34
ENDBRANCH  31  33
ENDBRANCH  27  28
ENDBRANCH   4  27
TORSDOF 12
ENDMDL
MODEL 2
REMARK VINA RESULT: -7.102677303      2.661      5.329
REMARK  12 active torsions:
REMARK  status: ('A' for Active; 'I' for Inactive)
REMARK    1  A    between atoms: N1_1  and  C1_5 
REMARK    2  A    between atoms: C1_5  and  C2_6 
REMARK    3  A    between atoms: C4_8  and  O1_9 
REMARK    4  A    between atoms: O1_9  and  C5_10 
REMARK    5  A    between atoms: C6_11  and  N2_12 
REMARK    6  A    between atoms: C8_17  and  O2_18 
REMARK    7  A    between atoms: O2_18  and  C9_19 
REMARK    8  A    between atoms: C11_22  and  C12_23 
REMARK    9  A    between atoms: C12_23  and  N3_24 
REMARK       I    between atoms: N3_24  and  C13_26 
REMARK   10  A    between atoms: C13_26  and  C14_28 
REMARK   11  A    between atoms: C20_35  and  N4_36 
REMARK   12  A    between atoms: C22_41  and  O6_42 
ROOT
HETATM    1  C5  UNL     1      -1.550  84.630  22.161  1.00  0.00     0.181 C 
HETATM    2  C6  UNL     1      -2.609  85.372  21.344  1.00  0.00     0.217 C 
HETATM    3  C7  UNL     1      -1.973  84.755  20.115  1.00  0.00     0.070 C 
HETATM    4  C8  UNL     1      -1.478  83.639  21.040  1.00  0.00     0.160 C 
ENDROOT
BRANCH   1   5
HETATM    5  O1  UNL     1      -0.413  85.353  22.433  1.00  0.00    -0.374 OA
BRANCH   5   6
HETATM    6  C4  UNL     1      -0.069  85.275  23.758  1.00  0.00     0.153 C 
HETATM    7  C3  UNL     1       0.481  83.906  24.147  1.00  0.00     0.043 C 
HETATM    8  C2  UNL     1       1.296  84.048  25.411  1.00  0.00     0.042 C 
HETATM    9  C22 UNL     1       0.471  84.792  26.422  1.00  0.00     0.126 C 
HETATM   10  C21 UNL     1      -0.995  84.835  26.039  1.00  0.00     0.067 C 
HETATM   11  C20 UNL     1      -1.206  85.551  24.718  1.00  0.00     0.214 C 
BRANCH   8  12
HETATM   12  C1  UNL     1       2.610  84.726  25.179  1.00  0.00     0.236 C 
BRANCH  12  13
HETATM   13  N1  UNL     1       2.792  85.745  26.191  1.00  0.00    -0.079 N 
ATOM     14  H13 UNL     1       2.074  86.468  26.151  1.00  0.00     0.274 HD
ATOM     15  H12 UNL     1       2.594  85.401  27.131  1.00  0.00     0.274 HD
ATOM     16  H11 UNL     1       3.734  86.127  26.106  1.00  0.00     0.274 HD
ENDBRANCH  12  13
ENDBRANCH   8  12
BRANCH   9  17
HETATM   17  O6  UNL     1       0.537  84.104  27.637  1.00  0.00    -0.395 OA
ATOM     18  H6  UNL     1       1.452  83.978  27.862  1.00  0.00     0.210 HD
ENDBRANCH   9  17
BRANCH  11  19
HETATM   19  N4  UNL     1      -1.307  86.974  25.022  1.00  0.00    -0.072 N 
ATOM     20  H43 UNL     1      -0.509  87.299  25.566  1.00  0.00     0.274 HD
ATOM     21  H42 UNL     1      -1.172  87.546  24.188  1.00  0.00     0.274 HD
ATOM     22  H41 UNL     1      -2.190  87.191  25.485  1.00  0.00     0.274 HD
ENDBRANCH  11  19
ENDBRANCH   5   6
ENDBRANCH   1   5
BRANCH   2  23
HETATM   23  N2  UNL     1      -2.572  86.796  21.405  1.00  0.00    -0.072 N 
ATOM     24  H23 UNL     1      -2.644  87.100  22.377  1.00  0.00     0.274 HD
ATOM     25  H22 UNL     1      -1.635  87.127  21.176  1.00  0.00     0.274 HD
ATOM     26  H21 UNL     1      -3.260  87.291  20.838  1.00  0.00     0.274 HD
ENDBRANCH   2  23
BRANCH   4  27
HETATM   27  O2  UNL     1      -0.246  83.212  20.624  1.00  0.00    -0.331 OA
BRANCH  27  28
HETATM   28  C9  UNL     1      -0.199  81.832  20.788  1.00  0.00     0.413 C 
HETATM   29  O3  UNL     1       0.744  81.213  19.953  1.00  0.00    -0.336 OA
HETATM   30  C10 UNL     1       0.346  79.878  19.902  1.00  0.00     0.207 C 
HETATM   31  C11 UNL     1      -1.159  79.995  19.904  1.00  0.00     0.168 C 
HETATM   32  O5  UNL     1      -1.390  81.193  20.555  1.00  0.00    -0.330 OA
BRANCH  31  33
HETATM   33  C12 UNL     1      -1.802  78.829  20.626  1.00  0.00     0.157 C 
BRANCH  33  34
HETATM   34  N3  UNL     1      -2.904  79.305  21.421  1.00  0.00    -0.354 N 
HETATM   35  C13 UNL     1      -4.266  79.162  21.137  1.00  0.00     0.251 C 
HETATM   36  O4  UNL     1      -4.605  78.556  20.076  1.00  0.00    -0.268 OA
ATOM     37  H3  UNL     1      -2.667  79.799  22.282  1.00  0.00     0.162 HD
BRANCH  35  38
HETATM   38  C14 UNL     1      -5.336  79.658  21.972  1.00  0.00     0.032 A 
HETATM   39  C15 UNL     1      -5.127  80.530  23.008  1.00  0.00     0.017 A 
HETATM   40  C16 UNL     1      -6.147  81.022  23.819  1.00  0.00     0.001 A 
HETATM   41  C17 UNL     1      -7.433  80.604  23.560  1.00  0.00     0.000 A 
HETATM   42  C18 UNL     1      -7.695  79.726  22.529  1.00  0.00     0.001 A 
HETATM   43  C19 UNL     1      -6.655  79.269  21.757  1.00  0.00     0.017 A 
ENDBRANCH  35  38
ENDBRANCH  33  34
ENDBRANCH  31  33
ENDBRANCH  27  28
ENDBRANCH   4  27
TORSDOF 12
ENDMDL
MODEL 3
REMARK VINA RESULT: -7.096657295      2.243      7.390
REMARK  12 active torsions:
REMARK  status: ('A' for Active; 'I' for Inactive)
REMARK    1  A    between atoms: N1_1  and  C1_5 
REMARK    2  A    between atoms: C1_5  and  C2_6 
REMARK    3  A    between atoms: C4_8  and  O1_9 
REMARK    4  A    between atoms: O1_9  and  C5_10 
REMARK    5  A    between atoms: C6_11  and  N2_12 
REMARK    6  A    between atoms: C8_17  and  O2_18 
REMARK    7  A    between atoms: O2_18  and  C9_19 
REMARK    8  A    between atoms: C11_22  and  C12_23 
REMARK    9  A    between atoms: C12_23  and  N3_24 
REMARK       I    between atoms: N3_24  and  C13_26 
REMARK   10  A    between atoms: C13_26  and  C14_28 
REMARK   11  A    between atoms: C20_35  and  N4_36 
REMARK   12  A    between atoms: C22_41  and  O6_42 
ROOT
HETATM    1  C5  UNL     1      -0.662  80.782  21.486  1.00  0.00     0.181 C 
HETATM    2  C6  UNL     1      -1.613  80.221  20.428  1.00  0.00     0.217 C 
HETATM    3  C7  UNL     1      -2.746  80.716  21.305  1.00  0.00     0.070 C 
HETATM    4  C8  UNL     1      -1.752  81.740  21.859  1.00  0.00     0.160 C 
ENDROOT
BRANCH   1   5
HETATM    5  O1  UNL     1      -0.262  79.883  22.445  1.00  0.00    -0.374 OA
BRANCH   5   6
HETATM    6  C4  UNL     1       1.090  79.942  22.663  1.00  0.00     0.153 C 
HETATM    7  C3  UNL     1       1.793  78.618  22.385  1.00  0.00     0.043 C 
HETATM    8  C2  UNL     1       3.259  78.886  22.136  1.00  0.00     0.042 C 
HETATM    9  C22 UNL     1       3.778  79.741  23.257  1.00  0.00     0.126 C 
HETATM   10  C21 UNL     1       2.835  79.756  24.444  1.00  0.00     0.067 C 
HETATM   11  C20 UNL     1       1.481  80.329  24.073  1.00  0.00     0.214 C 
BRANCH   8  12
HETATM   12  C1  UNL     1       3.513  79.524  20.806  1.00  0.00     0.236 C 
BRANCH  12  13
HETATM   13  N1  UNL     1       4.860  79.198  20.385  1.00  0.00    -0.079 N 
ATOM     14  H13 UNL     1       5.074  78.207  20.496  1.00  0.00     0.274 HD
ATOM     15  H12 UNL     1       4.977  79.256  19.374  1.00  0.00     0.274 HD
ATOM     16  H11 UNL     1       5.514  79.797  20.890  1.00  0.00     0.274 HD
ENDBRANCH  12  13
ENDBRANCH   8  12
BRANCH   9  17
HETATM   17  O6  UNL     1       4.976  79.185  23.717  1.00  0.00    -0.395 OA
ATOM     18  H6  UNL     1       4.933  78.243  23.601  1.00  0.00     0.210 HD
ENDBRANCH   9  17
BRANCH  11  19
HETATM   19  N4  UNL     1       1.583  81.778  24.215  1.00  0.00    -0.072 N 
ATOM     20  H43 UNL     1       2.549  82.074  24.351  1.00  0.00     0.274 HD
ATOM     21  H42 UNL     1       1.396  82.255  23.333  1.00  0.00     0.274 HD
ATOM     22  H41 UNL     1       0.978  82.119  24.962  1.00  0.00     0.274 HD
ENDBRANCH  11  19
ENDBRANCH   5   6
ENDBRANCH   1   5
BRANCH   2  23
HETATM   23  N2  UNL     1      -1.568  78.811  20.221  1.00  0.00    -0.072 N 
ATOM     24  H23 UNL     1      -0.749  78.421  20.689  1.00  0.00     0.274 HD
ATOM     25  H22 UNL     1      -2.316  78.361  20.748  1.00  0.00     0.274 HD
ATOM     26  H21 UNL     1      -1.593  78.495  19.251  1.00  0.00     0.274 HD
ENDBRANCH   2  23
BRANCH   4  27
HETATM   27  O2  UNL     1      -2.008  81.954  23.187  1.00  0.00    -0.331 OA
BRANCH  27  28
HETATM   28  C9  UNL     1      -1.706  83.282  23.467  1.00  0.00     0.413 C 
HETATM   29  O3  UNL     1      -2.327  84.182  22.587  1.00  0.00    -0.336 OA
HETATM   30  C10 UNL     1      -1.584  85.355  22.702  1.00  0.00     0.207 C 
HETATM   31  C11 UNL     1      -0.180  84.827  22.867  1.00  0.00     0.168 C 
HETATM   32  O5  UNL     1      -0.368  83.578  23.431  1.00  0.00    -0.330 OA
BRANCH  31  33
HETATM   33  C12 UNL     1       0.647  85.729  23.760  1.00  0.00     0.157 C 
BRANCH  33  34
HETATM   34  N3  UNL     1       0.338  85.454  25.139  1.00  0.00    -0.354 N 
HETATM   35  C13 UNL     1       1.145  84.779  26.060  1.00  0.00     0.251 C 
HETATM   36  O4  UNL     1       2.274  84.347  25.678  1.00  0.00    -0.268 OA
ATOM     37  H3  UNL     1      -0.564  85.787  25.480  1.00  0.00     0.162 HD
BRANCH  35  38
HETATM   38  C14 UNL     1       0.788  84.531  27.438  1.00  0.00     0.032 A 
HETATM   39  C15 UNL     1      -0.001  83.479  27.823  1.00  0.00     0.017 A 
HETATM   40  C16 UNL     1      -0.350  83.222  29.147  1.00  0.00     0.001 A 
HETATM   41  C17 UNL     1       0.125  84.077  30.116  1.00  0.00     0.000 A 
HETATM   42  C18 UNL     1       0.922  85.151  29.779  1.00  0.00     0.001 A 
HETATM   43  C19 UNL     1       1.240  85.363  28.460  1.00  0.00     0.017 A 
ENDBRANCH  35  38
ENDBRANCH  33  34
ENDBRANCH  31  33
ENDBRANCH  27  28
ENDBRANCH   4  27
TORSDOF 12
ENDMDL
MODEL 4
REMARK VINA RESULT: -7.084031343      2.668      8.416
REMARK  12 active torsions:
REMARK  status: ('A' for Active; 'I' for Inactive)
REMARK    1  A    between atoms: N1_1  and  C1_5 
REMARK    2  A    between atoms: C1_5  and  C2_6 
REMARK    3  A    between atoms: C4_8  and  O1_9 
REMARK    4  A    between atoms: O1_9  and  C5_10 
REMARK    5  A    between atoms: C6_11  and  N2_12 
REMARK    6  A    between atoms: C8_17  and  O2_18 
REMARK    7  A    between atoms: O2_18  and  C9_19 
REMARK    8  A    between atoms: C11_22  and  C12_23 
REMARK    9  A    between atoms: C12_23  and  N3_24 
REMARK       I    between atoms: N3_24  and  C13_26 
REMARK   10  A    between atoms: C13_26  and  C14_28 
REMARK   11  A    between atoms: C20_35  and  N4_36 
REMARK   12  A    between atoms: C22_41  and  O6_42 
ROOT
HETATM    1  C5  UNL     1      -0.617  80.606  21.367  1.00  0.00     0.181 C 
HETATM    2  C6  UNL     1      -1.805  80.047  20.582  1.00  0.00     0.217 C 
HETATM    3  C7  UNL     1      -2.688  80.637  21.663  1.00  0.00     0.070 C 
HETATM    4  C8  UNL     1      -1.554  81.633  21.923  1.00  0.00     0.160 C 
ENDROOT
BRANCH   1   5
HETATM    5  O1  UNL     1      -0.045  79.730  22.259  1.00  0.00    -0.374 OA
BRANCH   5   6
HETATM    6  C4  UNL     1       1.294  79.976  22.422  1.00  0.00     0.153 C 
HETATM    7  C3  UNL     1       2.155  78.737  22.201  1.00  0.00     0.043 C 
HETATM    8  C2  UNL     1       3.565  79.172  21.882  1.00  0.00     0.042 C 
HETATM    9  C22 UNL     1       4.002  80.159  22.926  1.00  0.00     0.126 C 
HETATM   10  C21 UNL     1       3.099  80.133  24.145  1.00  0.00     0.067 C 
HETATM   11  C20 UNL     1       1.672  80.503  23.789  1.00  0.00     0.214 C 
BRANCH   8  12
HETATM   12  C1  UNL     1       3.697  79.746  20.506  1.00  0.00     0.236 C 
BRANCH  12  13
HETATM   13  N1  UNL     1       4.902  79.223  19.898  1.00  0.00    -0.079 N 
ATOM     14  H13 UNL     1       5.590  78.926  20.589  1.00  0.00     0.274 HD
ATOM     15  H12 UNL     1       4.752  78.319  19.449  1.00  0.00     0.274 HD
ATOM     16  H11 UNL     1       5.274  79.922  19.254  1.00  0.00     0.274 HD
ENDBRANCH  12  13
ENDBRANCH   8  12
BRANCH   9  17
HETATM   17  O6  UNL     1       5.274  79.793  23.376  1.00  0.00    -0.395 OA
ATOM     18  H6  UNL     1       5.851  80.542  23.287  1.00  0.00     0.210 HD
ENDBRANCH   9  17
BRANCH  11  19
HETATM   19  N4  UNL     1       1.590  81.959  23.836  1.00  0.00    -0.072 N 
ATOM     20  H43 UNL     1       0.855  82.313  23.223  1.00  0.00     0.274 HD
ATOM     21  H42 UNL     1       1.219  82.286  24.729  1.00  0.00     0.274 HD
ATOM     22  H41 UNL     1       2.491  82.387  23.625  1.00  0.00     0.274 HD
ENDBRANCH  11  19
ENDBRANCH   5   6
ENDBRANCH   1   5
BRANCH   2  23
HETATM   23  N2  UNL     1      -1.863  78.629  20.447  1.00  0.00    -0.072 N 
ATOM     24  H23 UNL     1      -1.371  78.189  21.225  1.00  0.00     0.274 HD
ATOM     25  H22 UNL     1      -2.815  78.305  20.623  1.00  0.00     0.274 HD
ATOM     26  H21 UNL     1      -1.528  78.244  19.564  1.00  0.00     0.274 HD
ENDBRANCH   2  23
BRANCH   4  27
HETATM   27  O2  UNL     1      -1.493  81.918  23.260  1.00  0.00    -0.331 OA
BRANCH  27  28
HETATM   28  C9  UNL     1      -1.654  83.291  23.408  1.00  0.00     0.413 C 
HETATM   29  O3  UNL     1      -1.311  84.009  22.252  1.00  0.00    -0.336 OA
HETATM   30  C10 UNL     1      -1.083  85.310  22.700  1.00  0.00     0.207 C 
HETATM   31  C11 UNL     1      -0.427  85.074  24.039  1.00  0.00     0.168 C 
HETATM   32  O5  UNL     1      -0.919  83.841  24.427  1.00  0.00    -0.330 OA
BRANCH  31  33
HETATM   33  C12 UNL     1      -0.789  86.161  25.030  1.00  0.00     0.157 C 
BRANCH  33  34
HETATM   34  N3  UNL     1      -1.872  86.949  24.504  1.00  0.00    -0.354 N 
HETATM   35  C13 UNL     1      -2.999  87.396  25.202  1.00  0.00     0.251 C 
HETATM   36  O4  UNL     1      -3.115  87.093  26.428  1.00  0.00    -0.268 OA
ATOM     37  H3  UNL     1      -1.813  87.210  23.520  1.00  0.00     0.162 HD
BRANCH  35  38
HETATM   38  C14 UNL     1      -4.061  88.189  24.627  1.00  0.00     0.032 A 
HETATM   39  C15 UNL     1      -5.010  87.664  23.789  1.00  0.00     0.017 A 
HETATM   40  C16 UNL     1      -6.043  88.413  23.230  1.00  0.00     0.001 A 
HETATM   41  C17 UNL     1      -6.106  89.753  23.540  1.00  0.00     0.000 A 
HETATM   42  C18 UNL     1      -5.175  90.329  24.377  1.00  0.00     0.001 A 
HETATM   43  C19 UNL     1      -4.175  89.549  24.905  1.00  0.00     0.017 A 
ENDBRANCH  35  38
ENDBRANCH  33  34
ENDBRANCH  31  33
ENDBRANCH  27  28
ENDBRANCH   4  27
TORSDOF 12
ENDMDL
MODEL 5
REMARK VINA RESULT: -7.032931557      2.300      5.610
REMARK  12 active torsions:
REMARK  status: ('A' for Active; 'I' for Inactive)
REMARK    1  A    between atoms: N1_1  and  C1_5 
REMARK    2  A    between atoms: C1_5  and  C2_6 
REMARK    3  A    between atoms: C4_8  and  O1_9 
REMARK    4  A    between atoms: O1_9  and  C5_10 
REMARK    5  A    between atoms: C6_11  and  N2_12 
REMARK    6  A    between atoms: C8_17  and  O2_18 
REMARK    7  A    between atoms: O2_18  and  C9_19 
REMARK    8  A    between atoms: C11_22  and  C12_23 
REMARK    9  A    between atoms: C12_23  and  N3_24 
REMARK       I    between atoms: N3_24  and  C13_26 
REMARK   10  A    between atoms: C13_26  and  C14_28 
REMARK   11  A    between atoms: C20_35  and  N4_36 
REMARK   12  A    between atoms: C22_41  and  O6_42 
ROOT
HETATM    1  C5  UNL     1      -2.413  81.133  21.435  1.00  0.00     0.181 C 
HETATM    2  C6  UNL     1      -3.318  79.929  21.700  1.00  0.00     0.217 C 
HETATM    3  C7  UNL     1      -2.530  79.206  20.626  1.00  0.00     0.070 C 
HETATM    4  C8  UNL     1      -1.379  80.163  20.951  1.00  0.00     0.160 C 
ENDROOT
BRANCH   1   5
HETATM    5  O1  UNL     1      -2.900  82.038  20.522  1.00  0.00    -0.374 OA
BRANCH   5   6
HETATM    6  C4  UNL     1      -2.773  83.327  20.969  1.00  0.00     0.153 C 
HETATM    7  C3  UNL     1      -3.483  83.566  22.297  1.00  0.00     0.043 C 
HETATM    8  C2  UNL     1      -2.884  84.784  22.959  1.00  0.00     0.042 C 
HETATM    9  C22 UNL     1      -2.863  85.903  21.957  1.00  0.00     0.126 C 
HETATM   10  C21 UNL     1      -3.758  85.617  20.767  1.00  0.00     0.067 C 
HETATM   11  C20 UNL     1      -3.310  84.376  20.018  1.00  0.00     0.214 C 
BRANCH   8  12
HETATM   12  C1  UNL     1      -1.518  84.528  23.514  1.00  0.00     0.236 C 
BRANCH  12  13
HETATM   13  N1  UNL     1      -0.652  85.627  23.141  1.00  0.00    -0.079 N 
ATOM     14  H13 UNL     1      -0.543  86.310  23.891  1.00  0.00     0.274 HD
ATOM     15  H12 UNL     1       0.326  85.345  23.064  1.00  0.00     0.274 HD
ATOM     16  H11 UNL     1      -1.006  86.046  22.281  1.00  0.00     0.274 HD
ENDBRANCH  12  13
ENDBRANCH   8  12
BRANCH   9  17
HETATM   17  O6  UNL     1      -3.379  87.051  22.566  1.00  0.00    -0.395 OA
ATOM     18  H6  UNL     1      -3.353  87.762  21.937  1.00  0.00     0.210 HD
ENDBRANCH   9  17
BRANCH  11  19
HETATM   19  N4  UNL     1      -2.287  84.802  19.069  1.00  0.00    -0.072 N 
ATOM     20  H43 UNL     1      -1.826  85.659  19.374  1.00  0.00     0.274 HD
ATOM     21  H42 UNL     1      -1.481  84.177  19.081  1.00  0.00     0.274 HD
ATOM     22  H41 UNL     1      -2.673  84.898  18.130  1.00  0.00     0.274 HD
ENDBRANCH  11  19
ENDBRANCH   5   6
ENDBRANCH   1   5
BRANCH   2  23
HETATM   23  N2  UNL     1      -4.705  80.109  21.428  1.00  0.00    -0.072 N 
ATOM     24  H23 UNL     1      -4.907  79.828  20.468  1.00  0.00     0.274 HD
ATOM     25  H22 UNL     1      -5.250  79.415  21.942  1.00  0.00     0.274 HD
ATOM     26  H21 UNL     1      -5.085  81.039  21.602  1.00  0.00     0.274 HD
ENDBRANCH   2  23
BRANCH   4  27
HETATM   27  O2  UNL     1      -0.692  80.458  19.804  1.00  0.00    -0.331 OA
BRANCH  27  28
HETATM   28  C9  UNL     1       0.656  80.555  20.131  1.00  0.00     0.413 C 
HETATM   29  O3  UNL     1       1.504  80.251  19.055  1.00  0.00    -0.336 OA
HETATM   30  C10 UNL     1       2.728  79.947  19.647  1.00  0.00     0.207 C 
HETATM   31  C11 UNL     1       2.304  79.225  20.903  1.00  0.00     0.168 C 
HETATM   32  O5  UNL     1       1.047  79.742  21.164  1.00  0.00    -0.330 OA
BRANCH  31  33
HETATM   33  C12 UNL     1       3.267  79.486  22.042  1.00  0.00     0.157 C 
BRANCH  33  34
HETATM   34  N3  UNL     1       2.775  80.572  22.848  1.00  0.00    -0.354 N 
HETATM   35  C13 UNL     1       2.034  80.470  24.030  1.00  0.00     0.251 C 
HETATM   36  O4  UNL     1       1.743  79.316  24.468  1.00  0.00    -0.268 OA
ATOM     37  H3  UNL     1       2.990  81.515  22.524  1.00  0.00     0.162 HD
BRANCH  35  38
HETATM   38  C14 UNL     1       1.565  81.596  24.805  1.00  0.00     0.032 A 
HETATM   39  C15 UNL     1       2.073  82.860  24.661  1.00  0.00     0.017 A 
HETATM   40  C16 UNL     1       1.629  83.957  25.397  1.00  0.00     0.001 A 
HETATM   41  C17 UNL     1       0.625  83.752  26.316  1.00  0.00     0.000 A 
HETATM   42  C18 UNL     1       0.081  82.498  26.498  1.00  0.00     0.001 A 
HETATM   43  C19 UNL     1       0.552  81.447  25.749  1.00  0.00     0.017 A 
ENDBRANCH  35  38
ENDBRANCH  33  34
ENDBRANCH  31  33
ENDBRANCH  27  28
ENDBRANCH   4  27
TORSDOF 12
ENDMDL
