MODEL 1
REMARK VINA RESULT: -6.767161888      0.000      0.000
REMARK  12 active torsions:
REMARK  status: ('A' for Active; 'I' for Inactive)
REMARK    1  A    between atoms: C3_4  and  N2_5 
REMARK       I    between atoms: N2_5  and  C4_7 
REMARK    2  A    between atoms: C4_7  and  C5_9 
REMARK    3  A    between atoms: C5_9  and  N3_10 
REMARK    4  A    between atoms: C6_15  and  C7_16 
REMARK    5  A    between atoms: C7_16  and  O3_17 
REMARK    6  A    between atoms: C8_19  and  O4_20 
REMARK    7  A    between atoms: O4_20  and  C9_21 
REMARK    8  A    between atoms: C9_21  and  C10_23 
REMARK    9  A    between atoms: C10_23  and  N4_24 
REMARK   10  A    between atoms: C11_28  and  O6_29 
REMARK   11  A    between atoms: O6_29  and  C12_30 
REMARK       I    between atoms: C12_30  and  N5_32 
REMARK   12  A    between atoms: N5_32  and  C13_34 
ROOT
HETATM    1  N1  UNL     1      -3.068  86.548  26.329  1.00  0.00    -0.197 NA
HETATM    2  C1  UNL     1      -2.947  86.515  25.190  1.00  0.00     0.071 C 
HETATM    3  C2  UNL     1      -2.774  86.485  23.756  1.00  0.00     0.173 C 
HETATM    4  C3  UNL     1      -4.071  86.865  23.031  1.00  0.00     0.244 C 
HETATM    5  O2  UNL     1      -3.693  87.109  21.737  1.00  0.00    -0.355 OA
HETATM    6  C6  UNL     1      -3.202  86.057  21.032  1.00  0.00     0.179 C 
HETATM    7  C8  UNL     1      -2.625  84.915  21.794  1.00  0.00     0.194 C 
HETATM    8  C11 UNL     1      -2.447  85.091  23.268  1.00  0.00     0.187 C 
ENDROOT
BRANCH   4   9
HETATM    9  N2  UNL     1      -4.695  88.004  23.621  1.00  0.00    -0.332 N 
HETATM   10  C4  UNL     1      -6.018  88.353  23.237  1.00  0.00     0.245 C 
HETATM   11  O1  UNL     1      -6.661  87.687  22.388  1.00  0.00    -0.272 OA
ATOM     12  H2  UNL     1      -4.196  88.563  24.313  1.00  0.00     0.165 HD
BRANCH  10  13
HETATM   13  C5  UNL     1      -6.658  89.538  23.855  1.00  0.00     0.332 C 
BRANCH  13  14
HETATM   14  N3  UNL     1      -5.679  90.577  24.014  1.00  0.00    -0.071 N 
ATOM     15  H33 UNL     1      -4.780  90.216  24.333  1.00  0.00     0.274 HD
ATOM     16  H32 UNL     1      -5.372  90.960  23.120  1.00  0.00     0.274 HD
ATOM     17  H31 UNL     1      -6.049  91.296  24.636  1.00  0.00     0.274 HD
ENDBRANCH  13  14
ENDBRANCH  10  13
ENDBRANCH   4   9
BRANCH   8  18
HETATM   18  O6  UNL     1      -1.139  84.803  23.728  1.00  0.00    -0.294 OA
BRANCH  18  19
HETATM   19  C12 UNL     1      -0.781  83.585  24.284  1.00  0.00     0.361 C 
HETATM   20  O7  UNL     1      -1.279  83.342  25.433  1.00  0.00    -0.238 OA
HETATM   21  N5  UNL     1       0.071  82.684  23.627  1.00  0.00    -0.332 N 
ATOM     22  H5  UNL     1       0.429  82.947  22.710  1.00  0.00     0.165 HD
BRANCH  21  23
HETATM   23  C13 UNL     1       0.474  81.400  24.171  1.00  0.00     0.086 C 
HETATM   24  C14 UNL     1       1.934  81.444  24.467  1.00  0.00     0.025 C 
HETATM   25  C15 UNL     1       2.812  80.624  23.602  1.00  0.00     0.002 C 
HETATM   26  C16 UNL     1       2.783  79.160  23.827  1.00  0.00     0.000 C 
HETATM   27  C17 UNL     1       2.168  78.716  25.116  1.00  0.00     0.000 C 
HETATM   28  C18 UNL     1       0.689  78.727  25.160  1.00  0.00     0.000 C 
HETATM   29  C19 UNL     1      -0.025  78.945  23.884  1.00  0.00     0.002 C 
HETATM   30  C20 UNL     1       0.040  80.287  23.279  1.00  0.00     0.025 C 
ENDBRANCH  21  23
ENDBRANCH  18  19
ENDBRANCH   8  18
BRANCH   7  31
HETATM   31  O4  UNL     1      -1.429  84.421  21.180  1.00  0.00    -0.309 OA
BRANCH  31  32
HETATM   32  C9  UNL     1      -1.308  83.178  20.622  1.00  0.00     0.284 C 
HETATM   33  O5  UNL     1      -0.140  82.718  20.556  1.00  0.00    -0.263 OA
BRANCH  32  34
HETATM   34  C10 UNL     1      -2.491  82.409  20.121  1.00  0.00     0.340 C 
BRANCH  34  35
HETATM   35  N4  UNL     1      -2.437  81.069  20.665  1.00  0.00    -0.070 N 
ATOM     36  H43 UNL     1      -1.738  80.487  20.201  1.00  0.00     0.274 HD
ATOM     37  H42 UNL     1      -2.040  81.044  21.604  1.00  0.00     0.274 HD
ATOM     38  H41 UNL     1      -3.371  80.661  20.625  1.00  0.00     0.274 HD
ENDBRANCH  34  35
ENDBRANCH  32  34
ENDBRANCH  31  32
ENDBRANCH   7  31
BRANCH   6  39
HETATM   39  C7  UNL     1      -4.337  85.587  20.101  1.00  0.00     0.198 C 
BRANCH  39  40
HETATM   40  O3  UNL     1      -5.157  86.697  19.858  1.00  0.00    -0.398 OA
ATOM     41  H3  UNL     1      -5.494  86.607  18.975  1.00  0.00     0.209 HD
ENDBRANCH  39  40
ENDBRANCH   6  39
TORSDOF 12
ENDMDL
MODEL 2
REMARK VINA RESULT: -6.673885018      2.346      8.401
REMARK  12 active torsions:
REMARK  status: ('A' for Active; 'I' for Inactive)
REMARK    1  A    between atoms: C3_4  and  N2_5 
REMARK       I    between atoms: N2_5  and  C4_7 
REMARK    2  A    between atoms: C4_7  and  C5_9 
REMARK    3  A    between atoms: C5_9  and  N3_10 
REMARK    4  A    between atoms: C6_15  and  C7_16 
REMARK    5  A    between atoms: C7_16  and  O3_17 
REMARK    6  A    between atoms: C8_19  and  O4_20 
REMARK    7  A    between atoms: O4_20  and  C9_21 
REMARK    8  A    between atoms: C9_21  and  C10_23 
REMARK    9  A    between atoms: C10_23  and  N4_24 
REMARK   10  A    between atoms: C11_28  and  O6_29 
REMARK   11  A    between atoms: O6_29  and  C12_30 
REMARK       I    between atoms: C12_30  and  N5_32 
REMARK   12  A    between atoms: N5_32  and  C13_34 
ROOT
HETATM    1  N1  UNL     1      -4.089  84.057  20.235  1.00  0.00    -0.197 NA
HETATM    2  C1  UNL     1      -3.142  83.798  20.825  1.00  0.00     0.071 C 
HETATM    3  C2  UNL     1      -1.936  83.488  21.559  1.00  0.00     0.173 C 
HETATM    4  C3  UNL     1      -1.654  81.981  21.553  1.00  0.00     0.244 C 
HETATM    5  O2  UNL     1      -0.358  81.863  21.985  1.00  0.00    -0.355 OA
HETATM    6  C6  UNL     1      -0.097  82.257  23.258  1.00  0.00     0.179 C 
HETATM    7  C8  UNL     1      -1.029  83.231  23.893  1.00  0.00     0.194 C 
HETATM    8  C11 UNL     1      -2.069  83.856  23.020  1.00  0.00     0.187 C 
ENDROOT
BRANCH   4   9
HETATM    9  N2  UNL     1      -1.831  81.413  20.257  1.00  0.00    -0.332 N 
HETATM   10  C4  UNL     1      -2.853  80.446  20.052  1.00  0.00     0.245 C 
HETATM   11  O1  UNL     1      -3.611  80.073  20.982  1.00  0.00    -0.272 OA
ATOM     12  H2  UNL     1      -1.229  81.697  19.484  1.00  0.00     0.165 HD
BRANCH  10  13
HETATM   13  C5  UNL     1      -3.030  79.861  18.702  1.00  0.00     0.332 C 
BRANCH  13  14
HETATM   14  N3  UNL     1      -3.771  78.634  18.810  1.00  0.00    -0.071 N 
ATOM     15  H33 UNL     1      -4.608  78.738  19.383  1.00  0.00     0.274 HD
ATOM     16  H32 UNL     1      -4.225  78.379  17.934  1.00  0.00     0.274 HD
ATOM     17  H31 UNL     1      -3.155  77.898  19.155  1.00  0.00     0.274 HD
ENDBRANCH  13  14
ENDBRANCH  10  13
ENDBRANCH   4   9
BRANCH   8  18
HETATM   18  O6  UNL     1      -2.092  85.271  23.076  1.00  0.00    -0.294 OA
BRANCH  18  19
HETATM   19  C12 UNL     1      -3.065  85.989  23.754  1.00  0.00     0.361 C 
HETATM   20  O7  UNL     1      -3.687  85.341  24.661  1.00  0.00    -0.238 OA
HETATM   21  N5  UNL     1      -3.343  87.332  23.463  1.00  0.00    -0.332 N 
ATOM     22  H5  UNL     1      -2.803  87.783  22.725  1.00  0.00     0.165 HD
BRANCH  21  23
HETATM   23  C13 UNL     1      -4.352  88.122  24.145  1.00  0.00     0.086 C 
HETATM   24  C14 UNL     1      -5.690  87.766  23.593  1.00  0.00     0.025 C 
HETATM   25  C15 UNL     1      -6.365  88.798  22.774  1.00  0.00     0.002 C 
HETATM   26  C16 UNL     1      -6.942  89.951  23.503  1.00  0.00     0.000 C 
HETATM   27  C17 UNL     1      -7.103  89.768  24.979  1.00  0.00     0.000 C 
HETATM   28  C18 UNL     1      -5.867  89.909  25.782  1.00  0.00     0.000 C 
HETATM   29  C19 UNL     1      -4.669  90.436  25.095  1.00  0.00     0.002 C 
HETATM   30  C20 UNL     1      -4.010  89.572  24.099  1.00  0.00     0.025 C 
ENDBRANCH  21  23
ENDBRANCH  18  19
ENDBRANCH   8  18
BRANCH   7  31
HETATM   31  O4  UNL     1      -0.323  84.219  24.652  1.00  0.00    -0.309 OA
BRANCH  31  32
HETATM   32  C9  UNL     1       0.967  84.599  24.407  1.00  0.00     0.284 C 
HETATM   33  O5  UNL     1       1.164  85.203  23.321  1.00  0.00    -0.263 OA
BRANCH  32  34
HETATM   34  C10 UNL     1       2.080  84.319  25.368  1.00  0.00     0.340 C 
BRANCH  34  35
HETATM   35  N4  UNL     1       2.580  85.577  25.880  1.00  0.00    -0.070 N 
ATOM     36  H43 UNL     1       3.083  85.468  26.761  1.00  0.00     0.274 HD
ATOM     37  H42 UNL     1       3.349  85.947  25.322  1.00  0.00     0.274 HD
ATOM     38  H41 UNL     1       1.801  86.233  25.954  1.00  0.00     0.274 HD
ENDBRANCH  34  35
ENDBRANCH  32  34
ENDBRANCH  31  32
ENDBRANCH   7  31
BRANCH   6  39
HETATM   39  C7  UNL     1       0.017  80.969  24.098  1.00  0.00     0.198 C 
BRANCH  39  40
HETATM   40  O3  UNL     1       0.116  81.362  25.440  1.00  0.00    -0.398 OA
ATOM     41  H3  UNL     1      -0.375  82.170  25.532  1.00  0.00     0.209 HD
ENDBRANCH  39  40
ENDBRANCH   6  39
TORSDOF 12
ENDMDL
MODEL 3
REMARK VINA RESULT: -6.621751425      5.522      9.006
REMARK  12 active torsions:
REMARK  status: ('A' for Active; 'I' for Inactive)
REMARK    1  A    between atoms: C3_4  and  N2_5 
REMARK       I    between atoms: N2_5  and  C4_7 
REMARK    2  A    between atoms: C4_7  and  C5_9 
REMARK    3  A    between atoms: C5_9  and  N3_10 
REMARK    4  A    between atoms: C6_15  and  C7_16 
REMARK    5  A    between atoms: C7_16  and  O3_17 
REMARK    6  A    between atoms: C8_19  and  O4_20 
REMARK    7  A    between atoms: O4_20  and  C9_21 
REMARK    8  A    between atoms: C9_21  and  C10_23 
REMARK    9  A    between atoms: C10_23  and  N4_24 
REMARK   10  A    between atoms: C11_28  and  O6_29 
REMARK   11  A    between atoms: O6_29  and  C12_30 
REMARK       I    between atoms: C12_30  and  N5_32 
REMARK   12  A    between atoms: N5_32  and  C13_34 
ROOT
HETATM    1  N1  UNL     1      -4.192  85.858  25.674  1.00  0.00    -0.197 NA
HETATM    2  C1  UNL     1      -3.077  86.068  25.830  1.00  0.00     0.071 C 
HETATM    3  C2  UNL     1      -1.675  86.356  26.030  1.00  0.00     0.173 C 
HETATM    4  C3  UNL     1      -0.807  85.639  24.988  1.00  0.00     0.244 C 
HETATM    5  O2  UNL     1       0.423  86.236  25.083  1.00  0.00    -0.355 OA
HETATM    6  C6  UNL     1       1.092  86.079  26.254  1.00  0.00     0.179 C 
HETATM    7  C8  UNL     1       0.300  85.764  27.475  1.00  0.00     0.194 C 
HETATM    8  C11 UNL     1      -1.190  85.838  27.366  1.00  0.00     0.187 C 
ENDROOT
BRANCH   4   9
HETATM    9  N2  UNL     1      -1.349  85.756  23.674  1.00  0.00    -0.332 N 
HETATM   10  C4  UNL     1      -0.722  85.074  22.596  1.00  0.00     0.245 C 
HETATM   11  O1  UNL     1       0.302  84.365  22.764  1.00  0.00    -0.272 OA
ATOM     12  H2  UNL     1      -2.180  86.325  23.509  1.00  0.00     0.165 HD
BRANCH  10  13
HETATM   13  C5  UNL     1      -1.292  85.202  21.234  1.00  0.00     0.332 C 
BRANCH  13  14
HETATM   14  N3  UNL     1      -2.231  86.290  21.213  1.00  0.00    -0.071 N 
ATOM     15  H33 UNL     1      -3.004  86.146  21.862  1.00  0.00     0.274 HD
ATOM     16  H32 UNL     1      -1.849  87.138  21.630  1.00  0.00     0.274 HD
ATOM     17  H31 UNL     1      -2.552  86.439  20.256  1.00  0.00     0.274 HD
ENDBRANCH  13  14
ENDBRANCH  10  13
ENDBRANCH   4   9
BRANCH   8  18
HETATM   18  O6  UNL     1      -1.799  86.649  28.354  1.00  0.00    -0.294 OA
BRANCH  18  19
HETATM   19  C12 UNL     1      -2.324  86.143  29.534  1.00  0.00     0.361 C 
HETATM   20  O7  UNL     1      -2.672  84.916  29.494  1.00  0.00    -0.238 OA
HETATM   21  N5  UNL     1      -2.461  86.928  30.688  1.00  0.00    -0.332 N 
ATOM     22  H5  UNL     1      -2.159  87.901  30.643  1.00  0.00     0.165 HD
BRANCH  21  23
HETATM   23  C13 UNL     1      -3.005  86.443  31.943  1.00  0.00     0.086 C 
HETATM   24  C14 UNL     1      -4.390  86.971  32.099  1.00  0.00     0.025 C 
HETATM   25  C15 UNL     1      -4.596  87.992  33.151  1.00  0.00     0.002 C 
HETATM   26  C16 UNL     1      -4.593  87.511  34.552  1.00  0.00     0.000 C 
HETATM   27  C17 UNL     1      -4.751  86.034  34.728  1.00  0.00     0.000 C 
HETATM   28  C18 UNL     1      -3.539  85.223  34.472  1.00  0.00     0.000 C 
HETATM   29  C19 UNL     1      -2.262  85.949  34.301  1.00  0.00     0.002 C 
HETATM   30  C20 UNL     1      -2.080  86.742  33.073  1.00  0.00     0.025 C 
ENDBRANCH  21  23
ENDBRANCH  18  19
ENDBRANCH   8  18
BRANCH   7  31
HETATM   31  O4  UNL     1       0.775  86.489  28.615  1.00  0.00    -0.309 OA
BRANCH  31  32
HETATM   32  C9  UNL     1       1.050  85.919  29.827  1.00  0.00     0.284 C 
HETATM   33  O5  UNL     1       1.175  84.668  29.830  1.00  0.00    -0.263 OA
BRANCH  32  34
HETATM   34  C10 UNL     1       1.197  86.731  31.077  1.00  0.00     0.340 C 
BRANCH  34  35
HETATM   35  N4  UNL     1       1.526  88.092  30.710  1.00  0.00    -0.070 N 
ATOM     36  H43 UNL     1       2.389  88.154  30.169  1.00  0.00     0.274 HD
ATOM     37  H42 UNL     1       0.892  88.471  30.006  1.00  0.00     0.274 HD
ATOM     38  H41 UNL     1       1.554  88.662  31.556  1.00  0.00     0.274 HD
ENDBRANCH  34  35
ENDBRANCH  32  34
ENDBRANCH  31  32
ENDBRANCH   7  31
BRANCH   6  39
HETATM   39  C7  UNL     1       2.170  85.006  26.000  1.00  0.00     0.198 C 
BRANCH  39  40
HETATM   40  O3  UNL     1       3.389  85.679  25.835  1.00  0.00    -0.398 OA
ATOM     41  H3  UNL     1       3.602  86.080  26.669  1.00  0.00     0.209 HD
ENDBRANCH  39  40
ENDBRANCH   6  39
TORSDOF 12
ENDMDL
MODEL 4
REMARK VINA RESULT: -6.614772789      3.142      5.708
REMARK  12 active torsions:
REMARK  status: ('A' for Active; 'I' for Inactive)
REMARK    1  A    between atoms: C3_4  and  N2_5 
REMARK       I    between atoms: N2_5  and  C4_7 
REMARK    2  A    between atoms: C4_7  and  C5_9 
REMARK    3  A    between atoms: C5_9  and  N3_10 
REMARK    4  A    between atoms: C6_15  and  C7_16 
REMARK    5  A    between atoms: C7_16  and  O3_17 
REMARK    6  A    between atoms: C8_19  and  O4_20 
REMARK    7  A    between atoms: O4_20  and  C9_21 
REMARK    8  A    between atoms: C9_21  and  C10_23 
REMARK    9  A    between atoms: C10_23  and  N4_24 
REMARK   10  A    between atoms: C11_28  and  O6_29 
REMARK   11  A    between atoms: O6_29  and  C12_30 
REMARK       I    between atoms: C12_30  and  N5_32 
REMARK   12  A    between atoms: N5_32  and  C13_34 
ROOT
HETATM    1  N1  UNL     1       1.662  83.517  24.772  1.00  0.00    -0.197 NA
HETATM    2  C1  UNL     1       0.917  84.379  24.662  1.00  0.00     0.071 C 
HETATM    3  C2  UNL     1      -0.008  85.480  24.511  1.00  0.00     0.173 C 
HETATM    4  C3  UNL     1      -0.664  85.842  25.849  1.00  0.00     0.244 C 
HETATM    5  O2  UNL     1      -1.246  87.064  25.637  1.00  0.00    -0.355 OA
HETATM    6  C6  UNL     1      -2.259  87.113  24.734  1.00  0.00     0.179 C 
HETATM    7  C8  UNL     1      -2.322  86.047  23.696  1.00  0.00     0.194 C 
HETATM    8  C11 UNL     1      -1.158  85.113  23.599  1.00  0.00     0.187 C 
ENDROOT
BRANCH   4   9
HETATM    9  N2  UNL     1       0.287  85.889  26.911  1.00  0.00    -0.332 N 
HETATM   10  C4  UNL     1      -0.142  85.649  28.245  1.00  0.00     0.245 C 
HETATM   11  O1  UNL     1      -1.341  85.395  28.521  1.00  0.00    -0.272 OA
ATOM     12  H2  UNL     1       1.267  86.093  26.715  1.00  0.00     0.165 HD
BRANCH  10  13
HETATM   13  C5  UNL     1       0.853  85.700  29.342  1.00  0.00     0.332 C 
BRANCH  13  14
HETATM   14  N3  UNL     1       0.853  84.444  30.040  1.00  0.00    -0.071 N 
ATOM     15  H33 UNL     1      -0.041  83.959  29.966  1.00  0.00     0.274 HD
ATOM     16  H32 UNL     1       1.435  83.745  29.579  1.00  0.00     0.274 HD
ATOM     17  H31 UNL     1       1.130  84.598  31.010  1.00  0.00     0.274 HD
ENDBRANCH  13  14
ENDBRANCH  10  13
ENDBRANCH   4   9
BRANCH   8  18
HETATM   18  O6  UNL     1      -0.615  85.004  22.295  1.00  0.00    -0.294 OA
BRANCH  18  19
HETATM   19  C12 UNL     1      -1.016  84.040  21.384  1.00  0.00     0.361 C 
HETATM   20  O7  UNL     1      -0.653  84.246  20.177  1.00  0.00    -0.238 OA
HETATM   21  N5  UNL     1      -1.767  82.918  21.762  1.00  0.00    -0.332 N 
ATOM     22  H5  UNL     1      -2.019  82.821  22.746  1.00  0.00     0.165 HD
BRANCH  21  23
HETATM   23  C13 UNL     1      -2.209  81.885  20.843  1.00  0.00     0.086 C 
HETATM   24  C14 UNL     1      -3.561  81.418  21.265  1.00  0.00     0.025 C 
HETATM   25  C15 UNL     1      -3.644  80.050  21.823  1.00  0.00     0.002 C 
HETATM   26  C16 UNL     1      -3.528  78.932  20.858  1.00  0.00     0.000 C 
HETATM   27  C17 UNL     1      -3.709  79.298  19.419  1.00  0.00     0.000 C 
HETATM   28  C18 UNL     1      -2.546  79.946  18.771  1.00  0.00     0.000 C 
HETATM   29  C19 UNL     1      -1.271  79.955  19.520  1.00  0.00     0.002 C 
HETATM   30  C20 UNL     1      -1.179  80.816  20.712  1.00  0.00     0.025 C 
ENDBRANCH  21  23
ENDBRANCH  18  19
ENDBRANCH   8  18
BRANCH   7  31
HETATM   31  O4  UNL     1      -2.672  86.578  22.413  1.00  0.00    -0.309 OA
BRANCH  31  32
HETATM   32  C9  UNL     1      -3.878  86.374  21.801  1.00  0.00     0.284 C 
HETATM   33  O5  UNL     1      -4.856  86.985  22.300  1.00  0.00    -0.263 OA
BRANCH  32  34
HETATM   34  C10 UNL     1      -4.027  85.482  20.608  1.00  0.00     0.340 C 
BRANCH  34  35
HETATM   35  N4  UNL     1      -3.298  86.062  19.500  1.00  0.00    -0.070 N 
ATOM     36  H43 UNL     1      -3.898  86.603  18.878  1.00  0.00     0.274 HD
ATOM     37  H42 UNL     1      -2.680  86.818  19.793  1.00  0.00     0.274 HD
ATOM     38  H41 UNL     1      -2.799  85.317  19.011  1.00  0.00     0.274 HD
ENDBRANCH  34  35
ENDBRANCH  32  34
ENDBRANCH  31  32
ENDBRANCH   7  31
BRANCH   6  39
HETATM   39  C7  UNL     1      -3.567  87.173  25.548  1.00  0.00     0.198 C 
BRANCH  39  40
HETATM   40  O3  UNL     1      -4.383  86.128  25.092  1.00  0.00    -0.398 OA
ATOM     41  H3  UNL     1      -4.730  86.392  24.249  1.00  0.00     0.209 HD
ENDBRANCH  39  40
ENDBRANCH   6  39
TORSDOF 12
ENDMDL
MODEL 5
REMARK VINA RESULT: -6.542110201      3.614      8.520
REMARK  12 active torsions:
REMARK  status: ('A' for Active; 'I' for Inactive)
REMARK    1  A    between atoms: C3_4  and  N2_5 
REMARK       I    between atoms: N2_5  and  C4_7 
REMARK    2  A    between atoms: C4_7  and  C5_9 
REMARK    3  A    between atoms: C5_9  and  N3_10 
REMARK    4  A    between atoms: C6_15  and  C7_16 
REMARK    5  A    between atoms: C7_16  and  O3_17 
REMARK    6  A    between atoms: C8_19  and  O4_20 
REMARK    7  A    between atoms: O4_20  and  C9_21 
REMARK    8  A    between atoms: C9_21  and  C10_23 
REMARK    9  A    between atoms: C10_23  and  N4_24 
REMARK   10  A    between atoms: C11_28  and  O6_29 
REMARK   11  A    between atoms: O6_29  and  C12_30 
REMARK       I    between atoms: C12_30  and  N5_32 
REMARK   12  A    between atoms: N5_32  and  C13_34 
ROOT
HETATM    1  N1  UNL     1      -2.376  86.268  29.640  1.00  0.00    -0.197 NA
HETATM    2  C1  UNL     1      -1.796  85.666  28.858  1.00  0.00     0.071 C 
HETATM    3  C2  UNL     1      -1.078  84.887  27.874  1.00  0.00     0.173 C 
HETATM    4  C3  UNL     1       0.436  84.959  28.105  1.00  0.00     0.244 C 
HETATM    5  O2  UNL     1       0.958  83.952  27.336  1.00  0.00    -0.355 OA
HETATM    6  C6  UNL     1       0.811  84.068  25.991  1.00  0.00     0.179 C 
HETATM    7  C8  UNL     1      -0.297  84.923  25.481  1.00  0.00     0.194 C 
HETATM    8  C11 UNL     1      -1.287  85.433  26.479  1.00  0.00     0.187 C 
ENDROOT
BRANCH   4   9
HETATM    9  N2  UNL     1       0.771  84.797  29.482  1.00  0.00    -0.332 N 
HETATM   10  C4  UNL     1       1.155  85.933  30.245  1.00  0.00     0.245 C 
HETATM   11  O1  UNL     1       1.211  87.083  29.744  1.00  0.00    -0.272 OA
ATOM     12  H2  UNL     1       0.734  83.874  29.915  1.00  0.00     0.165 HD
BRANCH  10  13
HETATM   13  C5  UNL     1       1.502  85.755  31.676  1.00  0.00     0.332 C 
BRANCH  13  14
HETATM   14  N3  UNL     1       2.153  84.487  31.852  1.00  0.00    -0.071 N 
ATOM     15  H33 UNL     1       1.488  83.718  31.930  1.00  0.00     0.274 HD
ATOM     16  H32 UNL     1       2.633  84.178  31.007  1.00  0.00     0.274 HD
ATOM     17  H31 UNL     1       2.780  84.539  32.655  1.00  0.00     0.274 HD
ENDBRANCH  13  14
ENDBRANCH  10  13
ENDBRANCH   4   9
BRANCH   8  18
HETATM   18  O6  UNL     1      -2.635  85.163  26.141  1.00  0.00    -0.294 OA
BRANCH  18  19
HETATM   19  C12 UNL     1      -3.627  86.132  26.138  1.00  0.00     0.361 C 
HETATM   20  O7  UNL     1      -4.568  85.951  26.980  1.00  0.00    -0.238 OA
HETATM   21  N5  UNL     1      -3.595  87.233  25.269  1.00  0.00    -0.332 N 
ATOM     22  H5  UNL     1      -2.809  87.310  24.625  1.00  0.00     0.165 HD
BRANCH  21  23
HETATM   23  C13 UNL     1      -4.610  88.269  25.230  1.00  0.00     0.086 C 
HETATM   24  C14 UNL     1      -5.817  87.729  24.541  1.00  0.00     0.025 C 
HETATM   25  C15 UNL     1      -6.121  88.284  23.203  1.00  0.00     0.002 C 
HETATM   26  C16 UNL     1      -6.679  89.656  23.166  1.00  0.00     0.000 C 
HETATM   27  C17 UNL     1      -7.210  90.174  24.465  1.00  0.00     0.000 C 
HETATM   28  C18 UNL     1      -6.192  90.641  25.433  1.00  0.00     0.000 C 
HETATM   29  C19 UNL     1      -4.802  90.767  24.947  1.00  0.00     0.002 C 
HETATM   30  C20 UNL     1      -4.060  89.529  24.653  1.00  0.00     0.025 C 
ENDBRANCH  21  23
ENDBRANCH  18  19
ENDBRANCH   8  18
BRANCH   7  31
HETATM   31  O4  UNL     1      -0.952  84.325  24.356  1.00  0.00    -0.309 OA
BRANCH  31  32
HETATM   32  C9  UNL     1      -0.956  84.857  23.097  1.00  0.00     0.284 C 
HETATM   33  O5  UNL     1       0.146  84.842  22.492  1.00  0.00    -0.263 OA
BRANCH  32  34
HETATM   34  C10 UNL     1      -2.194  85.423  22.473  1.00  0.00     0.340 C 
BRANCH  34  35
HETATM   35  N4  UNL     1      -1.841  86.021  21.203  1.00  0.00    -0.070 N 
ATOM     36  H43 UNL     1      -0.835  86.017  21.035  1.00  0.00     0.274 HD
ATOM     37  H42 UNL     1      -2.119  85.444  20.409  1.00  0.00     0.274 HD
ATOM     38  H41 UNL     1      -2.239  86.960  21.161  1.00  0.00     0.274 HD
ENDBRANCH  34  35
ENDBRANCH  32  34
ENDBRANCH  31  32
ENDBRANCH   7  31
BRANCH   6  39
HETATM   39  C7  UNL     1       2.172  84.537  25.441  1.00  0.00     0.198 C 
BRANCH  39  40
HETATM   40  O3  UNL     1       1.926  85.654  24.632  1.00  0.00    -0.398 OA
ATOM     41  H3  UNL     1       2.604  86.292  24.822  1.00  0.00     0.209 HD
ENDBRANCH  39  40
ENDBRANCH   6  39
TORSDOF 12
ENDMDL
