MODEL 1
REMARK VINA RESULT: -7.576619836      0.000      0.000
REMARK  11 active torsions:
REMARK  status: ('A' for Active; 'I' for Inactive)
REMARK    1  A    between atoms: C2_2  and  C3_3 
REMARK       I    between atoms: C3_3  and  N1_5 
REMARK    2  A    between atoms: N1_5  and  C4_7 
REMARK    3  A    between atoms: C6_9  and  N2_10 
REMARK    4  A    between atoms: C7_14  and  C8_15 
REMARK    5  A    between atoms: C8_15  and  O2_16 
REMARK    6  A    between atoms: O2_16  and  C9_17 
REMARK    7  A    between atoms: C10_18  and  O3_19 
REMARK    8  A    between atoms: C15_27  and  O4_28 
REMARK    9  A    between atoms: C16_31  and  O6_32 
REMARK   10  A    between atoms: O6_32  and  C17_33 
REMARK   11  A    between atoms: N4_37  and  O7_39 
ROOT
HETATM    1  C4  UNL     1      -3.269  86.105  24.114  1.00  0.00     0.142 C 
HETATM    2  C5  UNL     1      -3.330  84.840  24.875  1.00  0.00     0.065 C 
HETATM    3  C6  UNL     1      -2.091  84.640  25.758  1.00  0.00     0.216 C 
HETATM    4  C7  UNL     1      -2.001  85.829  26.659  1.00  0.00     0.178 C 
HETATM    5  O5  UNL     1      -1.730  86.911  25.776  1.00  0.00    -0.350 OA
HETATM    6  C16 UNL     1      -2.799  87.238  24.994  1.00  0.00     0.283 C 
ENDROOT
BRANCH   4   7
HETATM    7  C8  UNL     1      -0.917  85.829  27.669  1.00  0.00     0.202 C 
BRANCH   7   8
HETATM    8  O2  UNL     1      -1.093  86.251  28.909  1.00  0.00    -0.378 OA
BRANCH   8   9
HETATM    9  C9  UNL     1      -1.455  85.535  29.971  1.00  0.00     0.182 C 
HETATM   10  C10 UNL     1      -2.104  86.404  31.021  1.00  0.00     0.171 C 
HETATM   11  C11 UNL     1      -1.214  86.845  32.129  1.00  0.00     0.104 C 
HETATM   12  C12 UNL     1      -1.493  86.090  33.415  1.00  0.00     0.034 C 
HETATM   13  N3  UNL     1       0.182  86.947  31.822  1.00  0.00    -0.409 N 
HETATM   14  C13 UNL     1       0.741  85.866  31.101  1.00  0.00     0.104 C 
ATOM     15  H3  UNL     1       0.740  87.751  32.108  1.00  0.00     0.154 HD
HETATM   16  C14 UNL     1       1.816  85.117  31.888  1.00  0.00     0.034 C 
HETATM   17  C15 UNL     1      -0.217  84.863  30.583  1.00  0.00     0.171 C 
BRANCH  10  18
HETATM   18  O3  UNL     1      -2.666  87.509  30.334  1.00  0.00    -0.391 OA
ATOM     19  H3  UNL     1      -3.018  88.088  31.000  1.00  0.00     0.210 HD
ENDBRANCH  10  18
BRANCH  17  20
HETATM   20  O4  UNL     1      -0.531  83.874  31.479  1.00  0.00    -0.391 OA
ATOM     21  H4  UNL     1       0.109  83.172  31.499  1.00  0.00     0.210 HD
ENDBRANCH  17  20
ENDBRANCH   8   9
ENDBRANCH   7   8
ENDBRANCH   4   7
BRANCH   3  22
HETATM   22  N2  UNL     1      -0.899  84.581  24.959  1.00  0.00    -0.072 N 
ATOM     23  H23 UNL     1      -0.475  83.655  24.981  1.00  0.00     0.274 HD
ATOM     24  H22 UNL     1      -1.111  84.630  23.962  1.00  0.00     0.274 HD
ATOM     25  H21 UNL     1      -0.239  85.307  25.239  1.00  0.00     0.274 HD
ENDBRANCH   3  22
BRANCH   6  26
HETATM   26  O6  UNL     1      -3.822  87.726  25.817  1.00  0.00    -0.354 OA
BRANCH  26  27
HETATM   27  C17 UNL     1      -4.732  88.452  25.069  1.00  0.00     0.130 C 
HETATM   28  C18 UNL     1      -5.982  88.806  25.843  1.00  0.00     0.038 C 
HETATM   29  C19 UNL     1      -6.505  89.993  25.027  1.00  0.00     0.057 C 
HETATM   30  C20 UNL     1      -5.266  90.765  24.799  1.00  0.00     0.012 C 
HETATM   31  N4  UNL     1      -5.169  92.034  24.764  1.00  0.00    -0.277 N 
HETATM   32  C21 UNL     1      -4.172  89.791  24.622  1.00  0.00     0.086 C 
ATOM     33  H4  UNL     1      -4.242  92.426  24.595  1.00  0.00     0.193 HD
BRANCH  31  34
HETATM   34  O7  UNL     1      -6.191  92.907  24.930  1.00  0.00    -0.290 OA
ATOM     35  H7  UNL     1      -6.287  93.737  24.478  1.00  0.00     0.244 HD
ENDBRANCH  31  34
ENDBRANCH  26  27
ENDBRANCH   6  26
BRANCH   1  36
HETATM   36  N1  UNL     1      -2.594  86.055  22.850  1.00  0.00    -0.348 N 
HETATM   37  C3  UNL     1      -3.265  86.213  21.623  1.00  0.00     0.240 C 
HETATM   38  O1  UNL     1      -4.505  86.404  21.632  1.00  0.00    -0.269 OA
ATOM     39  H1  UNL     1      -1.587  85.900  22.839  1.00  0.00     0.163 HD
BRANCH  37  40
HETATM   40  C2  UNL     1      -2.600  86.166  20.329  1.00  0.00     0.064 C 
HETATM   41  C1  UNL     1      -1.912  85.111  19.924  1.00  0.00     0.017 C 
ENDBRANCH  37  40
ENDBRANCH   1  36
TORSDOF 11
ENDMDL
MODEL 2
REMARK VINA RESULT: -7.490250601      4.280      7.625
REMARK  11 active torsions:
REMARK  status: ('A' for Active; 'I' for Inactive)
REMARK    1  A    between atoms: C2_2  and  C3_3 
REMARK       I    between atoms: C3_3  and  N1_5 
REMARK    2  A    between atoms: N1_5  and  C4_7 
REMARK    3  A    between atoms: C6_9  and  N2_10 
REMARK    4  A    between atoms: C7_14  and  C8_15 
REMARK    5  A    between atoms: C8_15  and  O2_16 
REMARK    6  A    between atoms: O2_16  and  C9_17 
REMARK    7  A    between atoms: C10_18  and  O3_19 
REMARK    8  A    between atoms: C15_27  and  O4_28 
REMARK    9  A    between atoms: C16_31  and  O6_32 
REMARK   10  A    between atoms: O6_32  and  C17_33 
REMARK   11  A    between atoms: N4_37  and  O7_39 
ROOT
HETATM    1  C4  UNL     1      -2.635  85.744  23.853  1.00  0.00     0.142 C 
HETATM    2  C5  UNL     1      -3.556  85.616  25.001  1.00  0.00     0.065 C 
HETATM    3  C6  UNL     1      -4.248  86.946  25.332  1.00  0.00     0.216 C 
HETATM    4  C7  UNL     1      -4.959  87.387  24.093  1.00  0.00     0.178 C 
HETATM    5  O5  UNL     1      -3.908  87.667  23.175  1.00  0.00    -0.350 OA
HETATM    6  C16 UNL     1      -3.270  86.541  22.740  1.00  0.00     0.283 C 
ENDROOT
BRANCH   4   7
HETATM    7  C8  UNL     1      -5.773  88.621  24.188  1.00  0.00     0.202 C 
BRANCH   7   8
HETATM    8  O2  UNL     1      -6.527  88.904  25.236  1.00  0.00    -0.378 OA
BRANCH   8   9
HETATM    9  C9  UNL     1      -6.217  89.668  26.281  1.00  0.00     0.182 C 
HETATM   10  C10 UNL     1      -7.139  89.400  27.446  1.00  0.00     0.171 C 
HETATM   11  C11 UNL     1      -8.271  90.353  27.600  1.00  0.00     0.104 C 
HETATM   12  C12 UNL     1      -8.047  91.318  28.750  1.00  0.00     0.034 C 
HETATM   13  N3  UNL     1      -8.732  90.994  26.404  1.00  0.00    -0.409 N 
HETATM   14  C13 UNL     1      -7.730  91.506  25.547  1.00  0.00     0.104 C 
ATOM     15  H3  UNL     1      -9.724  91.076  26.184  1.00  0.00     0.154 HD
HETATM   16  C14 UNL     1      -7.794  93.026  25.396  1.00  0.00     0.034 C 
HETATM   17  C15 UNL     1      -6.334  91.148  25.888  1.00  0.00     0.171 C 
BRANCH  10  18
HETATM   18  O3  UNL     1      -7.598  88.067  27.296  1.00  0.00    -0.391 OA
ATOM     19  H3  UNL     1      -8.537  88.090  27.439  1.00  0.00     0.210 HD
ENDBRANCH  10  18
BRANCH  17  20
HETATM   20  O4  UNL     1      -5.745  91.992  26.794  1.00  0.00    -0.391 OA
ATOM     21  H4  UNL     1      -5.929  91.758  27.696  1.00  0.00     0.210 HD
ENDBRANCH  17  20
ENDBRANCH   8   9
ENDBRANCH   7   8
ENDBRANCH   4   7
BRANCH   3  22
HETATM   22  N2  UNL     1      -3.283  87.948  25.688  1.00  0.00    -0.072 N 
ATOM     23  H23 UNL     1      -2.416  87.534  26.027  1.00  0.00     0.274 HD
ATOM     24  H22 UNL     1      -2.915  88.425  24.865  1.00  0.00     0.274 HD
ATOM     25  H21 UNL     1      -3.676  88.607  26.361  1.00  0.00     0.274 HD
ENDBRANCH   3  22
BRANCH   6  26
HETATM   26  O6  UNL     1      -4.174  85.776  21.992  1.00  0.00    -0.354 OA
BRANCH  26  27
HETATM   27  C17 UNL     1      -3.535  85.206  20.906  1.00  0.00     0.130 C 
HETATM   28  C18 UNL     1      -2.170  85.804  20.645  1.00  0.00     0.038 C 
HETATM   29  C19 UNL     1      -1.515  84.690  19.822  1.00  0.00     0.057 C 
HETATM   30  C20 UNL     1      -1.906  83.488  20.587  1.00  0.00     0.012 C 
HETATM   31  N4  UNL     1      -1.196  82.445  20.760  1.00  0.00    -0.277 N 
HETATM   32  C21 UNL     1      -3.267  83.725  21.107  1.00  0.00     0.086 C 
ATOM     33  H4  UNL     1      -1.603  81.691  21.315  1.00  0.00     0.193 HD
BRANCH  31  34
HETATM   34  O7  UNL     1       0.052  82.253  20.271  1.00  0.00    -0.290 OA
ATOM     35  H7  UNL     1       0.824  82.061  20.791  1.00  0.00     0.244 HD
ENDBRANCH  31  34
ENDBRANCH  26  27
ENDBRANCH   6  26
BRANCH   1  36
HETATM   36  N1  UNL     1      -1.297  86.162  24.153  1.00  0.00    -0.348 N 
HETATM   37  C3  UNL     1      -0.167  85.387  23.833  1.00  0.00     0.240 C 
HETATM   38  O1  UNL     1      -0.333  84.283  23.260  1.00  0.00    -0.269 OA
ATOM     39  H1  UNL     1      -1.158  87.059  24.618  1.00  0.00     0.163 HD
BRANCH  37  40
HETATM   40  C2  UNL     1       1.200  85.793  24.129  1.00  0.00     0.064 C 
HETATM   41  C1  UNL     1       1.855  85.352  25.190  1.00  0.00     0.017 C 
ENDBRANCH  37  40
ENDBRANCH   1  36
TORSDOF 11
ENDMDL
MODEL 3
REMARK VINA RESULT: -7.414630120      1.302      1.992
REMARK  11 active torsions:
REMARK  status: ('A' for Active; 'I' for Inactive)
REMARK    1  A    between atoms: C2_2  and  C3_3 
REMARK       I    between atoms: C3_3  and  N1_5 
REMARK    2  A    between atoms: N1_5  and  C4_7 
REMARK    3  A    between atoms: C6_9  and  N2_10 
REMARK    4  A    between atoms: C7_14  and  C8_15 
REMARK    5  A    between atoms: C8_15  and  O2_16 
REMARK    6  A    between atoms: O2_16  and  C9_17 
REMARK    7  A    between atoms: C10_18  and  O3_19 
REMARK    8  A    between atoms: C15_27  and  O4_28 
REMARK    9  A    between atoms: C16_31  and  O6_32 
REMARK   10  A    between atoms: O6_32  and  C17_33 
REMARK   11  A    between atoms: N4_37  and  O7_39 
ROOT
HETATM    1  C4  UNL     1      -3.550  86.074  24.445  1.00  0.00     0.142 C 
HETATM    2  C5  UNL     1      -3.767  84.853  25.248  1.00  0.00     0.065 C 
HETATM    3  C6  UNL     1      -2.891  84.831  26.507  1.00  0.00     0.216 C 
HETATM    4  C7  UNL     1      -3.208  86.070  27.281  1.00  0.00     0.178 C 
HETATM    5  O5  UNL     1      -2.738  87.125  26.449  1.00  0.00    -0.350 OA
HETATM    6  C16 UNL     1      -3.499  87.296  25.329  1.00  0.00     0.283 C 
ENDROOT
BRANCH   4   7
HETATM    7  C8  UNL     1      -2.536  86.238  28.590  1.00  0.00     0.202 C 
BRANCH   7   8
HETATM    8  O2  UNL     1      -1.402  85.631  28.896  1.00  0.00    -0.378 OA
BRANCH   8   9
HETATM    9  C9  UNL     1      -0.354  86.137  29.543  1.00  0.00     0.182 C 
HETATM   10  C10 UNL     1       0.757  85.123  29.662  1.00  0.00     0.171 C 
HETATM   11  C11 UNL     1       0.824  84.393  30.958  1.00  0.00     0.104 C 
HETATM   12  C12 UNL     1       1.967  84.885  31.826  1.00  0.00     0.034 C 
HETATM   13  N3  UNL     1      -0.410  84.249  31.672  1.00  0.00    -0.409 N 
HETATM   14  C13 UNL     1      -1.214  85.409  31.765  1.00  0.00     0.104 C 
ATOM     15  H3  UNL     1      -0.692  83.362  32.088  1.00  0.00     0.154 HD
HETATM   16  C14 UNL     1      -1.398  85.893  33.204  1.00  0.00     0.034 C 
HETATM   17  C15 UNL     1      -0.782  86.569  30.953  1.00  0.00     0.171 C 
BRANCH  10  18
HETATM   18  O3  UNL     1       0.604  84.231  28.571  1.00  0.00    -0.391 OA
ATOM     19  H3  UNL     1       1.066  83.436  28.808  1.00  0.00     0.210 HD
ENDBRANCH  10  18
BRANCH  17  20
HETATM   20  O4  UNL     1       0.141  87.372  31.572  1.00  0.00    -0.391 OA
ATOM     21  H4  UNL     1       0.905  86.896  31.877  1.00  0.00     0.210 HD
ENDBRANCH  17  20
ENDBRANCH   8   9
ENDBRANCH   7   8
ENDBRANCH   4   7
BRANCH   3  22
HETATM   22  N2  UNL     1      -1.498  84.852  26.160  1.00  0.00    -0.072 N 
ATOM     23  H23 UNL     1      -1.334  85.354  25.288  1.00  0.00     0.274 HD
ATOM     24  H22 UNL     1      -0.963  85.454  26.786  1.00  0.00     0.274 HD
ATOM     25  H21 UNL     1      -1.117  83.906  26.130  1.00  0.00     0.274 HD
ENDBRANCH   3  22
BRANCH   6  26
HETATM   26  O6  UNL     1      -4.776  87.720  25.717  1.00  0.00    -0.354 OA
BRANCH  26  27
HETATM   27  C17 UNL     1      -5.278  88.629  24.802  1.00  0.00     0.130 C 
HETATM   28  C18 UNL     1      -6.641  89.160  25.185  1.00  0.00     0.038 C 
HETATM   29  C19 UNL     1      -6.690  90.457  24.371  1.00  0.00     0.057 C 
HETATM   30  C20 UNL     1      -5.341  91.009  24.613  1.00  0.00     0.012 C 
HETATM   31  N4  UNL     1      -5.046  92.242  24.736  1.00  0.00    -0.277 N 
HETATM   32  C21 UNL     1      -4.408  89.868  24.685  1.00  0.00     0.086 C 
ATOM     33  H4  UNL     1      -4.066  92.473  24.902  1.00  0.00     0.193 HD
BRANCH  31  34
HETATM   34  O7  UNL     1      -5.924  93.271  24.667  1.00  0.00    -0.290 OA
ATOM     35  H7  UNL     1      -6.290  93.735  25.411  1.00  0.00     0.244 HD
ENDBRANCH  31  34
ENDBRANCH  26  27
ENDBRANCH   6  26
BRANCH   1  36
HETATM   36  N1  UNL     1      -2.484  86.026  23.488  1.00  0.00    -0.348 N 
HETATM   37  C3  UNL     1      -2.675  85.613  22.156  1.00  0.00     0.240 C 
HETATM   38  O1  UNL     1      -3.825  85.272  21.787  1.00  0.00    -0.269 OA
ATOM     39  H1  UNL     1      -1.548  86.302  23.784  1.00  0.00     0.163 HD
BRANCH  37  40
HETATM   40  C2  UNL     1      -1.606  85.556  21.168  1.00  0.00     0.064 C 
HETATM   41  C1  UNL     1      -1.708  84.849  20.055  1.00  0.00     0.017 C 
ENDBRANCH  37  40
ENDBRANCH   1  36
TORSDOF 11
ENDMDL
MODEL 4
REMARK VINA RESULT: -7.392966114      3.866      7.756
REMARK  11 active torsions:
REMARK  status: ('A' for Active; 'I' for Inactive)
REMARK    1  A    between atoms: C2_2  and  C3_3 
REMARK       I    between atoms: C3_3  and  N1_5 
REMARK    2  A    between atoms: N1_5  and  C4_7 
REMARK    3  A    between atoms: C6_9  and  N2_10 
REMARK    4  A    between atoms: C7_14  and  C8_15 
REMARK    5  A    between atoms: C8_15  and  O2_16 
REMARK    6  A    between atoms: O2_16  and  C9_17 
REMARK    7  A    between atoms: C10_18  and  O3_19 
REMARK    8  A    between atoms: C15_27  and  O4_28 
REMARK    9  A    between atoms: C16_31  and  O6_32 
REMARK   10  A    between atoms: O6_32  and  C17_33 
REMARK   11  A    between atoms: N4_37  and  O7_39 
ROOT
HETATM    1  C4  UNL     1      -1.896  84.847  24.701  1.00  0.00     0.142 C 
HETATM    2  C5  UNL     1      -2.560  84.663  26.008  1.00  0.00     0.065 C 
HETATM    3  C6  UNL     1      -3.496  85.831  26.346  1.00  0.00     0.216 C 
HETATM    4  C7  UNL     1      -4.484  85.936  25.229  1.00  0.00     0.178 C 
HETATM    5  O5  UNL     1      -3.697  86.326  24.109  1.00  0.00    -0.350 OA
HETATM    6  C16 UNL     1      -2.880  85.328  23.662  1.00  0.00     0.283 C 
ENDROOT
BRANCH   4   7
HETATM    7  C8  UNL     1      -5.551  86.953  25.366  1.00  0.00     0.202 C 
BRANCH   7   8
HETATM    8  O2  UNL     1      -5.303  88.251  25.400  1.00  0.00    -0.378 OA
BRANCH   8   9
HETATM    9  C9  UNL     1      -5.722  89.185  24.549  1.00  0.00     0.182 C 
HETATM   10  C10 UNL     1      -4.722  90.310  24.434  1.00  0.00     0.171 C 
HETATM   11  C11 UNL     1      -5.011  91.512  25.262  1.00  0.00     0.104 C 
HETATM   12  C12 UNL     1      -5.530  92.666  24.424  1.00  0.00     0.034 C 
HETATM   13  N3  UNL     1      -5.770  91.295  26.459  1.00  0.00    -0.409 N 
HETATM   14  C13 UNL     1      -6.906  90.461  26.332  1.00  0.00     0.104 C 
ATOM     15  H3  UNL     1      -5.506  91.716  27.349  1.00  0.00     0.154 HD
HETATM   16  C14 UNL     1      -8.217  91.191  26.624  1.00  0.00     0.034 C 
HETATM   17  C15 UNL     1      -7.060  89.761  25.036  1.00  0.00     0.171 C 
BRANCH  10  18
HETATM   18  O3  UNL     1      -3.457  89.753  24.749  1.00  0.00    -0.391 OA
ATOM     19  H3  UNL     1      -3.609  88.837  24.948  1.00  0.00     0.210 HD
ENDBRANCH  10  18
BRANCH  17  20
HETATM   20  O4  UNL     1      -7.710  90.495  24.078  1.00  0.00    -0.391 OA
ATOM     21  H4  UNL     1      -7.134  90.797  23.386  1.00  0.00     0.210 HD
ENDBRANCH  17  20
ENDBRANCH   8   9
ENDBRANCH   7   8
ENDBRANCH   4   7
BRANCH   3  22
HETATM   22  N2  UNL     1      -2.765  87.064  26.426  1.00  0.00    -0.072 N 
ATOM     23  H23 UNL     1      -3.332  87.859  26.133  1.00  0.00     0.274 HD
ATOM     24  H22 UNL     1      -2.599  87.342  27.393  1.00  0.00     0.274 HD
ATOM     25  H21 UNL     1      -1.895  87.005  25.896  1.00  0.00     0.274 HD
ENDBRANCH   3  22
BRANCH   6  26
HETATM   26  O6  UNL     1      -3.675  84.287  23.166  1.00  0.00    -0.354 OA
BRANCH  26  27
HETATM   27  C17 UNL     1      -3.245  83.914  21.905  1.00  0.00     0.130 C 
HETATM   28  C18 UNL     1      -2.089  84.751  21.406  1.00  0.00     0.038 C 
HETATM   29  C19 UNL     1      -1.499  83.827  20.335  1.00  0.00     0.057 C 
HETATM   30  C20 UNL     1      -1.511  82.524  21.030  1.00  0.00     0.012 C 
HETATM   31  N4  UNL     1      -0.635  81.606  20.918  1.00  0.00    -0.277 N 
HETATM   32  C21 UNL     1      -2.723  82.489  21.873  1.00  0.00     0.086 C 
ATOM     33  H4  UNL     1      -0.778  80.755  21.463  1.00  0.00     0.193 HD
BRANCH  31  34
HETATM   34  O7  UNL     1       0.469  81.664  20.137  1.00  0.00    -0.290 OA
ATOM     35  H7  UNL     1       1.275  82.120  20.353  1.00  0.00     0.244 HD
ENDBRANCH  31  34
ENDBRANCH  26  27
ENDBRANCH   6  26
BRANCH   1  36
HETATM   36  N1  UNL     1      -0.673  85.594  24.707  1.00  0.00    -0.348 N 
HETATM   37  C3  UNL     1       0.521  85.103  24.148  1.00  0.00     0.240 C 
HETATM   38  O1  UNL     1       0.520  83.964  23.622  1.00  0.00    -0.269 OA
ATOM     39  H1  UNL     1      -0.668  86.520  25.135  1.00  0.00     0.163 HD
BRANCH  37  40
HETATM   40  C2  UNL     1       1.775  85.844  24.145  1.00  0.00     0.064 C 
HETATM   41  C1  UNL     1       2.709  85.660  25.063  1.00  0.00     0.017 C 
ENDBRANCH  37  40
ENDBRANCH   1  36
TORSDOF 11
ENDMDL
MODEL 5
REMARK VINA RESULT: -7.388215215      3.866      6.039
REMARK  11 active torsions:
REMARK  status: ('A' for Active; 'I' for Inactive)
REMARK    1  A    between atoms: C2_2  and  C3_3 
REMARK       I    between atoms: C3_3  and  N1_5 
REMARK    2  A    between atoms: N1_5  and  C4_7 
REMARK    3  A    between atoms: C6_9  and  N2_10 
REMARK    4  A    between atoms: C7_14  and  C8_15 
REMARK    5  A    between atoms: C8_15  and  O2_16 
REMARK    6  A    between atoms: O2_16  and  C9_17 
REMARK    7  A    between atoms: C10_18  and  O3_19 
REMARK    8  A    between atoms: C15_27  and  O4_28 
REMARK    9  A    between atoms: C16_31  and  O6_32 
REMARK   10  A    between atoms: O6_32  and  C17_33 
REMARK   11  A    between atoms: N4_37  and  O7_39 
ROOT
HETATM    1  C4  UNL     1      -0.866  84.651  22.252  1.00  0.00     0.142 C 
HETATM    2  C5  UNL     1       0.235  85.129  23.114  1.00  0.00     0.065 C 
HETATM    3  C6  UNL     1      -0.201  85.265  24.579  1.00  0.00     0.216 C 
HETATM    4  C7  UNL     1      -0.705  83.925  25.010  1.00  0.00     0.178 C 
HETATM    5  O5  UNL     1      -1.878  83.731  24.229  1.00  0.00    -0.350 OA
HETATM    6  C16 UNL     1      -1.607  83.512  22.909  1.00  0.00     0.283 C 
ENDROOT
BRANCH   4   7
HETATM    7  C8  UNL     1      -1.115  83.782  26.426  1.00  0.00     0.202 C 
BRANCH   7   8
HETATM    8  O2  UNL     1      -0.355  84.172  27.435  1.00  0.00    -0.378 OA
BRANCH   8   9
HETATM    9  C9  UNL     1      -0.502  85.255  28.196  1.00  0.00     0.182 C 
HETATM   10  C10 UNL     1       0.833  85.767  28.680  1.00  0.00     0.171 C 
HETATM   11  C11 UNL     1       1.220  85.350  30.055  1.00  0.00     0.104 C 
HETATM   12  C12 UNL     1       1.078  86.486  31.052  1.00  0.00     0.034 C 
HETATM   13  N3  UNL     1       0.672  84.112  30.524  1.00  0.00    -0.409 N 
HETATM   14  C13 UNL     1      -0.708  83.913  30.285  1.00  0.00     0.104 C 
ATOM     15  H3  UNL     1       1.243  83.415  31.001  1.00  0.00     0.154 HD
HETATM   16  C14 UNL     1      -1.526  83.806  31.573  1.00  0.00     0.034 C 
HETATM   17  C15 UNL     1      -1.370  84.912  29.415  1.00  0.00     0.171 C 
BRANCH  10  18
HETATM   18  O3  UNL     1       1.793  85.353  27.722  1.00  0.00    -0.391 OA
ATOM     19  H3  UNL     1       1.697  85.936  26.978  1.00  0.00     0.210 HD
ENDBRANCH  10  18
BRANCH  17  20
HETATM   20  O4  UNL     1      -1.824  86.021  30.081  1.00  0.00    -0.391 OA
ATOM     21  H4  UNL     1      -1.726  85.956  31.024  1.00  0.00     0.210 HD
ENDBRANCH  17  20
ENDBRANCH   8   9
ENDBRANCH   7   8
ENDBRANCH   4   7
BRANCH   3  22
HETATM   22  N2  UNL     1      -1.268  86.217  24.708  1.00  0.00    -0.072 N 
ATOM     23  H23 UNL     1      -0.968  87.054  25.207  1.00  0.00     0.274 HD
ATOM     24  H22 UNL     1      -1.501  86.646  23.813  1.00  0.00     0.274 HD
ATOM     25  H21 UNL     1      -2.085  85.789  25.145  1.00  0.00     0.274 HD
ENDBRANCH   3  22
BRANCH   6  26
HETATM   26  O6  UNL     1      -0.920  82.297  22.790  1.00  0.00    -0.354 OA
BRANCH  26  27
HETATM   27  C17 UNL     1      -1.754  81.325  22.267  1.00  0.00     0.130 C 
HETATM   28  C18 UNL     1      -3.105  81.866  21.856  1.00  0.00     0.038 C 
HETATM   29  C19 UNL     1      -3.566  80.788  20.870  1.00  0.00     0.057 C 
HETATM   30  C20 UNL     1      -2.338  80.567  20.078  1.00  0.00     0.012 C 
HETATM   31  N4  UNL     1      -2.286  80.307  18.833  1.00  0.00    -0.277 N 
HETATM   32  C21 UNL     1      -1.193  80.705  20.999  1.00  0.00     0.086 C 
ATOM     33  H4  UNL     1      -1.361  80.179  18.421  1.00  0.00     0.193 HD
BRANCH  31  34
HETATM   34  O7  UNL     1      -3.354  80.186  18.009  1.00  0.00    -0.290 OA
ATOM     35  H7  UNL     1      -4.107  79.627  18.161  1.00  0.00     0.244 HD
ENDBRANCH  31  34
ENDBRANCH  26  27
ENDBRANCH   6  26
BRANCH   1  36
HETATM   36  N1  UNL     1      -1.737  85.655  21.716  1.00  0.00    -0.348 N 
HETATM   37  C3  UNL     1      -2.303  85.564  20.431  1.00  0.00     0.240 C 
HETATM   38  O1  UNL     1      -2.036  84.564  19.721  1.00  0.00    -0.269 OA
ATOM     39  H1  UNL     1      -1.956  86.469  22.290  1.00  0.00     0.163 HD
BRANCH  37  40
HETATM   40  C2  UNL     1      -3.189  86.573  19.867  1.00  0.00     0.064 C 
HETATM   41  C1  UNL     1      -4.506  86.452  19.892  1.00  0.00     0.017 C 
ENDBRANCH  37  40
ENDBRANCH   1  36
TORSDOF 11
ENDMDL
