MODEL 1
REMARK VINA RESULT: -7.449627389      0.000      0.000
REMARK  15 active torsions:
REMARK  status: ('A' for Active; 'I' for Inactive)
REMARK    1  A    between atoms: C4_4  and  C5_5 
REMARK    2  A    between atoms: C5_5  and  C6_6 
REMARK    3  A    between atoms: C6_6  and  C7_7 
REMARK    4  A    between atoms: C7_7  and  C8_8 
REMARK    5  A    between atoms: C7_7  and  C9_13 
REMARK    6  A    between atoms: C16_21  and  O1_22 
REMARK    7  A    between atoms: O1_22  and  C17_23 
REMARK    8  A    between atoms: C18_24  and  C19_25 
REMARK    9  A    between atoms: C19_25  and  C20_26 
REMARK   10  A    between atoms: C20_26  and  O2_27 
REMARK   11  A    between atoms: C21_30  and  C22_31 
REMARK   12  A    between atoms: C22_31  and  C24_33 
REMARK   13  A    between atoms: C25_34  and  C26_35 
REMARK   14  A    between atoms: C26_35  and  O4_37 
REMARK   15  A    between atoms: C31_42  and  C32_43 
ROOT
HETATM    1  C9  UNL     1      36.219  -6.433 -15.171  1.00  0.00     0.018 C 
HETATM    2  C10 UNL     1      36.536  -6.243 -16.667  1.00  0.00     0.007 C 
HETATM    3  C11 UNL     1      35.570  -5.151 -17.156  1.00  0.00     0.009 C 
HETATM    4  C12 UNL     1      35.190  -4.593 -15.826  1.00  0.00     0.042 C 
HETATM    5  C13 UNL     1      34.280  -3.482 -15.722  1.00  0.00     0.175 C 
HETATM    6  F1  UNL     1      33.037  -3.536 -16.243  1.00  0.00    -0.249 F 
HETATM    7  C14 UNL     1      34.279  -3.050 -14.248  1.00  0.00     0.040 C 
HETATM    8  C15 UNL     1      34.971  -4.121 -13.394  1.00  0.00     0.036 C 
HETATM    9  C16 UNL     1      34.370  -5.515 -13.740  1.00  0.00     0.142 C 
HETATM   10  C31 UNL     1      34.840  -5.890 -15.084  1.00  0.00     0.085 C 
ENDROOT
BRANCH   9  11
HETATM   11  O1  UNL     1      33.044  -5.333 -13.533  1.00  0.00    -0.376 OA
BRANCH  11  12
HETATM   12  C17 UNL     1      32.388  -6.244 -12.724  1.00  0.00     0.161 C 
HETATM   13  C18 UNL     1      33.318  -6.770 -11.614  1.00  0.00     0.153 C 
HETATM   14  O3  UNL     1      32.566  -6.864 -10.447  1.00  0.00    -0.376 OA
HETATM   15  C21 UNL     1      31.287  -6.487 -10.724  1.00  0.00     0.139 C 
HETATM   16  C28 UNL     1      31.381  -5.546 -11.863  1.00  0.00     0.008 C 
HETATM   17  C29 UNL     1      30.019  -5.426 -12.497  1.00  0.00     0.020 C 
HETATM   18  C30 UNL     1      31.995  -4.212 -11.499  1.00  0.00     0.020 C 
BRANCH  13  19
HETATM   19  C19 UNL     1      33.708  -8.236 -11.886  1.00  0.00     0.060 C 
BRANCH  19  20
HETATM   20  C20 UNL     1      34.306  -8.749 -10.588  1.00  0.00     0.166 C 
BRANCH  20  21
HETATM   21  O2  UNL     1      33.343  -9.483  -9.867  1.00  0.00    -0.401 OA
ATOM     22  H2  UNL     1      32.863  -8.906  -9.284  1.00  0.00     0.209 HD
ENDBRANCH  20  21
ENDBRANCH  19  20
ENDBRANCH  13  19
BRANCH  15  23
HETATM   23  C22 UNL     1      30.492  -6.178  -9.532  1.00  0.00     0.034 C 
HETATM   24  C23 UNL     1      29.813  -7.416  -8.985  1.00  0.00     0.017 C 
BRANCH  23  25
HETATM   25  C24 UNL     1      31.131  -5.397  -8.468  1.00  0.00    -0.021 C 
HETATM   26  C25 UNL     1      31.435  -5.944  -7.312  1.00  0.00     0.001 C 
BRANCH  26  27
HETATM   27  C26 UNL     1      32.076  -5.258  -6.182  1.00  0.00     0.136 C 
HETATM   28  C27 UNL     1      32.506  -3.843  -6.493  1.00  0.00     0.043 C 
BRANCH  27  29
HETATM   29  O4  UNL     1      31.218  -5.309  -5.088  1.00  0.00    -0.392 OA
ATOM     30  H4  UNL     1      30.957  -4.423  -4.866  1.00  0.00     0.210 HD
ENDBRANCH  27  29
ENDBRANCH  26  27
ENDBRANCH  23  25
ENDBRANCH  15  23
ENDBRANCH  11  12
ENDBRANCH   9  11
BRANCH  10  31
HETATM   31  C32 UNL     1      33.928  -6.714 -15.842  1.00  0.00     0.185 C 
HETATM   32  O5  UNL     1      33.800  -7.934 -15.587  1.00  0.00    -0.647 OA
HETATM   33  O6  UNL     1      33.104  -6.327 -16.894  1.00  0.00    -0.647 OA
ENDBRANCH  10  31
BRANCH   1  34
HETATM   34  C7  UNL     1      36.632  -7.771 -14.799  1.00  0.00     0.055 C 
BRANCH  34  35
HETATM   35  C6  UNL     1      37.333  -8.341 -16.075  1.00  0.00     0.016 C 
BRANCH  35  36
HETATM   36  C5  UNL     1      36.959  -9.783 -16.280  1.00  0.00     0.028 C 
BRANCH  36  37
HETATM   37  C4  UNL     1      38.210 -10.565 -16.397  1.00  0.00    -0.025 C 
HETATM   38  C2  UNL     1      38.344 -11.441 -17.379  1.00  0.00    -0.091 C 
HETATM   39  C1  UNL     1      37.250 -11.630 -18.353  1.00  0.00     0.042 C 
HETATM   40  C3  UNL     1      39.582 -12.226 -17.499  1.00  0.00     0.042 C 
ENDBRANCH  36  37
ENDBRANCH  35  36
ENDBRANCH  34  35
BRANCH  34  41
HETATM   41  C8  UNL     1      37.632  -7.919 -13.733  1.00  0.00     0.091 C 
HETATM   42  N1  UNL     1      37.284  -7.895 -12.512  1.00  0.00    -0.391 N 
ATOM     43  H12 UNL     1      36.297  -7.762 -12.291  1.00  0.00     0.157 HD
ATOM     44  H11 UNL     1      37.978  -7.998 -11.772  1.00  0.00     0.157 HD
HETATM   45  N2  UNL     1      39.003  -8.104 -14.041  1.00  0.00    -0.088 NA
ENDBRANCH  34  41
ENDBRANCH   1  34
TORSDOF 15
ENDMDL
MODEL 2
REMARK VINA RESULT: -7.298333847      2.500      8.564
REMARK  15 active torsions:
REMARK  status: ('A' for Active; 'I' for Inactive)
REMARK    1  A    between atoms: C4_4  and  C5_5 
REMARK    2  A    between atoms: C5_5  and  C6_6 
REMARK    3  A    between atoms: C6_6  and  C7_7 
REMARK    4  A    between atoms: C7_7  and  C8_8 
REMARK    5  A    between atoms: C7_7  and  C9_13 
REMARK    6  A    between atoms: C16_21  and  O1_22 
REMARK    7  A    between atoms: O1_22  and  C17_23 
REMARK    8  A    between atoms: C18_24  and  C19_25 
REMARK    9  A    between atoms: C19_25  and  C20_26 
REMARK   10  A    between atoms: C20_26  and  O2_27 
REMARK   11  A    between atoms: C21_30  and  C22_31 
REMARK   12  A    between atoms: C22_31  and  C24_33 
REMARK   13  A    between atoms: C25_34  and  C26_35 
REMARK   14  A    between atoms: C26_35  and  O4_37 
REMARK   15  A    between atoms: C31_42  and  C32_43 
ROOT
HETATM    1  C9  UNL     1      30.920  -6.948 -11.659  1.00  0.00     0.018 C 
HETATM    2  C10 UNL     1      29.739  -5.958 -11.626  1.00  0.00     0.007 C 
HETATM    3  C11 UNL     1      29.543  -5.505 -13.083  1.00  0.00     0.009 C 
HETATM    4  C12 UNL     1      30.303  -6.601 -13.749  1.00  0.00     0.042 C 
HETATM    5  C13 UNL     1      30.413  -6.659 -15.184  1.00  0.00     0.175 C 
HETATM    6  F1  UNL     1      30.932  -5.638 -15.894  1.00  0.00    -0.249 F 
HETATM    7  C14 UNL     1      31.075  -8.004 -15.521  1.00  0.00     0.040 C 
HETATM    8  C15 UNL     1      31.653  -8.631 -14.245  1.00  0.00     0.036 C 
HETATM    9  C16 UNL     1      32.512  -7.567 -13.499  1.00  0.00     0.142 C 
HETATM   10  C31 UNL     1      31.596  -6.569 -12.924  1.00  0.00     0.085 C 
ENDROOT
BRANCH   9  11
HETATM   11  O1  UNL     1      33.401  -7.179 -14.445  1.00  0.00    -0.376 OA
BRANCH  11  12
HETATM   12  C17 UNL     1      34.747  -7.299 -14.149  1.00  0.00     0.161 C 
HETATM   13  C18 UNL     1      35.074  -8.707 -13.616  1.00  0.00     0.153 C 
HETATM   14  O3  UNL     1      36.292  -9.091 -14.169  1.00  0.00    -0.376 OA
HETATM   15  C21 UNL     1      36.755  -8.076 -14.948  1.00  0.00     0.139 C 
HETATM   16  C28 UNL     1      35.555  -7.342 -15.410  1.00  0.00     0.008 C 
HETATM   17  C29 UNL     1      35.985  -5.984 -15.902  1.00  0.00     0.020 C 
HETATM   18  C30 UNL     1      34.723  -8.110 -16.414  1.00  0.00     0.020 C 
BRANCH  13  19
HETATM   19  C19 UNL     1      35.388  -8.653 -12.108  1.00  0.00     0.060 C 
BRANCH  19  20
HETATM   20  C20 UNL     1      35.031 -10.025 -11.565  1.00  0.00     0.166 C 
BRANCH  20  21
HETATM   21  O2  UNL     1      34.218 -10.715 -12.487  1.00  0.00    -0.401 OA
ATOM     22  H2  UNL     1      34.605 -11.557 -12.697  1.00  0.00     0.209 HD
ENDBRANCH  20  21
ENDBRANCH  19  20
ENDBRANCH  13  19
BRANCH  15  23
HETATM   23  C22 UNL     1      37.817  -8.479 -15.875  1.00  0.00     0.034 C 
HETATM   24  C23 UNL     1      39.148  -7.871 -15.488  1.00  0.00     0.017 C 
BRANCH  23  25
HETATM   25  C24 UNL     1      37.945  -9.907 -16.187  1.00  0.00    -0.021 C 
HETATM   26  C25 UNL     1      39.069 -10.402 -16.654  1.00  0.00     0.001 C 
BRANCH  26  27
HETATM   27  C26 UNL     1      39.307 -11.811 -16.997  1.00  0.00     0.136 C 
HETATM   28  C27 UNL     1      39.047 -12.136 -18.450  1.00  0.00     0.043 C 
BRANCH  27  29
HETATM   29  O4  UNL     1      40.602 -12.148 -16.615  1.00  0.00    -0.392 OA
ATOM     30  H4  UNL     1      40.921 -12.828 -17.197  1.00  0.00     0.210 HD
ENDBRANCH  27  29
ENDBRANCH  26  27
ENDBRANCH  23  25
ENDBRANCH  15  23
ENDBRANCH  11  12
ENDBRANCH   9  11
BRANCH  10  31
HETATM   31  C32 UNL     1      32.136  -5.232 -12.822  1.00  0.00     0.185 C 
HETATM   32  O5  UNL     1      33.037  -4.964 -11.994  1.00  0.00    -0.647 OA
HETATM   33  O6  UNL     1      31.780  -4.111 -13.564  1.00  0.00    -0.647 OA
ENDBRANCH  10  31
BRANCH   1  34
HETATM   34  C7  UNL     1      31.522  -6.959 -10.341  1.00  0.00     0.055 C 
BRANCH  34  35
HETATM   35  C6  UNL     1      30.320  -6.814  -9.351  1.00  0.00     0.016 C 
BRANCH  35  36
HETATM   36  C5  UNL     1      30.648  -5.823  -8.268  1.00  0.00     0.028 C 
BRANCH  36  37
HETATM   37  C4  UNL     1      31.666  -4.889  -8.798  1.00  0.00    -0.025 C 
HETATM   38  C2  UNL     1      32.465  -4.249  -7.961  1.00  0.00    -0.091 C 
HETATM   39  C1  UNL     1      32.340  -4.472  -6.506  1.00  0.00     0.042 C 
HETATM   40  C3  UNL     1      33.476  -3.315  -8.480  1.00  0.00     0.042 C 
ENDBRANCH  36  37
ENDBRANCH  35  36
ENDBRANCH  34  35
BRANCH  34  41
HETATM   41  C8  UNL     1      32.214  -8.179  -9.902  1.00  0.00     0.091 C 
HETATM   42  N1  UNL     1      32.026  -9.281 -10.503  1.00  0.00    -0.391 N 
ATOM     43  H12 UNL     1      31.376  -9.301 -11.290  1.00  0.00     0.157 HD
ATOM     44  H11 UNL     1      32.506 -10.128 -10.199  1.00  0.00     0.157 HD
HETATM   45  N2  UNL     1      33.116  -8.151  -8.810  1.00  0.00    -0.088 NA
ENDBRANCH  34  41
ENDBRANCH   1  34
TORSDOF 15
ENDMDL
MODEL 3
REMARK VINA RESULT: -7.172203787      3.333      5.598
REMARK  15 active torsions:
REMARK  status: ('A' for Active; 'I' for Inactive)
REMARK    1  A    between atoms: C4_4  and  C5_5 
REMARK    2  A    between atoms: C5_5  and  C6_6 
REMARK    3  A    between atoms: C6_6  and  C7_7 
REMARK    4  A    between atoms: C7_7  and  C8_8 
REMARK    5  A    between atoms: C7_7  and  C9_13 
REMARK    6  A    between atoms: C16_21  and  O1_22 
REMARK    7  A    between atoms: O1_22  and  C17_23 
REMARK    8  A    between atoms: C18_24  and  C19_25 
REMARK    9  A    between atoms: C19_25  and  C20_26 
REMARK   10  A    between atoms: C20_26  and  O2_27 
REMARK   11  A    between atoms: C21_30  and  C22_31 
REMARK   12  A    between atoms: C22_31  and  C24_33 
REMARK   13  A    between atoms: C25_34  and  C26_35 
REMARK   14  A    between atoms: C26_35  and  O4_37 
REMARK   15  A    between atoms: C31_42  and  C32_43 
ROOT
HETATM    1  C9  UNL     1      32.160  -6.644 -15.995  1.00  0.00     0.018 C 
HETATM    2  C10 UNL     1      32.727  -5.540 -16.908  1.00  0.00     0.007 C 
HETATM    3  C11 UNL     1      34.067  -5.131 -16.273  1.00  0.00     0.009 C 
HETATM    4  C12 UNL     1      34.262  -6.323 -15.400  1.00  0.00     0.042 C 
HETATM    5  C13 UNL     1      35.433  -6.452 -14.572  1.00  0.00     0.175 C 
HETATM    6  F1  UNL     1      35.753  -5.518 -13.654  1.00  0.00    -0.249 F 
HETATM    7  C14 UNL     1      35.400  -7.869 -13.980  1.00  0.00     0.040 C 
HETATM    8  C15 UNL     1      34.020  -8.498 -14.216  1.00  0.00     0.036 C 
HETATM    9  C16 UNL     1      32.919  -7.496 -13.758  1.00  0.00     0.142 C 
HETATM   10  C31 UNL     1      32.885  -6.388 -14.725  1.00  0.00     0.085 C 
ENDROOT
BRANCH   9  11
HETATM   11  O1  UNL     1      33.261  -7.239 -12.472  1.00  0.00    -0.376 OA
BRANCH  11  12
HETATM   12  C17 UNL     1      32.538  -7.872 -11.477  1.00  0.00     0.161 C 
HETATM   13  C18 UNL     1      33.465  -8.379 -10.356  1.00  0.00     0.153 C 
HETATM   14  O3  UNL     1      32.823  -8.144  -9.143  1.00  0.00    -0.376 OA
HETATM   15  C21 UNL     1      31.609  -7.584  -9.397  1.00  0.00     0.139 C 
HETATM   16  C28 UNL     1      31.754  -6.871 -10.685  1.00  0.00     0.008 C 
HETATM   17  C29 UNL     1      30.379  -6.601 -11.239  1.00  0.00     0.020 C 
HETATM   18  C30 UNL     1      32.622  -5.633 -10.600  1.00  0.00     0.020 C 
BRANCH  13  19
HETATM   19  C19 UNL     1      33.567  -9.916 -10.394  1.00  0.00     0.060 C 
BRANCH  19  20
HETATM   20  C20 UNL     1      34.847 -10.225 -11.149  1.00  0.00     0.166 C 
BRANCH  20  21
HETATM   21  O2  UNL     1      35.838  -9.274 -10.833  1.00  0.00    -0.401 OA
ATOM     22  H2  UNL     1      35.621  -8.435 -11.224  1.00  0.00     0.209 HD
ENDBRANCH  20  21
ENDBRANCH  19  20
ENDBRANCH  13  19
BRANCH  15  23
HETATM   23  C22 UNL     1      30.997  -6.947  -8.227  1.00  0.00     0.034 C 
HETATM   24  C23 UNL     1      31.037  -7.857  -7.018  1.00  0.00     0.017 C 
BRANCH  23  25
HETATM   25  C24 UNL     1      31.422  -5.583  -7.892  1.00  0.00    -0.021 C 
HETATM   26  C25 UNL     1      32.274  -5.358  -6.916  1.00  0.00     0.001 C 
BRANCH  26  27
HETATM   27  C26 UNL     1      32.767  -4.038  -6.498  1.00  0.00     0.136 C 
HETATM   28  C27 UNL     1      33.465  -3.272  -7.598  1.00  0.00     0.043 C 
BRANCH  27  29
HETATM   29  O4  UNL     1      31.704  -3.318  -5.961  1.00  0.00    -0.392 OA
ATOM     30  H4  UNL     1      31.473  -3.702  -5.123  1.00  0.00     0.210 HD
ENDBRANCH  27  29
ENDBRANCH  26  27
ENDBRANCH  23  25
ENDBRANCH  15  23
ENDBRANCH  11  12
ENDBRANCH   9  11
BRANCH  10  31
HETATM   31  C32 UNL     1      32.496  -5.109 -14.175  1.00  0.00     0.185 C 
HETATM   32  O5  UNL     1      31.287  -4.813 -14.032  1.00  0.00    -0.647 OA
HETATM   33  O6  UNL     1      33.325  -4.078 -13.747  1.00  0.00    -0.647 OA
ENDBRANCH  10  31
BRANCH   1  34
HETATM   34  C7  UNL     1      30.722  -6.661 -16.166  1.00  0.00     0.055 C 
BRANCH  34  35
HETATM   35  C6  UNL     1      30.501  -6.521 -17.707  1.00  0.00     0.016 C 
BRANCH  35  36
HETATM   36  C5  UNL     1      29.151  -5.921 -17.992  1.00  0.00     0.028 C 
BRANCH  36  37
HETATM   37  C4  UNL     1      29.186  -4.502 -17.573  1.00  0.00    -0.025 C 
HETATM   38  C2  UNL     1      28.230  -3.680 -17.971  1.00  0.00    -0.091 C 
HETATM   39  C1  UNL     1      27.135  -4.180 -18.826  1.00  0.00     0.042 C 
HETATM   40  C3  UNL     1      28.260  -2.266 -17.563  1.00  0.00     0.042 C 
ENDBRANCH  36  37
ENDBRANCH  35  36
ENDBRANCH  34  35
BRANCH  34  41
HETATM   41  C8  UNL     1      29.992  -7.883 -15.800  1.00  0.00     0.091 C 
HETATM   42  N1  UNL     1      29.117  -7.864 -14.881  1.00  0.00    -0.391 N 
ATOM     43  H12 UNL     1      28.941  -6.983 -14.396  1.00  0.00     0.157 HD
ATOM     44  H11 UNL     1      28.611  -8.712 -14.627  1.00  0.00     0.157 HD
HETATM   45  N2  UNL     1      30.237  -9.106 -16.473  1.00  0.00    -0.088 NA
ENDBRANCH  34  41
ENDBRANCH   1  34
TORSDOF 15
ENDMDL
MODEL 4
REMARK VINA RESULT: -7.099938995      1.199      1.456
REMARK  15 active torsions:
REMARK  status: ('A' for Active; 'I' for Inactive)
REMARK    1  A    between atoms: C4_4  and  C5_5 
REMARK    2  A    between atoms: C5_5  and  C6_6 
REMARK    3  A    between atoms: C6_6  and  C7_7 
REMARK    4  A    between atoms: C7_7  and  C8_8 
REMARK    5  A    between atoms: C7_7  and  C9_13 
REMARK    6  A    between atoms: C16_21  and  O1_22 
REMARK    7  A    between atoms: O1_22  and  C17_23 
REMARK    8  A    between atoms: C18_24  and  C19_25 
REMARK    9  A    between atoms: C19_25  and  C20_26 
REMARK   10  A    between atoms: C20_26  and  O2_27 
REMARK   11  A    between atoms: C21_30  and  C22_31 
REMARK   12  A    between atoms: C22_31  and  C24_33 
REMARK   13  A    between atoms: C25_34  and  C26_35 
REMARK   14  A    between atoms: C26_35  and  O4_37 
REMARK   15  A    between atoms: C31_42  and  C32_43 
ROOT
HETATM    1  C9  UNL     1      36.336  -6.245 -15.295  1.00  0.00     0.018 C 
HETATM    2  C10 UNL     1      36.604  -5.940 -16.782  1.00  0.00     0.007 C 
HETATM    3  C11 UNL     1      35.669  -4.772 -17.136  1.00  0.00     0.009 C 
HETATM    4  C12 UNL     1      35.364  -4.317 -15.750  1.00  0.00     0.042 C 
HETATM    5  C13 UNL     1      34.507  -3.183 -15.514  1.00  0.00     0.175 C 
HETATM    6  F1  UNL     1      33.244  -3.143 -15.986  1.00  0.00    -0.249 F 
HETATM    7  C14 UNL     1      34.581  -2.881 -14.010  1.00  0.00     0.040 C 
HETATM    8  C15 UNL     1      35.259  -4.048 -13.279  1.00  0.00     0.036 C 
HETATM    9  C16 UNL     1      34.585  -5.382 -13.717  1.00  0.00     0.142 C 
HETATM   10  C31 UNL     1      34.987  -5.657 -15.106  1.00  0.00     0.085 C 
ENDROOT
BRANCH   9  11
HETATM   11  O1  UNL     1      33.277  -5.166 -13.440  1.00  0.00    -0.376 OA
BRANCH  11  12
HETATM   12  C17 UNL     1      32.603  -6.137 -12.721  1.00  0.00     0.161 C 
HETATM   13  C18 UNL     1      33.572  -6.947 -11.839  1.00  0.00     0.153 C 
HETATM   14  O3  UNL     1      32.940  -7.173 -10.620  1.00  0.00    -0.376 OA
HETATM   15  C21 UNL     1      31.696  -6.624 -10.668  1.00  0.00     0.139 C 
HETATM   16  C28 UNL     1      31.784  -5.507 -11.635  1.00  0.00     0.008 C 
HETATM   17  C29 UNL     1      30.388  -5.136 -12.065  1.00  0.00     0.020 C 
HETATM   18  C30 UNL     1      32.592  -4.330 -11.132  1.00  0.00     0.020 C 
BRANCH  13  19
HETATM   19  C19 UNL     1      33.748  -8.371 -12.399  1.00  0.00     0.060 C 
BRANCH  19  20
HETATM   20  C20 UNL     1      34.103  -9.242 -11.207  1.00  0.00     0.166 C 
BRANCH  20  21
HETATM   21  O2  UNL     1      35.399  -8.930 -10.748  1.00  0.00    -0.401 OA
ATOM     22  H2  UNL     1      35.350  -8.476  -9.916  1.00  0.00     0.209 HD
ENDBRANCH  20  21
ENDBRANCH  19  20
ENDBRANCH  13  19
BRANCH  15  23
HETATM   23  C22 UNL     1      31.073  -6.456  -9.351  1.00  0.00     0.034 C 
HETATM   24  C23 UNL     1      30.415  -7.736  -8.885  1.00  0.00     0.017 C 
BRANCH  23  25
HETATM   25  C24 UNL     1      31.878  -5.843  -8.289  1.00  0.00    -0.021 C 
HETATM   26  C25 UNL     1      31.338  -5.027  -7.411  1.00  0.00     0.001 C 
BRANCH  26  27
HETATM   27  C26 UNL     1      32.048  -4.362  -6.310  1.00  0.00     0.136 C 
HETATM   28  C27 UNL     1      33.402  -3.817  -6.699  1.00  0.00     0.043 C 
BRANCH  27  29
HETATM   29  O4  UNL     1      31.223  -3.371  -5.786  1.00  0.00    -0.392 OA
ATOM     30  H4  UNL     1      31.509  -2.530  -6.122  1.00  0.00     0.210 HD
ENDBRANCH  27  29
ENDBRANCH  26  27
ENDBRANCH  23  25
ENDBRANCH  15  23
ENDBRANCH  11  12
ENDBRANCH   9  11
BRANCH  10  31
HETATM   31  C32 UNL     1      34.011  -6.377 -15.893  1.00  0.00     0.185 C 
HETATM   32  O5  UNL     1      33.864  -7.613 -15.759  1.00  0.00    -0.647 OA
HETATM   33  O6  UNL     1      33.144  -5.862 -16.850  1.00  0.00    -0.647 OA
ENDBRANCH  10  31
BRANCH   1  34
HETATM   34  C7  UNL     1      36.705  -7.626 -15.056  1.00  0.00     0.055 C 
BRANCH  34  35
HETATM   35  C6  UNL     1      37.430  -8.078 -16.365  1.00  0.00     0.016 C 
BRANCH  35  36
HETATM   36  C5  UNL     1      36.703  -9.235 -16.996  1.00  0.00     0.028 C 
BRANCH  36  37
HETATM   37  C4  UNL     1      37.129  -9.324 -18.410  1.00  0.00    -0.025 C 
HETATM   38  C2  UNL     1      36.325  -8.885 -19.363  1.00  0.00    -0.091 C 
HETATM   39  C1  UNL     1      35.012  -8.306 -19.013  1.00  0.00     0.042 C 
HETATM   40  C3  UNL     1      36.739  -8.975 -20.772  1.00  0.00     0.042 C 
ENDBRANCH  36  37
ENDBRANCH  35  36
ENDBRANCH  34  35
BRANCH  34  41
HETATM   41  C8  UNL     1      37.670  -7.912 -13.985  1.00  0.00     0.091 C 
HETATM   42  N1  UNL     1      37.329  -7.819 -12.766  1.00  0.00    -0.391 N 
ATOM     43  H12 UNL     1      36.374  -7.532 -12.549  1.00  0.00     0.157 HD
ATOM     44  H11 UNL     1      37.998  -8.018 -12.022  1.00  0.00     0.157 HD
HETATM   45  N2  UNL     1      38.995  -8.312 -14.286  1.00  0.00    -0.088 NA
ENDBRANCH  34  41
ENDBRANCH   1  34
TORSDOF 15
ENDMDL
MODEL 5
REMARK VINA RESULT: -7.094547296      3.390      5.835
REMARK  15 active torsions:
REMARK  status: ('A' for Active; 'I' for Inactive)
REMARK    1  A    between atoms: C4_4  and  C5_5 
REMARK    2  A    between atoms: C5_5  and  C6_6 
REMARK    3  A    between atoms: C6_6  and  C7_7 
REMARK    4  A    between atoms: C7_7  and  C8_8 
REMARK    5  A    between atoms: C7_7  and  C9_13 
REMARK    6  A    between atoms: C16_21  and  O1_22 
REMARK    7  A    between atoms: O1_22  and  C17_23 
REMARK    8  A    between atoms: C18_24  and  C19_25 
REMARK    9  A    between atoms: C19_25  and  C20_26 
REMARK   10  A    between atoms: C20_26  and  O2_27 
REMARK   11  A    between atoms: C21_30  and  C22_31 
REMARK   12  A    between atoms: C22_31  and  C24_33 
REMARK   13  A    between atoms: C25_34  and  C26_35 
REMARK   14  A    between atoms: C26_35  and  O4_37 
REMARK   15  A    between atoms: C31_42  and  C32_43 
ROOT
HETATM    1  C9  UNL     1      32.640  -5.533 -15.645  1.00  0.00     0.018 C 
HETATM    2  C10 UNL     1      33.643  -4.721 -16.487  1.00  0.00     0.007 C 
HETATM    3  C11 UNL     1      35.033  -5.115 -15.959  1.00  0.00     0.009 C 
HETATM    4  C12 UNL     1      34.645  -6.367 -15.250  1.00  0.00     0.042 C 
HETATM    5  C13 UNL     1      35.630  -7.170 -14.573  1.00  0.00     0.175 C 
HETATM    6  F1  UNL     1      36.409  -6.659 -13.598  1.00  0.00    -0.249 F 
HETATM    7  C14 UNL     1      34.922  -8.463 -14.141  1.00  0.00     0.040 C 
HETATM    8  C15 UNL     1      33.404  -8.299 -14.294  1.00  0.00     0.036 C 
HETATM    9  C16 UNL     1      32.965  -6.970 -13.611  1.00  0.00     0.142 C 
HETATM   10  C31 UNL     1      33.447  -5.854 -14.441  1.00  0.00     0.085 C 
ENDROOT
BRANCH   9  11
HETATM   11  O1  UNL     1      33.440  -7.106 -12.350  1.00  0.00    -0.376 OA
BRANCH  11  12
HETATM   12  C17 UNL     1      32.635  -7.750 -11.426  1.00  0.00     0.161 C 
HETATM   13  C18 UNL     1      33.478  -8.386 -10.305  1.00  0.00     0.153 C 
HETATM   14  O3  UNL     1      32.800  -8.184  -9.106  1.00  0.00    -0.376 OA
HETATM   15  C21 UNL     1      31.637  -7.529  -9.370  1.00  0.00     0.139 C 
HETATM   16  C28 UNL     1      31.884  -6.749 -10.603  1.00  0.00     0.008 C 
HETATM   17  C29 UNL     1      30.554  -6.353 -11.193  1.00  0.00     0.020 C 
HETATM   18  C30 UNL     1      32.825  -5.580 -10.404  1.00  0.00     0.020 C 
BRANCH  13  19
HETATM   19  C19 UNL     1      33.482  -9.921 -10.438  1.00  0.00     0.060 C 
BRANCH  19  20
HETATM   20  C20 UNL     1      34.785 -10.270 -11.135  1.00  0.00     0.166 C 
BRANCH  20  21
HETATM   21  O2  UNL     1      35.765  -9.300 -10.844  1.00  0.00    -0.401 OA
ATOM     22  H2  UNL     1      36.343  -9.616 -10.160  1.00  0.00     0.209 HD
ENDBRANCH  20  21
ENDBRANCH  19  20
ENDBRANCH  13  19
BRANCH  15  23
HETATM   23  C22 UNL     1      31.017  -6.926  -8.186  1.00  0.00     0.034 C 
HETATM   24  C23 UNL     1      31.069  -7.862  -6.998  1.00  0.00     0.017 C 
BRANCH  23  25
HETATM   25  C24 UNL     1      31.425  -5.565  -7.821  1.00  0.00    -0.021 C 
HETATM   26  C25 UNL     1      32.239  -5.348  -6.812  1.00  0.00     0.001 C 
BRANCH  26  27
HETATM   27  C26 UNL     1      32.711  -4.031  -6.361  1.00  0.00     0.136 C 
HETATM   28  C27 UNL     1      33.494  -3.274  -7.409  1.00  0.00     0.043 C 
BRANCH  27  29
HETATM   29  O4  UNL     1      31.619  -3.301  -5.903  1.00  0.00    -0.392 OA
ATOM     30  H4  UNL     1      31.772  -2.382  -6.085  1.00  0.00     0.210 HD
ENDBRANCH  27  29
ENDBRANCH  26  27
ENDBRANCH  23  25
ENDBRANCH  15  23
ENDBRANCH  11  12
ENDBRANCH   9  11
BRANCH  10  31
HETATM   31  C32 UNL     1      33.765  -4.646 -13.715  1.00  0.00     0.185 C 
HETATM   32  O5  UNL     1      32.865  -3.843 -13.377  1.00  0.00    -0.647 OA
HETATM   33  O6  UNL     1      35.019  -4.207 -13.301  1.00  0.00    -0.647 OA
ENDBRANCH  10  31
BRANCH   1  34
HETATM   34  C7  UNL     1      31.377  -4.823 -15.660  1.00  0.00     0.055 C 
BRANCH  34  35
HETATM   35  C6  UNL     1      31.020  -4.674 -17.174  1.00  0.00     0.016 C 
BRANCH  35  36
HETATM   36  C5  UNL     1      30.157  -3.462 -17.394  1.00  0.00     0.028 C 
BRANCH  36  37
HETATM   37  C4  UNL     1      28.916  -3.904 -18.070  1.00  0.00    -0.025 C 
HETATM   38  C2  UNL     1      28.007  -3.009 -18.416  1.00  0.00    -0.091 C 
HETATM   39  C1  UNL     1      28.234  -1.578 -18.131  1.00  0.00     0.042 C 
HETATM   40  C3  UNL     1      26.768  -3.441 -19.083  1.00  0.00     0.042 C 
ENDBRANCH  36  37
ENDBRANCH  35  36
ENDBRANCH  34  35
BRANCH  34  41
HETATM   41  C8  UNL     1      30.203  -5.480 -15.068  1.00  0.00     0.091 C 
HETATM   42  N1  UNL     1      29.887  -6.663 -15.401  1.00  0.00    -0.391 N 
ATOM     43  H12 UNL     1      30.462  -7.143 -16.096  1.00  0.00     0.157 HD
ATOM     44  H11 UNL     1      29.073  -7.119 -14.991  1.00  0.00     0.157 HD
HETATM   45  N2  UNL     1      29.405  -4.815 -14.104  1.00  0.00    -0.088 NA
ENDBRANCH  34  41
ENDBRANCH   1  34
TORSDOF 15
ENDMDL
