MODEL 1
REMARK VINA RESULT: -8.087097858      0.000      0.000
REMARK  14 active torsions:
REMARK  status: ('A' for Active; 'I' for Inactive)
REMARK    1  A    between atoms: C1_2  and  C2_3 
REMARK       I    between atoms: C1_2  and  N2_27 
REMARK    2  A    between atoms: C3_4  and  C4_5 
REMARK    3  A    between atoms: C7_9  and  O2_10 
REMARK    4  A    between atoms: C8_12  and  O3_13 
REMARK    5  A    between atoms: C9_15  and  C10_16 
REMARK    6  A    between atoms: C10_16  and  N1_17 
REMARK    7  A    between atoms: N1_17  and  C11_20 
REMARK    8  A    between atoms: N2_27  and  C18_29 
REMARK    9  A    between atoms: C18_29  and  C19_30 
REMARK   10  A    between atoms: C19_30  and  C20_31 
REMARK   11  A    between atoms: C20_31  and  C21_32 
REMARK   12  A    between atoms: C21_32  and  C22_33 
REMARK   13  A    between atoms: C22_33  and  C23_34 
REMARK   14  A    between atoms: C23_34  and  N3_35 
ROOT
HETATM    1  C2  UNL     1      30.617  -6.398 -11.427  1.00  0.00     0.075 C 
HETATM    2  C3  UNL     1      30.433  -5.546 -10.498  1.00  0.00     0.017 C 
ENDROOT
BRANCH   1   3
HETATM    3  C1  UNL     1      31.476  -7.451 -11.839  1.00  0.00     0.241 C 
HETATM    4  O1  UNL     1      32.121  -7.635 -12.886  1.00  0.00    -0.269 OA
HETATM    5  N2  UNL     1      31.672  -8.554 -10.889  1.00  0.00    -0.358 N 
ATOM      6  H2  UNL     1      31.203  -8.543  -9.983  1.00  0.00     0.162 HD
BRANCH   5   7
HETATM    7  C18 UNL     1      32.526  -9.641 -11.247  1.00  0.00     0.123 C 
BRANCH   7   8
HETATM    8  C19 UNL     1      33.769  -9.696 -10.397  1.00  0.00     0.020 C 
BRANCH   8   9
HETATM    9  C20 UNL     1      35.041  -9.804 -11.128  1.00  0.00     0.002 C 
BRANCH   9  10
HETATM   10  C21 UNL     1      35.756  -8.599 -11.555  1.00  0.00     0.002 C 
BRANCH  10  11
HETATM   11  C22 UNL     1      35.625  -8.057 -12.912  1.00  0.00     0.020 C 
BRANCH  11  12
HETATM   12  C23 UNL     1      35.482  -8.937 -14.083  1.00  0.00     0.127 C 
BRANCH  12  13
HETATM   13  N3  UNL     1      36.064  -8.336 -15.296  1.00  0.00    -0.374 N 
HETATM   14  C24 UNL     1      35.095  -7.628 -16.001  1.00  0.00     0.063 C 
HETATM   15  C25 UNL     1      35.367  -6.112 -16.161  1.00  0.00     0.044 C 
HETATM   16  C26 UNL     1      36.722  -6.096 -16.748  1.00  0.00     0.005 C 
HETATM   17  C27 UNL     1      37.242  -4.863 -17.417  1.00  0.00     0.002 C 
HETATM   18  C28 UNL     1      38.566  -5.362 -18.037  1.00  0.00     0.020 C 
HETATM   19  C29 UNL     1      39.356  -6.254 -17.154  1.00  0.00     0.118 C 
HETATM   20  N4  UNL     1      39.132  -7.674 -17.332  1.00  0.00    -0.402 N 
HETATM   21  C30 UNL     1      39.473  -8.512 -16.263  1.00  0.00     0.060 C 
ATOM     22  H4  UNL     1      38.743  -8.047 -18.197  1.00  0.00     0.158 HD
HETATM   23  C31 UNL     1      38.436  -9.020 -15.350  1.00  0.00     0.088 C 
HETATM   24  C32 UNL     1      37.028  -9.145 -15.908  1.00  0.00     0.068 C 
ENDBRANCH  12  13
ENDBRANCH  11  12
ENDBRANCH  10  11
ENDBRANCH   9  10
ENDBRANCH   8   9
ENDBRANCH   7   8
ENDBRANCH   5   7
ENDBRANCH   1   3
BRANCH   2  25
HETATM   25  C4  UNL     1      31.110  -5.224  -9.279  1.00  0.00    -0.024 A 
HETATM   26  C5  UNL     1      30.936  -5.850  -8.065  1.00  0.00     0.038 A 
HETATM   27  C6  UNL     1      31.623  -5.494  -6.906  1.00  0.00     0.070 A 
HETATM   28 CL1  UNL     1      31.292  -6.387  -5.429  1.00  0.00    -0.081 Cl
HETATM   29  C7  UNL     1      32.512  -4.476  -6.970  1.00  0.00     0.121 A 
HETATM   30  C8  UNL     1      32.764  -3.768  -8.173  1.00  0.00     0.109 A 
HETATM   31  C9  UNL     1      32.059  -4.160  -9.293  1.00  0.00     0.014 A 
BRANCH  29  32
HETATM   32  O2  UNL     1      33.210  -4.094  -5.846  1.00  0.00    -0.356 OA
ATOM     33  H2  UNL     1      34.074  -4.451  -5.675  1.00  0.00     0.218 HD
ENDBRANCH  29  32
BRANCH  30  34
HETATM   34  O3  UNL     1      33.634  -2.790  -8.171  1.00  0.00    -0.357 OA
ATOM     35  H3  UNL     1      33.340  -1.905  -7.990  1.00  0.00     0.217 HD
ENDBRANCH  30  34
BRANCH  31  36
HETATM   36  C10 UNL     1      32.237  -3.455 -10.596  1.00  0.00     0.275 C 
BRANCH  36  37
HETATM   37  N1  UNL     1      33.510  -3.769 -11.191  1.00  0.00    -0.063 N 
ATOM     38  H12 UNL     1      34.139  -2.967 -11.172  1.00  0.00     0.278 HD
ATOM     39  H11 UNL     1      34.049  -4.406 -10.604  1.00  0.00     0.278 HD
BRANCH  37  40
HETATM   40  C11 UNL     1      33.349  -4.296 -12.552  1.00  0.00     0.218 C 
HETATM   41  C12 UNL     1      34.711  -4.484 -13.156  1.00  0.00     0.003 C 
HETATM   42  C13 UNL     1      35.683  -3.442 -13.328  1.00  0.00    -0.028 C 
HETATM   43  C14 UNL     1      35.769  -2.590 -14.595  1.00  0.00     0.038 C 
HETATM   44  C15 UNL     1      34.414  -1.852 -14.884  1.00  0.00     0.083 C 
HETATM   45  C16 UNL     1      33.441  -2.534 -14.137  1.00  0.00    -0.180 C 
HETATM   46  C17 UNL     1      32.509  -3.240 -13.359  1.00  0.00     0.116 C 
ENDBRANCH  37  40
ENDBRANCH  36  37
ENDBRANCH  31  36
ENDBRANCH   2  25
TORSDOF 14
ENDMDL
MODEL 2
REMARK VINA RESULT: -8.062345673      4.059      7.479
REMARK  14 active torsions:
REMARK  status: ('A' for Active; 'I' for Inactive)
REMARK    1  A    between atoms: C1_2  and  C2_3 
REMARK       I    between atoms: C1_2  and  N2_27 
REMARK    2  A    between atoms: C3_4  and  C4_5 
REMARK    3  A    between atoms: C7_9  and  O2_10 
REMARK    4  A    between atoms: C8_12  and  O3_13 
REMARK    5  A    between atoms: C9_15  and  C10_16 
REMARK    6  A    between atoms: C10_16  and  N1_17 
REMARK    7  A    between atoms: N1_17  and  C11_20 
REMARK    8  A    between atoms: N2_27  and  C18_29 
REMARK    9  A    between atoms: C18_29  and  C19_30 
REMARK   10  A    between atoms: C19_30  and  C20_31 
REMARK   11  A    between atoms: C20_31  and  C21_32 
REMARK   12  A    between atoms: C21_32  and  C22_33 
REMARK   13  A    between atoms: C22_33  and  C23_34 
REMARK   14  A    between atoms: C23_34  and  N3_35 
ROOT
HETATM    1  C2  UNL     1      28.740  -6.607 -11.420  1.00  0.00     0.075 C 
HETATM    2  C3  UNL     1      28.143  -7.023 -12.466  1.00  0.00     0.017 C 
ENDROOT
BRANCH   1   3
HETATM    3  C1  UNL     1      29.160  -7.008 -10.125  1.00  0.00     0.241 C 
HETATM    4  O1  UNL     1      28.722  -7.867  -9.340  1.00  0.00    -0.269 OA
HETATM    5  N2  UNL     1      30.323  -6.311  -9.561  1.00  0.00    -0.358 N 
ATOM      6  H2  UNL     1      30.790  -5.576 -10.092  1.00  0.00     0.162 HD
BRANCH   5   7
HETATM    7  C18 UNL     1      30.792  -6.672  -8.262  1.00  0.00     0.123 C 
BRANCH   7   8
HETATM    8  C19 UNL     1      32.125  -6.044  -7.941  1.00  0.00     0.020 C 
BRANCH   8   9
HETATM    9  C20 UNL     1      32.132  -4.577  -7.832  1.00  0.00     0.002 C 
BRANCH   9  10
HETATM   10  C21 UNL     1      32.932  -3.769  -8.755  1.00  0.00     0.002 C 
BRANCH  10  11
HETATM   11  C22 UNL     1      32.812  -3.904 -10.211  1.00  0.00     0.020 C 
BRANCH  11  12
HETATM   12  C23 UNL     1      32.233  -2.833 -11.039  1.00  0.00     0.127 C 
BRANCH  12  13
HETATM   13  N3  UNL     1      32.268  -3.167 -12.473  1.00  0.00    -0.374 N 
HETATM   14  C24 UNL     1      33.573  -3.115 -12.953  1.00  0.00     0.063 C 
HETATM   15  C25 UNL     1      34.130  -4.448 -13.510  1.00  0.00     0.044 C 
HETATM   16  C26 UNL     1      33.101  -4.830 -14.498  1.00  0.00     0.005 C 
HETATM   17  C27 UNL     1      33.402  -5.856 -15.545  1.00  0.00     0.002 C 
HETATM   18  C28 UNL     1      32.149  -5.781 -16.445  1.00  0.00     0.020 C 
HETATM   19  C29 UNL     1      30.870  -5.665 -15.703  1.00  0.00     0.118 C 
HETATM   20  N4  UNL     1      30.384  -4.316 -15.494  1.00  0.00    -0.402 N 
HETATM   21  C30 UNL     1      29.478  -4.121 -14.446  1.00  0.00     0.060 C 
ATOM     22  H4  UNL     1      30.689  -3.543 -16.085  1.00  0.00     0.158 HD
HETATM   23  C31 UNL     1      29.930  -3.570 -13.158  1.00  0.00     0.088 C 
HETATM   24  C32 UNL     1      31.163  -2.683 -13.183  1.00  0.00     0.068 C 
ENDBRANCH  12  13
ENDBRANCH  11  12
ENDBRANCH  10  11
ENDBRANCH   9  10
ENDBRANCH   8   9
ENDBRANCH   7   8
ENDBRANCH   5   7
ENDBRANCH   1   3
BRANCH   2  25
HETATM   25  C4  UNL     1      27.541  -8.262 -12.855  1.00  0.00    -0.024 A 
HETATM   26  C5  UNL     1      26.281  -8.696 -12.508  1.00  0.00     0.038 A 
HETATM   27  C6  UNL     1      25.743  -9.915 -12.914  1.00  0.00     0.070 A 
HETATM   28 CL1  UNL     1      24.119 -10.331 -12.388  1.00  0.00    -0.081 Cl
HETATM   29  C7  UNL     1      26.496 -10.725 -13.695  1.00  0.00     0.121 A 
HETATM   30  C8  UNL     1      27.806 -10.369 -14.107  1.00  0.00     0.109 A 
HETATM   31  C9  UNL     1      28.292  -9.151 -13.679  1.00  0.00     0.014 A 
BRANCH  29  32
HETATM   32  O2  UNL     1      26.000 -11.938 -14.117  1.00  0.00    -0.356 OA
ATOM     33  H2  UNL     1      26.582 -12.586 -14.497  1.00  0.00     0.218 HD
ENDBRANCH  29  32
BRANCH  30  34
HETATM   34  O3  UNL     1      28.487 -11.196 -14.860  1.00  0.00    -0.357 OA
ATOM     35  H3  UNL     1      28.606 -12.095 -14.576  1.00  0.00     0.217 HD
ENDBRANCH  30  34
BRANCH  31  36
HETATM   36  C10 UNL     1      29.670  -8.705 -14.040  1.00  0.00     0.275 C 
BRANCH  36  37
HETATM   37  N1  UNL     1      30.668  -9.543 -13.430  1.00  0.00    -0.063 N 
ATOM     38  H12 UNL     1      30.424  -9.775 -12.467  1.00  0.00     0.278 HD
ATOM     39  H11 UNL     1      30.659 -10.484 -13.826  1.00  0.00     0.278 HD
BRANCH  37  40
HETATM   40  C11 UNL     1      32.002  -8.936 -13.515  1.00  0.00     0.218 C 
HETATM   41  C12 UNL     1      33.020  -9.955 -13.091  1.00  0.00     0.003 C 
HETATM   42  C13 UNL     1      33.045 -10.606 -11.812  1.00  0.00    -0.028 C 
HETATM   43  C14 UNL     1      33.813 -10.049 -10.613  1.00  0.00     0.038 C 
HETATM   44  C15 UNL     1      33.341  -8.596 -10.253  1.00  0.00     0.083 C 
HETATM   45  C16 UNL     1      32.675  -8.118 -11.393  1.00  0.00    -0.180 C 
HETATM   46  C17 UNL     1      32.005  -7.693 -12.552  1.00  0.00     0.116 C 
ENDBRANCH  37  40
ENDBRANCH  36  37
ENDBRANCH  31  36
ENDBRANCH   2  25
TORSDOF 14
ENDMDL
MODEL 3
REMARK VINA RESULT: -7.885099009      0.836      1.785
REMARK  14 active torsions:
REMARK  status: ('A' for Active; 'I' for Inactive)
REMARK    1  A    between atoms: C1_2  and  C2_3 
REMARK       I    between atoms: C1_2  and  N2_27 
REMARK    2  A    between atoms: C3_4  and  C4_5 
REMARK    3  A    between atoms: C7_9  and  O2_10 
REMARK    4  A    between atoms: C8_12  and  O3_13 
REMARK    5  A    between atoms: C9_15  and  C10_16 
REMARK    6  A    between atoms: C10_16  and  N1_17 
REMARK    7  A    between atoms: N1_17  and  C11_20 
REMARK    8  A    between atoms: N2_27  and  C18_29 
REMARK    9  A    between atoms: C18_29  and  C19_30 
REMARK   10  A    between atoms: C19_30  and  C20_31 
REMARK   11  A    between atoms: C20_31  and  C21_32 
REMARK   12  A    between atoms: C21_32  and  C22_33 
REMARK   13  A    between atoms: C22_33  and  C23_34 
REMARK   14  A    between atoms: C23_34  and  N3_35 
ROOT
HETATM    1  C2  UNL     1      30.587  -6.412 -11.341  1.00  0.00     0.075 C 
HETATM    2  C3  UNL     1      30.398  -5.550 -10.422  1.00  0.00     0.017 C 
ENDROOT
BRANCH   1   3
HETATM    3  C1  UNL     1      31.449  -7.467 -11.740  1.00  0.00     0.241 C 
HETATM    4  O1  UNL     1      31.949  -7.758 -12.840  1.00  0.00    -0.269 OA
HETATM    5  N2  UNL     1      31.854  -8.419 -10.697  1.00  0.00    -0.358 N 
ATOM      6  H2  UNL     1      31.519  -8.308  -9.740  1.00  0.00     0.162 HD
BRANCH   5   7
HETATM    7  C18 UNL     1      32.721  -9.501 -11.038  1.00  0.00     0.123 C 
BRANCH   7   8
HETATM    8  C19 UNL     1      34.091  -9.349 -10.428  1.00  0.00     0.020 C 
BRANCH   8   9
HETATM    9  C20 UNL     1      35.204  -9.211 -11.380  1.00  0.00     0.002 C 
BRANCH   9  10
HETATM   10  C21 UNL     1      34.996  -9.471 -12.806  1.00  0.00     0.002 C 
BRANCH  10  11
HETATM   11  C22 UNL     1      35.344  -8.485 -13.835  1.00  0.00     0.020 C 
BRANCH  11  12
HETATM   12  C23 UNL     1      36.055  -8.872 -15.065  1.00  0.00     0.127 C 
BRANCH  12  13
HETATM   13  N3  UNL     1      36.925  -7.792 -15.559  1.00  0.00    -0.374 N 
HETATM   14  C24 UNL     1      38.244  -8.016 -15.178  1.00  0.00     0.063 C 
HETATM   15  C25 UNL     1      39.251  -8.190 -16.340  1.00  0.00     0.044 C 
HETATM   16  C26 UNL     1      39.018  -6.974 -17.144  1.00  0.00     0.005 C 
HETATM   17  C27 UNL     1      40.025  -6.533 -18.160  1.00  0.00     0.002 C 
HETATM   18  C28 UNL     1      39.473  -5.156 -18.588  1.00  0.00     0.020 C 
HETATM   19  C29 UNL     1      38.002  -5.115 -18.769  1.00  0.00     0.118 C 
HETATM   20  N4  UNL     1      37.239  -4.682 -17.616  1.00  0.00    -0.402 N 
HETATM   21  C30 UNL     1      35.891  -5.056 -17.568  1.00  0.00     0.060 C 
ATOM     22  H4  UNL     1      37.665  -4.130 -16.873  1.00  0.00     0.158 HD
HETATM   23  C31 UNL     1      35.458  -6.194 -16.741  1.00  0.00     0.088 C 
HETATM   24  C32 UNL     1      36.316  -6.532 -15.533  1.00  0.00     0.068 C 
ENDBRANCH  12  13
ENDBRANCH  11  12
ENDBRANCH  10  11
ENDBRANCH   9  10
ENDBRANCH   8   9
ENDBRANCH   7   8
ENDBRANCH   5   7
ENDBRANCH   1   3
BRANCH   2  25
HETATM   25  C4  UNL     1      31.071  -5.213  -9.204  1.00  0.00    -0.024 A 
HETATM   26  C5  UNL     1      30.919  -5.846  -7.991  1.00  0.00     0.038 A 
HETATM   27  C6  UNL     1      31.600  -5.475  -6.834  1.00  0.00     0.070 A 
HETATM   28 CL1  UNL     1      31.298  -6.379  -5.358  1.00  0.00    -0.081 Cl
HETATM   29  C7  UNL     1      32.463  -4.435  -6.898  1.00  0.00     0.121 A 
HETATM   30  C8  UNL     1      32.691  -3.718  -8.101  1.00  0.00     0.109 A 
HETATM   31  C9  UNL     1      31.992  -4.125  -9.219  1.00  0.00     0.014 A 
BRANCH  29  32
HETATM   32  O2  UNL     1      33.155  -4.038  -5.776  1.00  0.00    -0.356 OA
ATOM     33  H2  UNL     1      33.967  -4.469  -5.538  1.00  0.00     0.218 HD
ENDBRANCH  29  32
BRANCH  30  34
HETATM   34  O3  UNL     1      33.537  -2.718  -8.101  1.00  0.00    -0.357 OA
ATOM     35  H3  UNL     1      34.450  -2.880  -8.308  1.00  0.00     0.217 HD
ENDBRANCH  30  34
BRANCH  31  36
HETATM   36  C10 UNL     1      32.148  -3.413 -10.522  1.00  0.00     0.275 C 
BRANCH  36  37
HETATM   37  N1  UNL     1      33.384  -3.767 -11.167  1.00  0.00    -0.063 N 
ATOM     38  H12 UNL     1      34.054  -2.999 -11.138  1.00  0.00     0.278 HD
ATOM     39  H11 UNL     1      33.907  -4.453 -10.622  1.00  0.00     0.278 HD
BRANCH  37  40
HETATM   40  C11 UNL     1      33.157  -4.232 -12.542  1.00  0.00     0.218 C 
HETATM   41  C12 UNL     1      34.485  -4.558 -13.162  1.00  0.00     0.003 C 
HETATM   42  C13 UNL     1      35.571  -3.632 -13.312  1.00  0.00    -0.028 C 
HETATM   43  C14 UNL     1      35.750  -2.758 -14.554  1.00  0.00     0.038 C 
HETATM   44  C15 UNL     1      34.488  -1.860 -14.811  1.00  0.00     0.083 C 
HETATM   45  C16 UNL     1      33.446  -2.446 -14.075  1.00  0.00    -0.180 C 
HETATM   46  C17 UNL     1      32.442  -3.061 -13.311  1.00  0.00     0.116 C 
ENDBRANCH  37  40
ENDBRANCH  36  37
ENDBRANCH  31  36
ENDBRANCH   2  25
TORSDOF 14
ENDMDL
MODEL 4
REMARK VINA RESULT: -7.881343726      3.554      6.996
REMARK  14 active torsions:
REMARK  status: ('A' for Active; 'I' for Inactive)
REMARK    1  A    between atoms: C1_2  and  C2_3 
REMARK       I    between atoms: C1_2  and  N2_27 
REMARK    2  A    between atoms: C3_4  and  C4_5 
REMARK    3  A    between atoms: C7_9  and  O2_10 
REMARK    4  A    between atoms: C8_12  and  O3_13 
REMARK    5  A    between atoms: C9_15  and  C10_16 
REMARK    6  A    between atoms: C10_16  and  N1_17 
REMARK    7  A    between atoms: N1_17  and  C11_20 
REMARK    8  A    between atoms: N2_27  and  C18_29 
REMARK    9  A    between atoms: C18_29  and  C19_30 
REMARK   10  A    between atoms: C19_30  and  C20_31 
REMARK   11  A    between atoms: C20_31  and  C21_32 
REMARK   12  A    between atoms: C21_32  and  C22_33 
REMARK   13  A    between atoms: C22_33  and  C23_34 
REMARK   14  A    between atoms: C23_34  and  N3_35 
ROOT
HETATM    1  C2  UNL     1      32.386  -4.815 -11.629  1.00  0.00     0.075 C 
HETATM    2  C3  UNL     1      32.784  -5.476 -10.615  1.00  0.00     0.017 C 
ENDROOT
BRANCH   1   3
HETATM    3  C1  UNL     1      31.398  -3.890 -12.057  1.00  0.00     0.241 C 
HETATM    4  O1  UNL     1      30.176  -3.821 -11.840  1.00  0.00    -0.269 OA
HETATM    5  N2  UNL     1      31.852  -2.790 -12.919  1.00  0.00    -0.358 N 
ATOM      6  H2  UNL     1      32.834  -2.716 -13.185  1.00  0.00     0.162 HD
BRANCH   5   7
HETATM    7  C18 UNL     1      30.904  -1.827 -13.380  1.00  0.00     0.123 C 
BRANCH   7   8
HETATM    8  C19 UNL     1      30.974  -1.626 -14.872  1.00  0.00     0.020 C 
BRANCH   8   9
HETATM    9  C20 UNL     1      31.061  -2.852 -15.680  1.00  0.00     0.002 C 
BRANCH   9  10
HETATM   10  C21 UNL     1      29.870  -3.672 -15.914  1.00  0.00     0.002 C 
BRANCH  10  11
HETATM   11  C22 UNL     1      29.604  -4.892 -15.145  1.00  0.00     0.020 C 
BRANCH  11  12
HETATM   12  C23 UNL     1      30.601  -5.969 -15.037  1.00  0.00     0.127 C 
BRANCH  12  13
HETATM   13  N3  UNL     1      30.013  -7.213 -14.513  1.00  0.00    -0.374 N 
HETATM   14  C24 UNL     1      29.770  -7.099 -13.148  1.00  0.00     0.063 C 
HETATM   15  C25 UNL     1      28.288  -7.235 -12.723  1.00  0.00     0.044 C 
HETATM   16  C26 UNL     1      27.902  -8.522 -13.335  1.00  0.00     0.005 C 
HETATM   17  C27 UNL     1      26.670  -9.238 -12.878  1.00  0.00     0.002 C 
HETATM   18  C28 UNL     1      26.780 -10.586 -13.624  1.00  0.00     0.020 C 
HETATM   19  C29 UNL     1      27.229 -10.470 -15.032  1.00  0.00     0.118 C 
HETATM   20  N4  UNL     1      28.653 -10.619 -15.252  1.00  0.00    -0.402 N 
HETATM   21  C30 UNL     1      29.175 -10.077 -16.432  1.00  0.00     0.060 C 
ATOM     22  H4  UNL     1      29.249 -11.098 -14.578  1.00  0.00     0.158 HD
HETATM   23  C31 UNL     1      29.870  -8.780 -16.417  1.00  0.00     0.088 C 
HETATM   24  C32 UNL     1      30.531  -8.368 -15.112  1.00  0.00     0.068 C 
ENDBRANCH  12  13
ENDBRANCH  11  12
ENDBRANCH  10  11
ENDBRANCH   9  10
ENDBRANCH   8   9
ENDBRANCH   7   8
ENDBRANCH   5   7
ENDBRANCH   1   3
BRANCH   2  25
HETATM   25  C4  UNL     1      32.346  -5.596  -9.257  1.00  0.00    -0.024 A 
HETATM   26  C5  UNL     1      32.375  -4.603  -8.304  1.00  0.00     0.038 A 
HETATM   27  C6  UNL     1      31.936  -4.776  -6.993  1.00  0.00     0.070 A 
HETATM   28 CL1  UNL     1      32.038  -3.412  -5.890  1.00  0.00    -0.081 Cl
HETATM   29  C7  UNL     1      31.451  -5.985  -6.629  1.00  0.00     0.121 A 
HETATM   30  C8  UNL     1      31.379  -7.073  -7.536  1.00  0.00     0.109 A 
HETATM   31  C9  UNL     1      31.826  -6.851  -8.823  1.00  0.00     0.014 A 
BRANCH  29  32
HETATM   32  O2  UNL     1      31.008  -6.196  -5.342  1.00  0.00    -0.356 OA
ATOM     33  H2  UNL     1      31.631  -6.304  -4.634  1.00  0.00     0.218 HD
ENDBRANCH  29  32
BRANCH  30  34
HETATM   34  O3  UNL     1      30.903  -8.221  -7.124  1.00  0.00    -0.357 OA
ATOM     35  H3  UNL     1      30.414  -8.767  -7.729  1.00  0.00     0.217 HD
ENDBRANCH  30  34
BRANCH  31  36
HETATM   36  C10 UNL     1      31.813  -7.944  -9.839  1.00  0.00     0.275 C 
BRANCH  36  37
HETATM   37  N1  UNL     1      32.905  -8.859  -9.636  1.00  0.00    -0.063 N 
ATOM     38  H12 UNL     1      33.760  -8.369  -9.373  1.00  0.00     0.278 HD
ATOM     39  H11 UNL     1      32.776  -9.414  -8.790  1.00  0.00     0.278 HD
BRANCH  37  40
HETATM   40  C11 UNL     1      33.114  -9.713 -10.812  1.00  0.00     0.218 C 
HETATM   41  C12 UNL     1      34.590  -9.847 -11.051  1.00  0.00     0.003 C 
HETATM   42  C13 UNL     1      35.486  -8.750 -11.287  1.00  0.00    -0.028 C 
HETATM   43  C14 UNL     1      35.797  -8.222 -12.688  1.00  0.00     0.038 C 
HETATM   44  C15 UNL     1      34.492  -7.772 -13.435  1.00  0.00     0.083 C 
HETATM   45  C16 UNL     1      33.430  -8.385 -12.752  1.00  0.00    -0.180 C 
HETATM   46  C17 UNL     1      32.403  -9.009 -12.025  1.00  0.00     0.116 C 
ENDBRANCH  37  40
ENDBRANCH  36  37
ENDBRANCH  31  36
ENDBRANCH   2  25
TORSDOF 14
ENDMDL
MODEL 5
REMARK VINA RESULT: -7.855438517      2.958      6.666
REMARK  14 active torsions:
REMARK  status: ('A' for Active; 'I' for Inactive)
REMARK    1  A    between atoms: C1_2  and  C2_3 
REMARK       I    between atoms: C1_2  and  N2_27 
REMARK    2  A    between atoms: C3_4  and  C4_5 
REMARK    3  A    between atoms: C7_9  and  O2_10 
REMARK    4  A    between atoms: C8_12  and  O3_13 
REMARK    5  A    between atoms: C9_15  and  C10_16 
REMARK    6  A    between atoms: C10_16  and  N1_17 
REMARK    7  A    between atoms: N1_17  and  C11_20 
REMARK    8  A    between atoms: N2_27  and  C18_29 
REMARK    9  A    between atoms: C18_29  and  C19_30 
REMARK   10  A    between atoms: C19_30  and  C20_31 
REMARK   11  A    between atoms: C20_31  and  C21_32 
REMARK   12  A    between atoms: C21_32  and  C22_33 
REMARK   13  A    between atoms: C22_33  and  C23_34 
REMARK   14  A    between atoms: C23_34  and  N3_35 
ROOT
HETATM    1  C2  UNL     1      34.995  -3.474 -13.582  1.00  0.00     0.075 C 
HETATM    2  C3  UNL     1      33.849  -3.758 -13.102  1.00  0.00     0.017 C 
ENDROOT
BRANCH   1   3
HETATM    3  C1  UNL     1      35.663  -3.151 -14.793  1.00  0.00     0.241 C 
HETATM    4  O1  UNL     1      36.083  -2.073 -15.246  1.00  0.00    -0.269 OA
HETATM    5  N2  UNL     1      35.932  -4.261 -15.716  1.00  0.00    -0.358 N 
ATOM      6  H2  UNL     1      35.643  -5.210 -15.479  1.00  0.00     0.162 HD
BRANCH   5   7
HETATM    7  C18 UNL     1      36.602  -3.998 -16.948  1.00  0.00     0.123 C 
BRANCH   7   8
HETATM    8  C19 UNL     1      37.671  -5.019 -17.247  1.00  0.00     0.020 C 
BRANCH   8   9
HETATM    9  C20 UNL     1      37.242  -6.425 -17.205  1.00  0.00     0.002 C 
BRANCH   9  10
HETATM   10  C21 UNL     1      38.018  -7.415 -16.455  1.00  0.00     0.002 C 
BRANCH  10  11
HETATM   11  C22 UNL     1      37.421  -8.223 -15.386  1.00  0.00     0.020 C 
BRANCH  11  12
HETATM   12  C23 UNL     1      36.117  -8.885 -15.556  1.00  0.00     0.127 C 
BRANCH  12  13
HETATM   13  N3  UNL     1      35.046  -8.187 -14.825  1.00  0.00    -0.374 N 
HETATM   14  C24 UNL     1      34.279  -7.422 -15.699  1.00  0.00     0.063 C 
HETATM   15  C25 UNL     1      32.784  -7.814 -15.787  1.00  0.00     0.044 C 
HETATM   16  C26 UNL     1      32.366  -7.777 -14.372  1.00  0.00     0.005 C 
HETATM   17  C27 UNL     1      30.913  -7.723 -14.013  1.00  0.00     0.002 C 
HETATM   18  C28 UNL     1      30.963  -7.497 -12.486  1.00  0.00     0.020 C 
HETATM   19  C29 UNL     1      31.988  -8.304 -11.782  1.00  0.00     0.118 C 
HETATM   20  N4  UNL     1      33.267  -7.656 -11.577  1.00  0.00    -0.402 N 
HETATM   21  C30 UNL     1      34.373  -8.484 -11.354  1.00  0.00     0.060 C 
ATOM     22  H4  UNL     1      33.358  -6.640 -11.594  1.00  0.00     0.158 HD
HETATM   23  C31 UNL     1      35.317  -8.782 -12.443  1.00  0.00     0.088 C 
HETATM   24  C32 UNL     1      35.435  -7.750 -13.553  1.00  0.00     0.068 C 
ENDBRANCH  12  13
ENDBRANCH  11  12
ENDBRANCH  10  11
ENDBRANCH   9  10
ENDBRANCH   8   9
ENDBRANCH   7   8
ENDBRANCH   5   7
ENDBRANCH   1   3
BRANCH   2  25
HETATM   25  C4  UNL     1      32.534  -3.898 -13.651  1.00  0.00    -0.024 A 
HETATM   26  C5  UNL     1      32.230  -4.219 -14.955  1.00  0.00     0.038 A 
HETATM   27  C6  UNL     1      30.929  -4.342 -15.438  1.00  0.00     0.070 A 
HETATM   28 CL1  UNL     1      30.699  -4.756 -17.130  1.00  0.00    -0.081 Cl
HETATM   29  C7  UNL     1      29.901  -4.135 -14.583  1.00  0.00     0.121 A 
HETATM   30  C8  UNL     1      30.109  -3.800 -13.220  1.00  0.00     0.109 A 
HETATM   31  C9  UNL     1      31.416  -3.692 -12.791  1.00  0.00     0.014 A 
BRANCH  29  32
HETATM   32  O2  UNL     1      28.600  -4.247 -15.022  1.00  0.00    -0.356 OA
ATOM     33  H2  UNL     1      28.348  -3.887 -15.864  1.00  0.00     0.218 HD
ENDBRANCH  29  32
BRANCH  30  34
HETATM   34  O3  UNL     1      29.074  -3.609 -12.441  1.00  0.00    -0.357 OA
ATOM     35  H3  UNL     1      29.181  -3.678 -11.499  1.00  0.00     0.217 HD
ENDBRANCH  30  34
BRANCH  31  36
HETATM   36  C10 UNL     1      31.732  -3.316 -11.381  1.00  0.00     0.275 C 
BRANCH  36  37
HETATM   37  N1  UNL     1      31.385  -4.374 -10.469  1.00  0.00    -0.063 N 
ATOM     38  H12 UNL     1      30.648  -4.086  -9.826  1.00  0.00     0.278 HD
ATOM     39  H11 UNL     1      30.894  -5.131 -10.943  1.00  0.00     0.278 HD
BRANCH  37  40
HETATM   40  C11 UNL     1      32.565  -4.867  -9.747  1.00  0.00     0.218 C 
HETATM   41  C12 UNL     1      32.119  -5.888  -8.741  1.00  0.00     0.003 C 
HETATM   42  C13 UNL     1      31.177  -5.643  -7.686  1.00  0.00    -0.028 C 
HETATM   43  C14 UNL     1      31.596  -5.165  -6.296  1.00  0.00     0.038 C 
HETATM   44  C15 UNL     1      32.394  -3.815  -6.369  1.00  0.00     0.083 C 
HETATM   45  C16 UNL     1      32.829  -3.700  -7.699  1.00  0.00    -0.180 C 
HETATM   46  C17 UNL     1      33.227  -3.626  -9.044  1.00  0.00     0.116 C 
ENDBRANCH  37  40
ENDBRANCH  36  37
ENDBRANCH  31  36
ENDBRANCH   2  25
TORSDOF 14
ENDMDL
