MODEL 1
REMARK VINA RESULT: -7.362435803      0.000      0.000
REMARK  17 active torsions:
REMARK  status: ('A' for Active; 'I' for Inactive)
REMARK    1  A    between atoms: C2_2  and  C3_3 
REMARK    2  A    between atoms: C3_3  and  C4_4 
REMARK    3  A    between atoms: C4_4  and  O1_5 
REMARK    4  A    between atoms: C4_4  and  C5_7 
REMARK    5  A    between atoms: C4_4  and  C20_28 
REMARK    6  A    between atoms: C5_7  and  C6_8 
REMARK    7  A    between atoms: C6_8  and  C7_9 
REMARK    8  A    between atoms: C7_9  and  C8_10 
REMARK    9  A    between atoms: C10_12  and  O2_13 
REMARK   10  A    between atoms: C15_19  and  O3_20 
REMARK   11  A    between atoms: C17_23  and  O4_24 
REMARK   12  A    between atoms: C20_28  and  C21_29 
REMARK   13  A    between atoms: C21_29  and  C22_30 
REMARK   14  A    between atoms: C23_31  and  O5_32 
REMARK   15  A    between atoms: C25_35  and  C26_36 
REMARK   16  A    between atoms: C26_36  and  C27_37 
REMARK   17  A    between atoms: C32_42  and  O6_43 
ROOT
HETATM    1  C4  UNL     1      32.176  -4.752  -8.153  1.00  0.00     0.058 C 
ENDROOT
BRANCH   1   2
HETATM    2  C3  UNL     1      32.073  -4.398  -6.750  1.00  0.00     0.037 C 
BRANCH   2   3
HETATM    3  C2  UNL     1      31.170  -4.928  -5.737  1.00  0.00    -0.002 C 
HETATM    4  C1  UNL     1      31.258  -6.399  -5.423  1.00  0.00     0.005 C 
ENDBRANCH   2   3
ENDBRANCH   1   2
BRANCH   1   5
HETATM    5  O1  UNL     1      30.682  -4.686  -8.496  1.00  0.00    -0.390 OA
ATOM      6  H1  UNL     1      30.542  -5.615  -8.644  1.00  0.00     0.210 HD
ENDBRANCH   1   5
BRANCH   1   7
HETATM    7  C5  UNL     1      32.648  -3.590  -8.999  1.00  0.00     0.038 C 
BRANCH   7   8
HETATM    8  C6  UNL     1      32.867  -3.756 -10.428  1.00  0.00     0.003 C 
BRANCH   8   9
HETATM    9  C7  UNL     1      31.947  -3.203 -11.424  1.00  0.00     0.005 C 
BRANCH   9  10
HETATM   10  C8  UNL     1      32.457  -2.998 -12.803  1.00  0.00    -0.007 C 
HETATM   11  C9  UNL     1      33.895  -3.533 -12.922  1.00  0.00     0.036 C 
HETATM   12  C10 UNL     1      34.756  -2.609 -13.746  1.00  0.00     0.118 C 
HETATM   13  C11 UNL     1      34.274  -2.535 -15.181  1.00  0.00     0.032 C 
HETATM   14  C12 UNL     1      33.101  -1.604 -15.181  1.00  0.00     0.014 C 
HETATM   15  C13 UNL     1      31.768  -2.239 -15.067  1.00  0.00    -0.014 C 
HETATM   16  C14 UNL     1      30.781  -1.132 -14.671  1.00  0.00     0.018 C 
HETATM   17  C15 UNL     1      31.320  -2.762 -16.406  1.00  0.00     0.129 C 
HETATM   18  C19 UNL     1      31.670  -3.324 -13.979  1.00  0.00     0.003 C 
HETATM   19  C16 UNL     1      30.736  -4.131 -16.286  1.00  0.00     0.064 C 
HETATM   20  C17 UNL     1      29.753  -4.274 -15.173  1.00  0.00     0.121 C 
HETATM   21  C18 UNL     1      30.225  -3.610 -13.866  1.00  0.00     0.037 C 
BRANCH  12  22
HETATM   22  O2  UNL     1      36.069  -3.051 -13.641  1.00  0.00    -0.396 OA
ATOM     23  H2  UNL     1      36.637  -2.314 -13.834  1.00  0.00     0.210 HD
ENDBRANCH  12  22
BRANCH  17  24
HETATM   24  O3  UNL     1      30.489  -1.874 -17.088  1.00  0.00    -0.395 OA
ATOM     25  H3  UNL     1      29.871  -2.311 -17.661  1.00  0.00     0.210 HD
ENDBRANCH  17  24
BRANCH  20  26
HETATM   26  O4  UNL     1      28.487  -3.813 -15.526  1.00  0.00    -0.395 OA
ATOM     27  H4  UNL     1      28.501  -2.910 -15.821  1.00  0.00     0.210 HD
ENDBRANCH  20  26
ENDBRANCH   9  10
ENDBRANCH   8   9
ENDBRANCH   7   8
ENDBRANCH   1   7
BRANCH   1  28
HETATM   28  C20 UNL     1      32.594  -5.994  -8.755  1.00  0.00     0.042 C 
BRANCH  28  29
HETATM   29  C21 UNL     1      31.804  -7.088  -9.292  1.00  0.00     0.047 C 
BRANCH  29  30
HETATM   30  C22 UNL     1      31.878  -7.378 -10.739  1.00  0.00     0.017 A 
HETATM   31  C23 UNL     1      30.961  -6.826 -11.614  1.00  0.00     0.075 A 
HETATM   32  C24 UNL     1      31.034  -7.126 -12.963  1.00  0.00     0.047 A 
HETATM   33  C25 UNL     1      32.012  -7.977 -13.493  1.00  0.00    -0.019 A 
HETATM   34  C32 UNL     1      32.913  -8.520 -12.646  1.00  0.00     0.113 A 
HETATM   35  C34 UNL     1      32.819  -8.197 -11.265  1.00  0.00     0.159 A 
HETATM   36  F1  UNL     1      33.814  -8.768 -10.534  1.00  0.00    -0.203 F 
BRANCH  31  37
HETATM   37  O5  UNL     1      29.955  -5.970 -11.245  1.00  0.00    -0.360 OA
ATOM     38  H5  UNL     1      29.324  -5.591 -11.847  1.00  0.00     0.217 HD
ENDBRANCH  31  37
BRANCH  33  39
HETATM   39  C26 UNL     1      32.042  -8.161 -14.950  1.00  0.00     0.046 C 
BRANCH  39  40
HETATM   40  C27 UNL     1      32.522  -7.061 -15.791  1.00  0.00    -0.010 C 
HETATM   41  C28 UNL     1      32.906  -7.591 -17.184  1.00  0.00     0.005 C 
HETATM   42  C29 UNL     1      34.402  -7.806 -17.048  1.00  0.00     0.000 C 
HETATM   43  C30 UNL     1      34.869  -6.687 -16.142  1.00  0.00     0.000 C 
HETATM   44  C31 UNL     1      33.641  -6.198 -15.397  1.00  0.00     0.005 C 
ENDBRANCH  39  40
ENDBRANCH  33  39
BRANCH  34  45
HETATM   45  O6  UNL     1      33.917  -9.375 -13.009  1.00  0.00    -0.352 OA
HETATM   46  C33 UNL     1      35.202  -9.163 -13.429  1.00  0.00     0.210 C 
ENDBRANCH  34  45
ENDBRANCH  29  30
ENDBRANCH  28  29
ENDBRANCH   1  28
TORSDOF 17
ENDMDL
MODEL 2
REMARK VINA RESULT: -7.277241032      1.424      2.179
REMARK  17 active torsions:
REMARK  status: ('A' for Active; 'I' for Inactive)
REMARK    1  A    between atoms: C2_2  and  C3_3 
REMARK    2  A    between atoms: C3_3  and  C4_4 
REMARK    3  A    between atoms: C4_4  and  O1_5 
REMARK    4  A    between atoms: C4_4  and  C5_7 
REMARK    5  A    between atoms: C4_4  and  C20_28 
REMARK    6  A    between atoms: C5_7  and  C6_8 
REMARK    7  A    between atoms: C6_8  and  C7_9 
REMARK    8  A    between atoms: C7_9  and  C8_10 
REMARK    9  A    between atoms: C10_12  and  O2_13 
REMARK   10  A    between atoms: C15_19  and  O3_20 
REMARK   11  A    between atoms: C17_23  and  O4_24 
REMARK   12  A    between atoms: C20_28  and  C21_29 
REMARK   13  A    between atoms: C21_29  and  C22_30 
REMARK   14  A    between atoms: C23_31  and  O5_32 
REMARK   15  A    between atoms: C25_35  and  C26_36 
REMARK   16  A    between atoms: C26_36  and  C27_37 
REMARK   17  A    between atoms: C32_42  and  O6_43 
ROOT
HETATM    1  C4  UNL     1      31.415  -5.370  -8.521  1.00  0.00     0.058 C 
ENDROOT
BRANCH   1   2
HETATM    2  C3  UNL     1      32.036  -5.991  -7.367  1.00  0.00     0.037 C 
BRANCH   2   3
HETATM    3  C2  UNL     1      31.477  -6.969  -6.444  1.00  0.00    -0.002 C 
HETATM    4  C1  UNL     1      31.204  -6.522  -5.031  1.00  0.00     0.005 C 
ENDBRANCH   2   3
ENDBRANCH   1   2
BRANCH   1   5
HETATM    5  O1  UNL     1      30.266  -4.665  -7.788  1.00  0.00    -0.390 OA
ATOM      6  H1  UNL     1      30.447  -3.780  -8.082  1.00  0.00     0.210 HD
ENDBRANCH   1   5
BRANCH   1   7
HETATM    7  C5  UNL     1      32.170  -4.142  -8.980  1.00  0.00     0.038 C 
BRANCH   7   8
HETATM    8  C6  UNL     1      32.611  -4.018 -10.361  1.00  0.00     0.003 C 
BRANCH   8   9
HETATM    9  C7  UNL     1      32.057  -3.010 -11.267  1.00  0.00     0.005 C 
BRANCH   9  10
HETATM   10  C8  UNL     1      32.566  -2.972 -12.660  1.00  0.00    -0.007 C 
HETATM   11  C9  UNL     1      33.997  -3.537 -12.719  1.00  0.00     0.036 C 
HETATM   12  C10 UNL     1      34.868  -2.726 -13.644  1.00  0.00     0.118 C 
HETATM   13  C11 UNL     1      34.384  -2.811 -15.078  1.00  0.00     0.032 C 
HETATM   14  C12 UNL     1      33.224  -1.869 -15.184  1.00  0.00     0.014 C 
HETATM   15  C13 UNL     1      31.883  -2.469 -14.997  1.00  0.00    -0.014 C 
HETATM   16  C14 UNL     1      30.911  -1.309 -14.730  1.00  0.00     0.018 C 
HETATM   17  C15 UNL     1      31.424  -3.136 -16.266  1.00  0.00     0.129 C 
HETATM   18  C19 UNL     1      31.772  -3.420 -13.791  1.00  0.00     0.003 C 
HETATM   19  C16 UNL     1      30.822  -4.473 -15.989  1.00  0.00     0.064 C 
HETATM   20  C17 UNL     1      29.840  -4.474 -14.867  1.00  0.00     0.121 C 
HETATM   21  C18 UNL     1      30.323  -3.670 -13.645  1.00  0.00     0.037 C 
BRANCH  12  22
HETATM   22  O2  UNL     1      36.175  -3.171 -13.490  1.00  0.00    -0.396 OA
ATOM     23  H2  UNL     1      36.711  -2.419 -13.267  1.00  0.00     0.210 HD
ENDBRANCH  12  22
BRANCH  17  24
HETATM   24  O3  UNL     1      30.603  -2.321 -17.045  1.00  0.00    -0.395 OA
ATOM     25  H3  UNL     1      30.401  -2.699 -17.891  1.00  0.00     0.210 HD
ENDBRANCH  17  24
BRANCH  20  26
HETATM   26  O4  UNL     1      28.578  -4.038 -15.269  1.00  0.00    -0.395 OA
ATOM     27  H4  UNL     1      28.025  -4.755 -15.556  1.00  0.00     0.210 HD
ENDBRANCH  20  26
ENDBRANCH   9  10
ENDBRANCH   8   9
ENDBRANCH   7   8
ENDBRANCH   1   7
BRANCH   1  28
HETATM   28  C20 UNL     1      30.754  -5.984  -9.647  1.00  0.00     0.042 C 
BRANCH  28  29
HETATM   29  C21 UNL     1      30.815  -7.349 -10.140  1.00  0.00     0.047 C 
BRANCH  29  30
HETATM   30  C22 UNL     1      31.911  -7.726 -11.057  1.00  0.00     0.017 A 
HETATM   31  C23 UNL     1      33.069  -8.302 -10.568  1.00  0.00     0.075 A 
HETATM   32  C24 UNL     1      34.093  -8.629 -11.441  1.00  0.00     0.047 A 
HETATM   33  C25 UNL     1      34.008  -8.401 -12.819  1.00  0.00    -0.019 A 
HETATM   34  C32 UNL     1      32.881  -7.840 -13.306  1.00  0.00     0.113 A 
HETATM   35  C34 UNL     1      31.842  -7.513 -12.392  1.00  0.00     0.159 A 
HETATM   36  F1  UNL     1      30.747  -7.004 -13.018  1.00  0.00    -0.203 F 
BRANCH  31  37
HETATM   37  O5  UNL     1      33.293  -8.593  -9.247  1.00  0.00    -0.360 OA
ATOM     38  H5  UNL     1      33.840  -9.307  -8.939  1.00  0.00     0.217 HD
ENDBRANCH  31  37
BRANCH  33  39
HETATM   39  C26 UNL     1      35.123  -8.861 -13.659  1.00  0.00     0.046 C 
BRANCH  39  40
HETATM   40  C27 UNL     1      36.326  -8.029 -13.751  1.00  0.00    -0.010 C 
HETATM   41  C28 UNL     1      35.935  -6.543 -13.830  1.00  0.00     0.005 C 
HETATM   42  C29 UNL     1      35.947  -6.284 -15.325  1.00  0.00     0.000 C 
HETATM   43  C30 UNL     1      37.076  -7.143 -15.855  1.00  0.00     0.000 C 
HETATM   44  C31 UNL     1      37.330  -8.209 -14.806  1.00  0.00     0.005 C 
ENDBRANCH  39  40
ENDBRANCH  33  39
BRANCH  34  45
HETATM   45  O6  UNL     1      32.653  -7.547 -14.622  1.00  0.00    -0.352 OA
HETATM   46  C33 UNL     1      32.169  -8.292 -15.663  1.00  0.00     0.210 C 
ENDBRANCH  34  45
ENDBRANCH  29  30
ENDBRANCH  28  29
ENDBRANCH   1  28
TORSDOF 17
ENDMDL
MODEL 3
REMARK VINA RESULT: -7.184142342      2.230      6.308
REMARK  17 active torsions:
REMARK  status: ('A' for Active; 'I' for Inactive)
REMARK    1  A    between atoms: C2_2  and  C3_3 
REMARK    2  A    between atoms: C3_3  and  C4_4 
REMARK    3  A    between atoms: C4_4  and  O1_5 
REMARK    4  A    between atoms: C4_4  and  C5_7 
REMARK    5  A    between atoms: C4_4  and  C20_28 
REMARK    6  A    between atoms: C5_7  and  C6_8 
REMARK    7  A    between atoms: C6_8  and  C7_9 
REMARK    8  A    between atoms: C7_9  and  C8_10 
REMARK    9  A    between atoms: C10_12  and  O2_13 
REMARK   10  A    between atoms: C15_19  and  O3_20 
REMARK   11  A    between atoms: C17_23  and  O4_24 
REMARK   12  A    between atoms: C20_28  and  C21_29 
REMARK   13  A    between atoms: C21_29  and  C22_30 
REMARK   14  A    between atoms: C23_31  and  O5_32 
REMARK   15  A    between atoms: C25_35  and  C26_36 
REMARK   16  A    between atoms: C26_36  and  C27_37 
REMARK   17  A    between atoms: C32_42  and  O6_43 
ROOT
HETATM    1  C4  UNL     1      30.930  -2.287 -13.114  1.00  0.00     0.058 C 
ENDROOT
BRANCH   1   2
HETATM    2  C3  UNL     1      30.141  -3.475 -12.847  1.00  0.00     0.037 C 
BRANCH   2   3
HETATM    3  C2  UNL     1      29.154  -4.127 -13.695  1.00  0.00    -0.002 C 
HETATM    4  C1  UNL     1      27.946  -4.731 -13.026  1.00  0.00     0.005 C 
ENDBRANCH   2   3
ENDBRANCH   1   2
BRANCH   1   5
HETATM    5  O1  UNL     1      30.159  -1.316 -12.210  1.00  0.00    -0.390 OA
ATOM      6  H1  UNL     1      30.884  -0.742 -11.989  1.00  0.00     0.210 HD
ENDBRANCH   1   5
BRANCH   1   7
HETATM    7  C5  UNL     1      32.242  -2.295 -12.362  1.00  0.00     0.038 C 
BRANCH   7   8
HETATM    8  C6  UNL     1      32.278  -2.595 -10.939  1.00  0.00     0.003 C 
BRANCH   8   9
HETATM    9  C7  UNL     1      33.104  -3.673 -10.392  1.00  0.00     0.005 C 
BRANCH   9  10
HETATM   10  C8  UNL     1      32.541  -4.487  -9.286  1.00  0.00    -0.007 C 
HETATM   11  C9  UNL     1      32.232  -3.593  -8.072  1.00  0.00     0.036 C 
HETATM   12  C10 UNL     1      32.616  -4.272  -6.781  1.00  0.00     0.118 C 
HETATM   13  C11 UNL     1      31.783  -5.516  -6.541  1.00  0.00     0.032 C 
HETATM   14  C12 UNL     1      32.378  -6.591  -7.398  1.00  0.00     0.014 C 
HETATM   15  C13 UNL     1      31.754  -6.779  -8.727  1.00  0.00    -0.014 C 
HETATM   16  C14 UNL     1      32.744  -7.596  -9.570  1.00  0.00     0.018 C 
HETATM   17  C15 UNL     1      30.501  -7.603  -8.608  1.00  0.00     0.129 C 
HETATM   18  C19 UNL     1      31.495  -5.472  -9.500  1.00  0.00     0.003 C 
HETATM   19  C16 UNL     1      29.390  -7.023  -9.419  1.00  0.00     0.064 C 
HETATM   20  C17 UNL     1      29.786  -6.646 -10.806  1.00  0.00     0.121 C 
HETATM   21  C18 UNL     1      31.138  -5.911 -10.866  1.00  0.00     0.037 C 
BRANCH  12  22
HETATM   22  O2  UNL     1      32.494  -3.337  -5.761  1.00  0.00    -0.396 OA
ATOM     23  H2  UNL     1      31.774  -3.610  -5.204  1.00  0.00     0.210 HD
ENDBRANCH  12  22
BRANCH  17  24
HETATM   24  O3  UNL     1      30.712  -8.957  -8.867  1.00  0.00    -0.395 OA
ATOM     25  H3  UNL     1      29.943  -9.393  -9.212  1.00  0.00     0.210 HD
ENDBRANCH  17  24
BRANCH  20  26
HETATM   26  O4  UNL     1      29.786  -7.739 -11.670  1.00  0.00    -0.395 OA
ATOM     27  H4  UNL     1      30.472  -7.681 -12.324  1.00  0.00     0.210 HD
ENDBRANCH  20  26
ENDBRANCH   9  10
ENDBRANCH   8   9
ENDBRANCH   7   8
ENDBRANCH   1   7
BRANCH   1  28
HETATM   28  C20 UNL     1      31.076  -1.543 -14.341  1.00  0.00     0.042 C 
BRANCH  28  29
HETATM   29  C21 UNL     1      31.778  -1.882 -15.566  1.00  0.00     0.047 C 
BRANCH  29  30
HETATM   30  C22 UNL     1      32.716  -3.024 -15.556  1.00  0.00     0.017 A 
HETATM   31  C23 UNL     1      34.043  -2.841 -15.214  1.00  0.00     0.075 A 
HETATM   32  C24 UNL     1      34.911  -3.920 -15.231  1.00  0.00     0.047 A 
HETATM   33  C25 UNL     1      34.500  -5.210 -15.585  1.00  0.00    -0.019 A 
HETATM   34  C32 UNL     1      33.205  -5.400 -15.921  1.00  0.00     0.113 A 
HETATM   35  C34 UNL     1      32.332  -4.277 -15.895  1.00  0.00     0.159 A 
HETATM   36  F1  UNL     1      31.051  -4.616 -16.203  1.00  0.00    -0.203 F 
BRANCH  31  37
HETATM   37  O5  UNL     1      34.589  -1.641 -14.837  1.00  0.00    -0.360 OA
ATOM     38  H5  UNL     1      35.494  -1.392 -14.983  1.00  0.00     0.217 HD
ENDBRANCH  31  37
BRANCH  33  39
HETATM   39  C26 UNL     1      35.488  -6.293 -15.492  1.00  0.00     0.046 C 
BRANCH  39  40
HETATM   40  C27 UNL     1      35.869  -6.789 -14.167  1.00  0.00    -0.010 C 
HETATM   41  C28 UNL     1      36.603  -8.135 -14.298  1.00  0.00     0.005 C 
HETATM   42  C29 UNL     1      35.485  -9.136 -14.073  1.00  0.00     0.000 C 
HETATM   43  C30 UNL     1      34.585  -8.482 -13.047  1.00  0.00     0.000 C 
HETATM   44  C31 UNL     1      34.893  -6.997 -13.092  1.00  0.00     0.005 C 
ENDBRANCH  39  40
ENDBRANCH  33  39
BRANCH  34  45
HETATM   45  O6  UNL     1      32.657  -6.594 -16.298  1.00  0.00    -0.352 OA
HETATM   46  C33 UNL     1      32.073  -7.607 -15.586  1.00  0.00     0.210 C 
ENDBRANCH  34  45
ENDBRANCH  29  30
ENDBRANCH  28  29
ENDBRANCH   1  28
TORSDOF 17
ENDMDL
MODEL 4
REMARK VINA RESULT: -7.139705194      1.213      1.474
REMARK  17 active torsions:
REMARK  status: ('A' for Active; 'I' for Inactive)
REMARK    1  A    between atoms: C2_2  and  C3_3 
REMARK    2  A    between atoms: C3_3  and  C4_4 
REMARK    3  A    between atoms: C4_4  and  O1_5 
REMARK    4  A    between atoms: C4_4  and  C5_7 
REMARK    5  A    between atoms: C4_4  and  C20_28 
REMARK    6  A    between atoms: C5_7  and  C6_8 
REMARK    7  A    between atoms: C6_8  and  C7_9 
REMARK    8  A    between atoms: C7_9  and  C8_10 
REMARK    9  A    between atoms: C10_12  and  O2_13 
REMARK   10  A    between atoms: C15_19  and  O3_20 
REMARK   11  A    between atoms: C17_23  and  O4_24 
REMARK   12  A    between atoms: C20_28  and  C21_29 
REMARK   13  A    between atoms: C21_29  and  C22_30 
REMARK   14  A    between atoms: C23_31  and  O5_32 
REMARK   15  A    between atoms: C25_35  and  C26_36 
REMARK   16  A    between atoms: C26_36  and  C27_37 
REMARK   17  A    between atoms: C32_42  and  O6_43 
ROOT
HETATM    1  C4  UNL     1      31.516  -6.161  -8.220  1.00  0.00     0.058 C 
ENDROOT
BRANCH   1   2
HETATM    2  C3  UNL     1      31.351  -5.635  -6.878  1.00  0.00     0.037 C 
BRANCH   2   3
HETATM    3  C2  UNL     1      31.787  -4.355  -6.338  1.00  0.00    -0.002 C 
HETATM    4  C1  UNL     1      33.218  -3.947  -6.574  1.00  0.00     0.005 C 
ENDBRANCH   2   3
ENDBRANCH   1   2
BRANCH   1   5
HETATM    5  O1  UNL     1      30.201  -6.949  -8.300  1.00  0.00    -0.390 OA
ATOM      6  H1  UNL     1      30.493  -7.628  -8.897  1.00  0.00     0.210 HD
ENDBRANCH   1   5
BRANCH   1   7
HETATM    7  C5  UNL     1      31.215  -5.123  -9.278  1.00  0.00     0.038 C 
BRANCH   7   8
HETATM    8  C6  UNL     1      32.281  -4.581 -10.108  1.00  0.00     0.003 C 
BRANCH   8   9
HETATM    9  C7  UNL     1      32.156  -3.291 -10.790  1.00  0.00     0.005 C 
BRANCH   9  10
HETATM   10  C8  UNL     1      32.483  -3.235 -12.236  1.00  0.00    -0.007 C 
HETATM   11  C9  UNL     1      33.872  -3.848 -12.491  1.00  0.00     0.036 C 
HETATM   12  C10 UNL     1      34.647  -3.044 -13.505  1.00  0.00     0.118 C 
HETATM   13  C11 UNL     1      33.979  -3.075 -14.865  1.00  0.00     0.032 C 
HETATM   14  C12 UNL     1      32.851  -2.092 -14.800  1.00  0.00     0.014 C 
HETATM   15  C13 UNL     1      31.524  -2.649 -14.453  1.00  0.00    -0.014 C 
HETATM   16  C14 UNL     1      30.639  -1.464 -14.038  1.00  0.00     0.018 C 
HETATM   17  C15 UNL     1      30.880  -3.267 -15.666  1.00  0.00     0.129 C 
HETATM   18  C19 UNL     1      31.534  -3.626 -13.264  1.00  0.00     0.003 C 
HETATM   19  C16 UNL     1      30.269  -4.590 -15.341  1.00  0.00     0.064 C 
HETATM   20  C17 UNL     1      29.440  -4.585 -14.101  1.00  0.00     0.121 C 
HETATM   21  C18 UNL     1      30.107  -3.830 -12.936  1.00  0.00     0.037 C 
BRANCH  12  22
HETATM   22  O2  UNL     1      35.945  -3.538 -13.531  1.00  0.00    -0.396 OA
ATOM     23  H2  UNL     1      36.282  -3.416 -14.411  1.00  0.00     0.210 HD
ENDBRANCH  12  22
BRANCH  17  24
HETATM   24  O3  UNL     1      29.997  -2.405 -16.314  1.00  0.00    -0.395 OA
ATOM     25  H3  UNL     1      29.110  -2.740 -16.350  1.00  0.00     0.210 HD
ENDBRANCH  17  24
BRANCH  20  26
HETATM   26  O4  UNL     1      28.155  -4.096 -14.327  1.00  0.00    -0.395 OA
ATOM     27  H4  UNL     1      27.867  -3.509 -13.639  1.00  0.00     0.210 HD
ENDBRANCH  20  26
ENDBRANCH   9  10
ENDBRANCH   8   9
ENDBRANCH   7   8
ENDBRANCH   1   7
BRANCH   1  28
HETATM   28  C20 UNL     1      32.489  -7.100  -8.722  1.00  0.00     0.042 C 
BRANCH  28  29
HETATM   29  C21 UNL     1      32.319  -8.250  -9.594  1.00  0.00     0.047 C 
BRANCH  29  30
HETATM   30  C22 UNL     1      32.766  -8.150 -10.999  1.00  0.00     0.017 A 
HETATM   31  C23 UNL     1      31.865  -7.843 -12.002  1.00  0.00     0.075 A 
HETATM   32  C24 UNL     1      32.298  -7.776 -13.315  1.00  0.00     0.047 A 
HETATM   33  C25 UNL     1      33.630  -8.006 -13.681  1.00  0.00    -0.019 A 
HETATM   34  C32 UNL     1      34.517  -8.306 -12.708  1.00  0.00     0.113 A 
HETATM   35  C34 UNL     1      34.050  -8.369 -11.367  1.00  0.00     0.159 A 
HETATM   36  F1  UNL     1      35.053  -8.628 -10.484  1.00  0.00    -0.203 F 
BRANCH  31  37
HETATM   37  O5  UNL     1      30.534  -7.584 -11.797  1.00  0.00    -0.360 OA
ATOM     38  H5  UNL     1      29.842  -8.230 -11.874  1.00  0.00     0.217 HD
ENDBRANCH  31  37
BRANCH  33  39
HETATM   39  C26 UNL     1      33.992  -7.829 -15.094  1.00  0.00     0.046 C 
BRANCH  39  40
HETATM   40  C27 UNL     1      34.307  -6.483 -15.578  1.00  0.00    -0.010 C 
HETATM   41  C28 UNL     1      33.400  -6.125 -16.769  1.00  0.00     0.005 C 
HETATM   42  C29 UNL     1      34.270  -6.484 -17.959  1.00  0.00     0.000 C 
HETATM   43  C30 UNL     1      35.678  -6.141 -17.521  1.00  0.00     0.000 C 
HETATM   44  C31 UNL     1      35.656  -6.094 -16.005  1.00  0.00     0.005 C 
ENDBRANCH  39  40
ENDBRANCH  33  39
BRANCH  34  45
HETATM   45  O6  UNL     1      35.845  -8.566 -12.908  1.00  0.00    -0.352 OA
HETATM   46  C33 UNL     1      36.939  -7.751 -13.016  1.00  0.00     0.210 C 
ENDBRANCH  34  45
ENDBRANCH  29  30
ENDBRANCH  28  29
ENDBRANCH   1  28
TORSDOF 17
ENDMDL
MODEL 5
REMARK VINA RESULT: -7.064393077      2.367      6.236
REMARK  17 active torsions:
REMARK  status: ('A' for Active; 'I' for Inactive)
REMARK    1  A    between atoms: C2_2  and  C3_3 
REMARK    2  A    between atoms: C3_3  and  C4_4 
REMARK    3  A    between atoms: C4_4  and  O1_5 
REMARK    4  A    between atoms: C4_4  and  C5_7 
REMARK    5  A    between atoms: C4_4  and  C20_28 
REMARK    6  A    between atoms: C5_7  and  C6_8 
REMARK    7  A    between atoms: C6_8  and  C7_9 
REMARK    8  A    between atoms: C7_9  and  C8_10 
REMARK    9  A    between atoms: C10_12  and  O2_13 
REMARK   10  A    between atoms: C15_19  and  O3_20 
REMARK   11  A    between atoms: C17_23  and  O4_24 
REMARK   12  A    between atoms: C20_28  and  C21_29 
REMARK   13  A    between atoms: C21_29  and  C22_30 
REMARK   14  A    between atoms: C23_31  and  O5_32 
REMARK   15  A    between atoms: C25_35  and  C26_36 
REMARK   16  A    between atoms: C26_36  and  C27_37 
REMARK   17  A    between atoms: C32_42  and  O6_43 
ROOT
HETATM    1  C4  UNL     1      31.734  -3.181 -13.485  1.00  0.00     0.058 C 
ENDROOT
BRANCH   1   2
HETATM    2  C3  UNL     1      30.322  -3.369 -13.212  1.00  0.00     0.037 C 
BRANCH   2   3
HETATM    3  C2  UNL     1      29.407  -4.356 -13.765  1.00  0.00    -0.002 C 
HETATM    4  C1  UNL     1      28.088  -4.559 -13.064  1.00  0.00     0.005 C 
ENDBRANCH   2   3
ENDBRANCH   1   2
BRANCH   1   5
HETATM    5  O1  UNL     1      31.596  -2.091 -14.558  1.00  0.00    -0.390 OA
ATOM      6  H1  UNL     1      32.201  -2.457 -15.193  1.00  0.00     0.210 HD
ENDBRANCH   1   5
BRANCH   1   7
HETATM    7  C5  UNL     1      32.415  -2.354 -12.417  1.00  0.00     0.038 C 
BRANCH   7   8
HETATM    8  C6  UNL     1      32.265  -2.694 -11.010  1.00  0.00     0.003 C 
BRANCH   8   9
HETATM    9  C7  UNL     1      33.128  -3.677 -10.352  1.00  0.00     0.005 C 
BRANCH   9  10
HETATM   10  C8  UNL     1      32.550  -4.477  -9.244  1.00  0.00    -0.007 C 
HETATM   11  C9  UNL     1      32.246  -3.572  -8.037  1.00  0.00     0.036 C 
HETATM   12  C10 UNL     1      32.615  -4.246  -6.740  1.00  0.00     0.118 C 
HETATM   13  C11 UNL     1      31.766  -5.478  -6.495  1.00  0.00     0.032 C 
HETATM   14  C12 UNL     1      32.353  -6.566  -7.342  1.00  0.00     0.014 C 
HETATM   15  C13 UNL     1      31.734  -6.755  -8.674  1.00  0.00    -0.014 C 
HETATM   16  C14 UNL     1      32.719  -7.590  -9.506  1.00  0.00     0.018 C 
HETATM   17  C15 UNL     1      30.471  -7.565  -8.555  1.00  0.00     0.129 C 
HETATM   18  C19 UNL     1      31.494  -5.451  -9.456  1.00  0.00     0.003 C 
HETATM   19  C16 UNL     1      29.371  -6.977  -9.375  1.00  0.00     0.064 C 
HETATM   20  C17 UNL     1      29.779  -6.614 -10.763  1.00  0.00     0.121 C 
HETATM   21  C18 UNL     1      31.139  -5.895 -10.821  1.00  0.00     0.037 C 
BRANCH  12  22
HETATM   22  O2  UNL     1      32.499  -3.303  -5.726  1.00  0.00    -0.396 OA
ATOM     23  H2  UNL     1      33.335  -3.259  -5.277  1.00  0.00     0.210 HD
ENDBRANCH  12  22
BRANCH  17  24
HETATM   24  O3  UNL     1      30.668  -8.923  -8.804  1.00  0.00    -0.395 OA
ATOM     25  H3  UNL     1      30.047  -9.280  -9.426  1.00  0.00     0.210 HD
ENDBRANCH  17  24
BRANCH  20  26
HETATM   26  O4  UNL     1      29.770  -7.713 -11.620  1.00  0.00    -0.395 OA
ATOM     27  H4  UNL     1      29.934  -7.466 -12.522  1.00  0.00     0.210 HD
ENDBRANCH  20  26
ENDBRANCH   9  10
ENDBRANCH   8   9
ENDBRANCH   7   8
ENDBRANCH   1   7
BRANCH   1  28
HETATM   28  C20 UNL     1      32.683  -4.096 -14.072  1.00  0.00     0.042 C 
BRANCH  28  29
HETATM   29  C21 UNL     1      34.126  -4.170 -13.927  1.00  0.00     0.047 C 
BRANCH  29  30
HETATM   30  C22 UNL     1      34.808  -5.444 -14.236  1.00  0.00     0.017 A 
HETATM   31  C23 UNL     1      35.678  -5.533 -15.307  1.00  0.00     0.075 A 
HETATM   32  C24 UNL     1      36.291  -6.742 -15.593  1.00  0.00     0.047 A 
HETATM   33  C25 UNL     1      36.067  -7.897 -14.834  1.00  0.00    -0.019 A 
HETATM   34  C32 UNL     1      35.219  -7.819 -13.786  1.00  0.00     0.113 A 
HETATM   35  C34 UNL     1      34.602  -6.568 -13.511  1.00  0.00     0.159 A 
HETATM   36  F1  UNL     1      33.815  -6.616 -12.402  1.00  0.00    -0.203 F 
BRANCH  31  37
HETATM   37  O5  UNL     1      36.003  -4.488 -16.132  1.00  0.00    -0.360 OA
ATOM     38  H5  UNL     1      35.917  -4.503 -17.079  1.00  0.00     0.217 HD
ENDBRANCH  31  37
BRANCH  33  39
HETATM   39  C26 UNL     1      36.832  -9.102 -15.181  1.00  0.00     0.046 C 
BRANCH  39  40
HETATM   40  C27 UNL     1      37.932  -8.988 -16.142  1.00  0.00    -0.010 C 
HETATM   41  C28 UNL     1      37.838 -10.112 -17.189  1.00  0.00     0.005 C 
HETATM   42  C29 UNL     1      38.776 -11.161 -16.623  1.00  0.00     0.000 C 
HETATM   43  C30 UNL     1      39.891 -10.369 -15.974  1.00  0.00     0.000 C 
HETATM   44  C31 UNL     1      39.340  -8.976 -15.731  1.00  0.00     0.005 C 
ENDBRANCH  39  40
ENDBRANCH  33  39
BRANCH  34  45
HETATM   45  O6  UNL     1      34.891  -8.859 -12.961  1.00  0.00    -0.352 OA
HETATM   46  C33 UNL     1      35.302  -9.201 -11.701  1.00  0.00     0.210 C 
ENDBRANCH  34  45
ENDBRANCH  29  30
ENDBRANCH  28  29
ENDBRANCH   1  28
TORSDOF 17
ENDMDL
