MODEL 1
REMARK VINA RESULT: -6.904839837      0.000      0.000
REMARK  16 active torsions:
REMARK  status: ('A' for Active; 'I' for Inactive)
REMARK    1  A    between atoms: C2_2  and  O2_4 
REMARK    2  A    between atoms: O2_4  and  C3_5 
REMARK    3  A    between atoms: C3_5  and  C4_6 
REMARK    4  A    between atoms: C3_5  and  C26_34 
REMARK    5  A    between atoms: C4_6  and  C5_7 
REMARK    6  A    between atoms: C5_7  and  N1_8 
REMARK    7  A    between atoms: N1_8  and  C6_10 
REMARK    8  A    between atoms: C6_10  and  O3_12 
REMARK    9  A    between atoms: C6_10  and  C8_14 
REMARK   10  A    between atoms: C8_14  and  C9_15 
REMARK   11  A    between atoms: C9_15  and  C10_16 
REMARK   12  A    between atoms: C10_16  and  C11_17 
REMARK   13  A    between atoms: C11_17  and  C12_19 
REMARK   14  A    between atoms: C12_19  and  C13_20 
REMARK   15  A    between atoms: C13_20  and  C14_21 
REMARK       I    between atoms: C26_34  and  N2_36 
REMARK   16  A    between atoms: N2_36  and  N3_38 
ROOT
HETATM    1  C5  UNL     1     -14.127   7.809  47.316  1.00  0.00     0.061 C 
HETATM    2  C21 UNL     1     -13.871   7.851  45.854  1.00  0.00     0.033 C 
HETATM    3  C22 UNL     1     -12.542   7.472  45.339  1.00  0.00     0.003 C 
HETATM    4  C23 UNL     1     -11.378   7.563  46.253  1.00  0.00     0.003 C 
HETATM    5  C24 UNL     1     -11.665   7.915  47.677  1.00  0.00     0.040 C 
HETATM    6  C25 UNL     1     -12.924   7.224  48.081  1.00  0.00     0.198 C 
HETATM    7  F1  UNL     1     -13.197   7.326  49.429  1.00  0.00    -0.247 F 
ENDROOT
BRANCH   1   8
HETATM    8  C4  UNL     1     -15.283   6.980  47.687  1.00  0.00     0.076 C 
BRANCH   8   9
HETATM    9  C3  UNL     1     -16.348   6.552  46.743  1.00  0.00     0.227 C 
BRANCH   9  10
HETATM   10  O2  UNL     1     -16.077   5.062  46.747  1.00  0.00    -0.306 OA
BRANCH  10  11
HETATM   11  C2  UNL     1     -15.497   4.503  45.639  1.00  0.00     0.255 C 
HETATM   12  C1  UNL     1     -16.099   4.727  44.310  1.00  0.00     0.126 C 
HETATM   13  O1  UNL     1     -14.467   3.812  45.761  1.00  0.00    -0.266 OA
ENDBRANCH  10  11
ENDBRANCH   9  10
BRANCH   9  14
HETATM   14  C26 UNL     1     -17.751   6.560  47.184  1.00  0.00     0.265 C 
HETATM   15  O5  UNL     1     -18.000   6.308  48.426  1.00  0.00    -0.269 OA
HETATM   16  N2  UNL     1     -18.890   6.805  46.396  1.00  0.00    -0.274 N 
ATOM     17  H2  UNL     1     -18.775   7.012  45.404  1.00  0.00     0.189 HD
BRANCH  16  18
HETATM   18  N3  UNL     1     -20.165   6.773  46.938  1.00  0.00    -0.343 N 
ATOM     19  H32 UNL     1     -20.479   5.911  47.382  1.00  0.00     0.176 HD
ATOM     20  H31 UNL     1     -20.781   7.585  46.898  1.00  0.00     0.176 HD
ENDBRANCH  16  18
ENDBRANCH   9  14
ENDBRANCH   8   9
ENDBRANCH   1   8
BRANCH   1  21
HETATM   21  N1  UNL     1     -14.345   9.101  47.876  1.00  0.00    -0.380 N 
ATOM     22  H1  UNL     1     -13.528   9.480  48.355  1.00  0.00     0.157 HD
BRANCH  21  23
HETATM   23  C6  UNL     1     -15.404   9.920  47.900  1.00  0.00     0.124 C 
HETATM   24  C7  UNL     1     -16.345   9.939  49.116  1.00  0.00     0.070 C 
BRANCH  23  25
HETATM   25  O3  UNL     1     -16.218  10.072  46.776  1.00  0.00    -0.372 OA
ATOM     26  H3  UNL     1     -15.860  10.383  45.954  1.00  0.00     0.212 HD
ENDBRANCH  23  25
BRANCH  23  27
HETATM   27  C8  UNL     1     -14.793  11.364  48.017  1.00  0.00     0.060 C 
BRANCH  27  28
HETATM   28  C9  UNL     1     -13.343  11.426  47.739  1.00  0.00     0.012 C 
BRANCH  28  29
HETATM   29  C10 UNL     1     -13.158  12.298  46.487  1.00  0.00     0.083 C 
BRANCH  29  30
HETATM   30  C11 UNL     1     -12.881  11.398  45.306  1.00  0.00     0.145 C 
HETATM   31  O4  UNL     1     -11.742  10.953  45.285  1.00  0.00    -0.294 OA
BRANCH  30  32
HETATM   32  C12 UNL     1     -13.881  11.110  44.308  1.00  0.00     0.024 C 
BRANCH  32  33
HETATM   33  C13 UNL     1     -13.893  11.633  42.958  1.00  0.00     0.035 C 
BRANCH  33  34
HETATM   34  C14 UNL     1     -13.968  10.721  41.794  1.00  0.00    -0.011 C 
HETATM   35  C15 UNL     1     -13.253  11.186  40.592  1.00  0.00     0.005 C 
HETATM   36  C16 UNL     1     -13.266  10.116  39.472  1.00  0.00     0.001 C 
HETATM   37  C17 UNL     1     -12.869   8.769  39.973  1.00  0.00     0.004 C 
HETATM   38  C18 UNL     1     -12.305   8.929  41.376  1.00  0.00    -0.018 C 
HETATM   39  C19 UNL     1     -11.731   7.628  41.898  1.00  0.00     0.010 C 
HETATM   40  C20 UNL     1     -13.450   9.334  42.257  1.00  0.00     0.009 C 
ENDBRANCH  33  34
ENDBRANCH  32  33
ENDBRANCH  30  32
ENDBRANCH  29  30
ENDBRANCH  28  29
ENDBRANCH  27  28
ENDBRANCH  23  27
ENDBRANCH  21  23
ENDBRANCH   1  21
TORSDOF 16
ENDMDL
MODEL 2
REMARK VINA RESULT: -6.852236319      2.461      6.016
REMARK  16 active torsions:
REMARK  status: ('A' for Active; 'I' for Inactive)
REMARK    1  A    between atoms: C2_2  and  O2_4 
REMARK    2  A    between atoms: O2_4  and  C3_5 
REMARK    3  A    between atoms: C3_5  and  C4_6 
REMARK    4  A    between atoms: C3_5  and  C26_34 
REMARK    5  A    between atoms: C4_6  and  C5_7 
REMARK    6  A    between atoms: C5_7  and  N1_8 
REMARK    7  A    between atoms: N1_8  and  C6_10 
REMARK    8  A    between atoms: C6_10  and  O3_12 
REMARK    9  A    between atoms: C6_10  and  C8_14 
REMARK   10  A    between atoms: C8_14  and  C9_15 
REMARK   11  A    between atoms: C9_15  and  C10_16 
REMARK   12  A    between atoms: C10_16  and  C11_17 
REMARK   13  A    between atoms: C11_17  and  C12_19 
REMARK   14  A    between atoms: C12_19  and  C13_20 
REMARK   15  A    between atoms: C13_20  and  C14_21 
REMARK       I    between atoms: C26_34  and  N2_36 
REMARK   16  A    between atoms: N2_36  and  N3_38 
ROOT
HETATM    1  C5  UNL     1     -13.941   9.670  47.230  1.00  0.00     0.061 C 
HETATM    2  C21 UNL     1     -14.227  10.213  45.877  1.00  0.00     0.033 C 
HETATM    3  C22 UNL     1     -15.308  11.203  45.707  1.00  0.00     0.003 C 
HETATM    4  C23 UNL     1     -16.389  11.249  46.720  1.00  0.00     0.003 C 
HETATM    5  C24 UNL     1     -16.231  10.365  47.915  1.00  0.00     0.040 C 
HETATM    6  C25 UNL     1     -14.792  10.368  48.308  1.00  0.00     0.198 C 
HETATM    7  F1  UNL     1     -14.550   9.732  49.508  1.00  0.00    -0.247 F 
ENDROOT
BRANCH   1   8
HETATM    8  C4  UNL     1     -12.541   9.842  47.648  1.00  0.00     0.076 C 
BRANCH   8   9
HETATM    9  C3  UNL     1     -11.564  10.731  46.968  1.00  0.00     0.227 C 
BRANCH   9  10
HETATM   10  O2  UNL     1     -10.961  11.391  48.190  1.00  0.00    -0.306 OA
BRANCH  10  11
HETATM   11  C2  UNL     1     -11.693  12.348  48.842  1.00  0.00     0.255 C 
HETATM   12  C1  UNL     1     -12.372  13.402  48.064  1.00  0.00     0.126 C 
HETATM   13  O1  UNL     1     -11.782  12.320  50.085  1.00  0.00    -0.266 OA
ENDBRANCH  10  11
ENDBRANCH   9  10
BRANCH   9  14
HETATM   14  C26 UNL     1     -10.355  10.151  46.366  1.00  0.00     0.265 C 
HETATM   15  O5  UNL     1      -9.442  10.958  45.937  1.00  0.00    -0.269 OA
HETATM   16  N2  UNL     1     -10.064   8.787  46.183  1.00  0.00    -0.274 N 
ATOM     17  H2  UNL     1     -10.737   8.088  46.496  1.00  0.00     0.189 HD
BRANCH  16  18
HETATM   18  N3  UNL     1      -8.883   8.372  45.589  1.00  0.00    -0.343 N 
ATOM     19  H32 UNL     1      -8.123   9.047  45.504  1.00  0.00     0.176 HD
ATOM     20  H31 UNL     1      -8.767   7.420  45.241  1.00  0.00     0.176 HD
ENDBRANCH  16  18
ENDBRANCH   9  14
ENDBRANCH   8   9
ENDBRANCH   1   8
BRANCH   1  21
HETATM   21  N1  UNL     1     -14.241   8.282  47.343  1.00  0.00    -0.380 N 
ATOM     22  H1  UNL     1     -15.194   8.096  47.658  1.00  0.00     0.157 HD
BRANCH  21  23
HETATM   23  C6  UNL     1     -13.529   7.172  47.119  1.00  0.00     0.124 C 
HETATM   24  C7  UNL     1     -12.964   6.359  48.296  1.00  0.00     0.070 C 
BRANCH  23  25
HETATM   25  O3  UNL     1     -12.557   7.133  46.119  1.00  0.00    -0.372 OA
ATOM     26  H3  UNL     1     -12.801   7.083  45.203  1.00  0.00     0.212 HD
ENDBRANCH  23  25
BRANCH  23  27
HETATM   27  C8  UNL     1     -14.568   6.133  46.558  1.00  0.00     0.060 C 
BRANCH  27  28
HETATM   28  C9  UNL     1     -15.570   6.721  45.645  1.00  0.00     0.012 C 
BRANCH  28  29
HETATM   29  C10 UNL     1     -15.832   5.691  44.535  1.00  0.00     0.083 C 
BRANCH  29  30
HETATM   30  C11 UNL     1     -14.657   5.693  43.584  1.00  0.00     0.145 C 
HETATM   31  O4  UNL     1     -14.163   4.588  43.412  1.00  0.00    -0.294 OA
BRANCH  30  32
HETATM   32  C12 UNL     1     -14.181   6.900  42.955  1.00  0.00     0.024 C 
BRANCH  32  33
HETATM   33  C13 UNL     1     -12.793   7.215  42.690  1.00  0.00     0.035 C 
BRANCH  33  34
HETATM   34  C14 UNL     1     -12.429   8.294  41.744  1.00  0.00    -0.011 C 
HETATM   35  C15 UNL     1     -12.980   8.143  40.386  1.00  0.00     0.005 C 
HETATM   36  C16 UNL     1     -12.668   9.378  39.504  1.00  0.00     0.001 C 
HETATM   37  C17 UNL     1     -12.997  10.660  40.189  1.00  0.00     0.004 C 
HETATM   38  C18 UNL     1     -13.800  10.338  41.440  1.00  0.00    -0.018 C 
HETATM   39  C19 UNL     1     -14.311  11.596  42.113  1.00  0.00     0.010 C 
HETATM   40  C20 UNL     1     -12.867   9.638  42.383  1.00  0.00     0.009 C 
ENDBRANCH  33  34
ENDBRANCH  32  33
ENDBRANCH  30  32
ENDBRANCH  29  30
ENDBRANCH  28  29
ENDBRANCH  27  28
ENDBRANCH  23  27
ENDBRANCH  21  23
ENDBRANCH   1  21
TORSDOF 16
ENDMDL
MODEL 3
REMARK VINA RESULT: -6.828511302      2.136      5.524
REMARK  16 active torsions:
REMARK  status: ('A' for Active; 'I' for Inactive)
REMARK    1  A    between atoms: C2_2  and  O2_4 
REMARK    2  A    between atoms: O2_4  and  C3_5 
REMARK    3  A    between atoms: C3_5  and  C4_6 
REMARK    4  A    between atoms: C3_5  and  C26_34 
REMARK    5  A    between atoms: C4_6  and  C5_7 
REMARK    6  A    between atoms: C5_7  and  N1_8 
REMARK    7  A    between atoms: N1_8  and  C6_10 
REMARK    8  A    between atoms: C6_10  and  O3_12 
REMARK    9  A    between atoms: C6_10  and  C8_14 
REMARK   10  A    between atoms: C8_14  and  C9_15 
REMARK   11  A    between atoms: C9_15  and  C10_16 
REMARK   12  A    between atoms: C10_16  and  C11_17 
REMARK   13  A    between atoms: C11_17  and  C12_19 
REMARK   14  A    between atoms: C12_19  and  C13_20 
REMARK   15  A    between atoms: C13_20  and  C14_21 
REMARK       I    between atoms: C26_34  and  N2_36 
REMARK   16  A    between atoms: N2_36  and  N3_38 
ROOT
HETATM    1  C5  UNL     1     -14.634   9.254  47.145  1.00  0.00     0.061 C 
HETATM    2  C21 UNL     1     -14.609  10.045  45.888  1.00  0.00     0.033 C 
HETATM    3  C22 UNL     1     -14.949  11.480  45.928  1.00  0.00     0.003 C 
HETATM    4  C23 UNL     1     -15.782  11.978  47.049  1.00  0.00     0.003 C 
HETATM    5  C24 UNL     1     -16.111  11.000  48.131  1.00  0.00     0.040 C 
HETATM    6  C25 UNL     1     -14.909  10.149  48.368  1.00  0.00     0.198 C 
HETATM    7  F1  UNL     1     -15.028   9.327  49.470  1.00  0.00    -0.247 F 
ENDROOT
BRANCH   1   8
HETATM    8  C4  UNL     1     -13.369   8.561  47.428  1.00  0.00     0.076 C 
BRANCH   8   9
HETATM    9  C3  UNL     1     -12.125   8.722  46.631  1.00  0.00     0.227 C 
BRANCH   9  10
HETATM   10  O2  UNL     1     -11.401   9.704  47.527  1.00  0.00    -0.306 OA
BRANCH  10  11
HETATM   11  C2  UNL     1     -11.068  10.930  47.015  1.00  0.00     0.255 C 
HETATM   12  C1  UNL     1     -11.752  12.139  47.515  1.00  0.00     0.126 C 
HETATM   13  O1  UNL     1     -10.191  11.016  46.133  1.00  0.00    -0.266 OA
ENDBRANCH  10  11
ENDBRANCH   9  10
BRANCH   9  14
HETATM   14  C26 UNL     1     -11.141   7.630  46.597  1.00  0.00     0.265 C 
HETATM   15  O5  UNL     1     -11.510   6.466  47.019  1.00  0.00    -0.269 OA
HETATM   16  N2  UNL     1      -9.807   7.698  46.158  1.00  0.00    -0.274 N 
ATOM     17  H2  UNL     1      -9.442   8.585  45.809  1.00  0.00     0.189 HD
BRANCH  16  18
HETATM   18  N3  UNL     1      -8.978   6.588  46.187  1.00  0.00    -0.343 N 
ATOM     19  H32 UNL     1      -8.936   6.040  47.045  1.00  0.00     0.176 HD
ATOM     20  H31 UNL     1      -8.420   6.320  45.376  1.00  0.00     0.176 HD
ENDBRANCH  16  18
ENDBRANCH   9  14
ENDBRANCH   8   9
ENDBRANCH   1   8
BRANCH   1  21
HETATM   21  N1  UNL     1     -15.661   8.266  47.156  1.00  0.00    -0.380 N 
ATOM     22  H1  UNL     1     -16.594   8.647  46.995  1.00  0.00     0.157 HD
BRANCH  21  23
HETATM   23  C6  UNL     1     -15.652   6.940  47.333  1.00  0.00     0.124 C 
HETATM   24  C7  UNL     1     -16.264   6.319  48.599  1.00  0.00     0.070 C 
BRANCH  23  25
HETATM   25  O3  UNL     1     -14.514   6.186  47.041  1.00  0.00    -0.372 OA
ATOM     26  H3  UNL     1     -14.447   5.279  47.314  1.00  0.00     0.212 HD
ENDBRANCH  23  25
BRANCH  23  27
HETATM   27  C8  UNL     1     -16.655   6.383  46.257  1.00  0.00     0.060 C 
BRANCH  27  28
HETATM   28  C9  UNL     1     -16.152   5.205  45.520  1.00  0.00     0.012 C 
BRANCH  28  29
HETATM   29  C10 UNL     1     -16.126   5.580  44.029  1.00  0.00     0.083 C 
BRANCH  29  30
HETATM   30  C11 UNL     1     -14.689   5.772  43.603  1.00  0.00     0.145 C 
HETATM   31  O4  UNL     1     -14.157   4.748  43.198  1.00  0.00    -0.294 OA
BRANCH  30  32
HETATM   32  C12 UNL     1     -14.028   7.051  43.680  1.00  0.00     0.024 C 
BRANCH  32  33
HETATM   33  C13 UNL     1     -12.672   7.321  43.253  1.00  0.00     0.035 C 
BRANCH  33  34
HETATM   34  C14 UNL     1     -12.402   8.263  42.144  1.00  0.00    -0.011 C 
HETATM   35  C15 UNL     1     -13.115   7.969  40.888  1.00  0.00     0.005 C 
HETATM   36  C16 UNL     1     -12.885   9.075  39.828  1.00  0.00     0.001 C 
HETATM   37  C17 UNL     1     -13.102  10.442  40.382  1.00  0.00     0.004 C 
HETATM   38  C18 UNL     1     -13.757  10.304  41.749  1.00  0.00    -0.018 C 
HETATM   39  C19 UNL     1     -14.156  11.651  42.314  1.00  0.00     0.010 C 
HETATM   40  C20 UNL     1     -12.731   9.690  42.656  1.00  0.00     0.009 C 
ENDBRANCH  33  34
ENDBRANCH  32  33
ENDBRANCH  30  32
ENDBRANCH  29  30
ENDBRANCH  28  29
ENDBRANCH  27  28
ENDBRANCH  23  27
ENDBRANCH  21  23
ENDBRANCH   1  21
TORSDOF 16
ENDMDL
MODEL 4
REMARK VINA RESULT: -6.637802166      1.890      3.660
REMARK  16 active torsions:
REMARK  status: ('A' for Active; 'I' for Inactive)
REMARK    1  A    between atoms: C2_2  and  O2_4 
REMARK    2  A    between atoms: O2_4  and  C3_5 
REMARK    3  A    between atoms: C3_5  and  C4_6 
REMARK    4  A    between atoms: C3_5  and  C26_34 
REMARK    5  A    between atoms: C4_6  and  C5_7 
REMARK    6  A    between atoms: C5_7  and  N1_8 
REMARK    7  A    between atoms: N1_8  and  C6_10 
REMARK    8  A    between atoms: C6_10  and  O3_12 
REMARK    9  A    between atoms: C6_10  and  C8_14 
REMARK   10  A    between atoms: C8_14  and  C9_15 
REMARK   11  A    between atoms: C9_15  and  C10_16 
REMARK   12  A    between atoms: C10_16  and  C11_17 
REMARK   13  A    between atoms: C11_17  and  C12_19 
REMARK   14  A    between atoms: C12_19  and  C13_20 
REMARK   15  A    between atoms: C13_20  and  C14_21 
REMARK       I    between atoms: C26_34  and  N2_36 
REMARK   16  A    between atoms: N2_36  and  N3_38 
ROOT
HETATM    1  C5  UNL     1     -15.744   8.939  47.835  1.00  0.00     0.061 C 
HETATM    2  C21 UNL     1     -15.788   8.517  49.259  1.00  0.00     0.033 C 
HETATM    3  C22 UNL     1     -16.115   9.509  50.301  1.00  0.00     0.003 C 
HETATM    4  C23 UNL     1     -15.888  10.944  50.005  1.00  0.00     0.003 C 
HETATM    5  C24 UNL     1     -15.457  11.287  48.615  1.00  0.00     0.040 C 
HETATM    6  C25 UNL     1     -16.197  10.402  47.669  1.00  0.00     0.198 C 
HETATM    7  F1  UNL     1     -16.020  10.746  46.345  1.00  0.00    -0.247 F 
ENDROOT
BRANCH   1   8
HETATM    8  C4  UNL     1     -16.618   8.144  46.961  1.00  0.00     0.076 C 
BRANCH   8   9
HETATM    9  C3  UNL     1     -17.008   6.734  47.219  1.00  0.00     0.227 C 
BRANCH   9  10
HETATM   10  O2  UNL     1     -18.454   6.808  46.776  1.00  0.00    -0.306 OA
BRANCH  10  11
HETATM   11  C2  UNL     1     -19.434   6.667  47.723  1.00  0.00     0.255 C 
HETATM   12  C1  UNL     1     -19.136   6.989  49.132  1.00  0.00     0.126 C 
HETATM   13  O1  UNL     1     -20.568   6.272  47.387  1.00  0.00    -0.266 OA
ENDBRANCH  10  11
ENDBRANCH   9  10
BRANCH   9  14
HETATM   14  C26 UNL     1     -16.519   5.673  46.326  1.00  0.00     0.265 C 
HETATM   15  O5  UNL     1     -15.697   4.802  46.811  1.00  0.00    -0.269 OA
HETATM   16  N2  UNL     1     -16.835   5.488  44.968  1.00  0.00    -0.274 N 
ATOM     17  H2  UNL     1     -17.478   6.136  44.514  1.00  0.00     0.189 HD
BRANCH  16  18
HETATM   18  N3  UNL     1     -16.293   4.444  44.235  1.00  0.00    -0.343 N 
ATOM     19  H32 UNL     1     -15.311   4.501  43.968  1.00  0.00     0.176 HD
ATOM     20  H31 UNL     1     -16.854   3.637  43.964  1.00  0.00     0.176 HD
ENDBRANCH  16  18
ENDBRANCH   9  14
ENDBRANCH   8   9
ENDBRANCH   1   8
BRANCH   1  21
HETATM   21  N1  UNL     1     -14.433   8.878  47.281  1.00  0.00    -0.380 N 
ATOM     22  H1  UNL     1     -14.070   9.788  46.995  1.00  0.00     0.157 HD
BRANCH  21  23
HETATM   23  C6  UNL     1     -13.581   7.871  47.059  1.00  0.00     0.124 C 
HETATM   24  C7  UNL     1     -13.384   7.318  45.638  1.00  0.00     0.070 C 
BRANCH  23  25
HETATM   25  O3  UNL     1     -13.534   6.770  47.914  1.00  0.00    -0.372 OA
ATOM     26  H3  UNL     1     -12.884   6.715  48.604  1.00  0.00     0.212 HD
ENDBRANCH  23  25
BRANCH  23  27
HETATM   27  C8  UNL     1     -12.156   8.490  47.300  1.00  0.00     0.060 C 
BRANCH  27  28
HETATM   28  C9  UNL     1     -12.180   9.820  47.943  1.00  0.00     0.012 C 
BRANCH  28  29
HETATM   29  C10 UNL     1     -11.409  10.782  47.025  1.00  0.00     0.083 C 
BRANCH  29  30
HETATM   30  C11 UNL     1     -12.364  11.835  46.514  1.00  0.00     0.145 C 
HETATM   31  O4  UNL     1     -12.418  12.832  47.219  1.00  0.00    -0.294 OA
BRANCH  30  32
HETATM   32  C12 UNL     1     -13.132  11.654  45.307  1.00  0.00     0.024 C 
BRANCH  32  33
HETATM   33  C13 UNL     1     -12.970  10.566  44.365  1.00  0.00     0.035 C 
BRANCH  33  34
HETATM   34  C14 UNL     1     -13.792  10.500  43.137  1.00  0.00    -0.011 C 
HETATM   35  C15 UNL     1     -13.664  11.661  42.238  1.00  0.00     0.005 C 
HETATM   36  C16 UNL     1     -14.446  11.450  40.918  1.00  0.00     0.001 C 
HETATM   37  C17 UNL     1     -14.160  10.126  40.297  1.00  0.00     0.004 C 
HETATM   38  C18 UNL     1     -12.969   9.509  41.016  1.00  0.00    -0.018 C 
HETATM   39  C19 UNL     1     -12.513   8.231  40.344  1.00  0.00     0.010 C 
HETATM   40  C20 UNL     1     -13.430   9.180  42.406  1.00  0.00     0.009 C 
ENDBRANCH  33  34
ENDBRANCH  32  33
ENDBRANCH  30  32
ENDBRANCH  29  30
ENDBRANCH  28  29
ENDBRANCH  27  28
ENDBRANCH  23  27
ENDBRANCH  21  23
ENDBRANCH   1  21
TORSDOF 16
ENDMDL
MODEL 5
REMARK VINA RESULT: -6.634040778      1.835      3.320
REMARK  16 active torsions:
REMARK  status: ('A' for Active; 'I' for Inactive)
REMARK    1  A    between atoms: C2_2  and  O2_4 
REMARK    2  A    between atoms: O2_4  and  C3_5 
REMARK    3  A    between atoms: C3_5  and  C4_6 
REMARK    4  A    between atoms: C3_5  and  C26_34 
REMARK    5  A    between atoms: C4_6  and  C5_7 
REMARK    6  A    between atoms: C5_7  and  N1_8 
REMARK    7  A    between atoms: N1_8  and  C6_10 
REMARK    8  A    between atoms: C6_10  and  O3_12 
REMARK    9  A    between atoms: C6_10  and  C8_14 
REMARK   10  A    between atoms: C8_14  and  C9_15 
REMARK   11  A    between atoms: C9_15  and  C10_16 
REMARK   12  A    between atoms: C10_16  and  C11_17 
REMARK   13  A    between atoms: C11_17  and  C12_19 
REMARK   14  A    between atoms: C12_19  and  C13_20 
REMARK   15  A    between atoms: C13_20  and  C14_21 
REMARK       I    between atoms: C26_34  and  N2_36 
REMARK   16  A    between atoms: N2_36  and  N3_38 
ROOT
HETATM    1  C5  UNL     1     -15.114   9.398  47.793  1.00  0.00     0.061 C 
HETATM    2  C21 UNL     1     -15.784   9.696  49.085  1.00  0.00     0.033 C 
HETATM    3  C22 UNL     1     -16.712  10.839  49.174  1.00  0.00     0.003 C 
HETATM    4  C23 UNL     1     -16.573  11.939  48.191  1.00  0.00     0.003 C 
HETATM    5  C24 UNL     1     -15.574  11.743  47.096  1.00  0.00     0.040 C 
HETATM    6  C25 UNL     1     -15.629  10.315  46.668  1.00  0.00     0.198 C 
HETATM    7  F1  UNL     1     -14.881  10.052  45.539  1.00  0.00    -0.247 F 
ENDROOT
BRANCH   1   8
HETATM    8  C4  UNL     1     -15.331   8.022  47.323  1.00  0.00     0.076 C 
BRANCH   8   9
HETATM    9  C3  UNL     1     -16.492   7.586  46.505  1.00  0.00     0.227 C 
BRANCH   9  10
HETATM   10  O2  UNL     1     -15.942   6.267  46.004  1.00  0.00    -0.306 OA
BRANCH  10  11
HETATM   11  C2  UNL     1     -16.171   5.919  44.699  1.00  0.00     0.255 C 
HETATM   12  C1  UNL     1     -15.063   5.970  43.726  1.00  0.00     0.126 C 
HETATM   13  O1  UNL     1     -17.311   5.560  44.345  1.00  0.00    -0.266 OA
ENDBRANCH  10  11
ENDBRANCH   9  10
BRANCH   9  14
HETATM   14  C26 UNL     1     -17.714   7.117  47.175  1.00  0.00     0.265 C 
HETATM   15  O5  UNL     1     -17.647   6.833  48.433  1.00  0.00    -0.269 OA
HETATM   16  N2  UNL     1     -18.983   6.926  46.598  1.00  0.00    -0.274 N 
ATOM     17  H2  UNL     1     -19.115   7.129  45.608  1.00  0.00     0.189 HD
BRANCH  16  18
HETATM   18  N3  UNL     1     -20.056   6.468  47.346  1.00  0.00    -0.343 N 
ATOM     19  H32 UNL     1     -19.910   6.286  48.338  1.00  0.00     0.176 HD
ATOM     20  H31 UNL     1     -20.972   6.314  46.924  1.00  0.00     0.176 HD
ENDBRANCH  16  18
ENDBRANCH   9  14
ENDBRANCH   8   9
ENDBRANCH   1   8
BRANCH   1  21
HETATM   21  N1  UNL     1     -13.705   9.604  47.841  1.00  0.00    -0.380 N 
ATOM     22  H1  UNL     1     -13.236   9.418  46.954  1.00  0.00     0.157 HD
BRANCH  21  23
HETATM   23  C6  UNL     1     -12.871   9.992  48.813  1.00  0.00     0.124 C 
HETATM   24  C7  UNL     1     -12.251   8.957  49.766  1.00  0.00     0.070 C 
BRANCH  23  25
HETATM   25  O3  UNL     1     -13.149  11.117  49.589  1.00  0.00    -0.372 OA
ATOM     26  H3  UNL     1     -13.171  11.984  49.202  1.00  0.00     0.212 HD
ENDBRANCH  23  25
BRANCH  23  27
HETATM   27  C8  UNL     1     -11.573  10.468  48.062  1.00  0.00     0.060 C 
BRANCH  27  28
HETATM   28  C9  UNL     1     -11.755  10.654  46.608  1.00  0.00     0.012 C 
BRANCH  28  29
HETATM   29  C10 UNL     1     -10.611   9.903  45.908  1.00  0.00     0.083 C 
BRANCH  29  30
HETATM   30  C11 UNL     1     -11.045   8.476  45.665  1.00  0.00     0.145 C 
HETATM   31  O4  UNL     1     -10.352   7.649  46.239  1.00  0.00    -0.294 OA
BRANCH  30  32
HETATM   32  C12 UNL     1     -12.171   8.147  44.826  1.00  0.00     0.024 C 
BRANCH  32  33
HETATM   33  C13 UNL     1     -12.217   8.300  43.388  1.00  0.00     0.035 C 
BRANCH  33  34
HETATM   34  C14 UNL     1     -13.211   9.193  42.753  1.00  0.00    -0.011 C 
HETATM   35  C15 UNL     1     -13.068  10.622  43.086  1.00  0.00     0.005 C 
HETATM   36  C16 UNL     1     -14.056  11.498  42.276  1.00  0.00     0.001 C 
HETATM   37  C17 UNL     1     -14.036  11.175  40.821  1.00  0.00     0.004 C 
HETATM   38  C18 UNL     1     -12.842  10.272  40.550  1.00  0.00    -0.018 C 
HETATM   39  C19 UNL     1     -12.658  10.023  39.067  1.00  0.00     0.010 C 
HETATM   40  C20 UNL     1     -13.133   8.961  41.221  1.00  0.00     0.009 C 
ENDBRANCH  33  34
ENDBRANCH  32  33
ENDBRANCH  30  32
ENDBRANCH  29  30
ENDBRANCH  28  29
ENDBRANCH  27  28
ENDBRANCH  23  27
ENDBRANCH  21  23
ENDBRANCH   1  21
TORSDOF 16
ENDMDL
