MODEL 1
REMARK VINA RESULT: -7.770908868      0.000      0.000
REMARK  13 active torsions:
REMARK  status: ('A' for Active; 'I' for Inactive)
REMARK    1  A    between atoms: C1_4  and  N2_5 
REMARK    2  A    between atoms: C1_4  and  C13_25 
REMARK    3  A    between atoms: N2_5  and  C2_7 
REMARK    4  A    between atoms: C2_7  and  C3_8 
REMARK    5  A    between atoms: C3_8  and  C4_9 
REMARK    6  A    between atoms: C4_9  and  C5_10 
REMARK    7  A    between atoms: C5_10  and  C6_11 
REMARK    8  A    between atoms: C6_11  and  C7_12 
REMARK    9  A    between atoms: C7_12  and  C8_13 
REMARK   10  A    between atoms: C8_13  and  N3_14 
REMARK   11  A    between atoms: N3_14  and  S1_16 
REMARK   12  A    between atoms: S1_16  and  C9_19 
REMARK   13  A    between atoms: C15_31  and  C16_32 
ROOT
HETATM    1  N2  UNL     1     -12.819   6.960  42.594  1.00  0.00    -0.378 N 
ATOM      2  H2  UNL     1     -12.007   6.411  42.877  1.00  0.00     0.160 HD
ENDROOT
BRANCH   1   3
HETATM    3  C1  UNL     1     -12.685   7.863  41.511  1.00  0.00     0.103 C 
HETATM    4  N1  UNL     1     -11.818   7.571  40.595  1.00  0.00    -0.387 N 
ATOM      5  H12 UNL     1     -11.250   6.725  40.645  1.00  0.00     0.157 HD
ATOM      6  H11 UNL     1     -11.722   8.221  39.816  1.00  0.00     0.157 HD
BRANCH   3   7
HETATM    7  C13 UNL     1     -13.511   9.093  41.439  1.00  0.00     0.223 C 
HETATM    8  O3  UNL     1     -13.437   9.556  40.079  1.00  0.00    -0.289 OA
HETATM    9  C14 UNL     1     -13.586  10.945  40.111  1.00  0.00     0.361 C 
HETATM   10  O4  UNL     1     -13.746  11.724  39.112  1.00  0.00    -0.238 OA
HETATM   11  N4  UNL     1     -13.531  11.379  41.465  1.00  0.00    -0.329 N 
HETATM   12  C15 UNL     1     -12.953  10.256  42.192  1.00  0.00     0.128 C 
ATOM     13  H4  UNL     1     -13.830  12.278  41.843  1.00  0.00     0.165 HD
BRANCH  12  14
HETATM   14  C16 UNL     1     -13.315  10.299  43.654  1.00  0.00     0.011 C 
HETATM   15  C17 UNL     1     -12.023   9.947  44.410  1.00  0.00     0.007 C 
HETATM   16  C18 UNL     1     -12.426   9.796  45.877  1.00  0.00     0.000 C 
HETATM   17  C19 UNL     1     -12.960  11.121  46.408  1.00  0.00     0.000 C 
HETATM   18  C20 UNL     1     -14.191  11.468  45.595  1.00  0.00     0.000 C 
HETATM   19  C21 UNL     1     -13.705  11.661  44.152  1.00  0.00     0.007 C 
ENDBRANCH  12  14
ENDBRANCH   3   7
ENDBRANCH   1   3
BRANCH   1  20
HETATM   20  C2  UNL     1     -14.066   6.784  43.318  1.00  0.00     0.121 C 
BRANCH  20  21
HETATM   21  C3  UNL     1     -14.104   5.485  44.065  1.00  0.00     0.020 C 
BRANCH  21  22
HETATM   22  C4  UNL     1     -15.464   4.826  43.899  1.00  0.00     0.002 C 
BRANCH  22  23
HETATM   23  C5  UNL     1     -16.519   5.580  44.620  1.00  0.00     0.000 C 
BRANCH  23  24
HETATM   24  C6  UNL     1     -16.315   5.587  46.109  1.00  0.00     0.002 C 
BRANCH  24  25
HETATM   25  C7  UNL     1     -16.381   6.990  46.646  1.00  0.00     0.020 C 
BRANCH  25  26
HETATM   26  C8  UNL     1     -17.847   7.366  46.893  1.00  0.00     0.132 C 
BRANCH  26  27
HETATM   27  N3  UNL     1     -18.139   7.015  48.248  1.00  0.00    -0.315 N 
ATOM     28  H3  UNL     1     -17.444   7.046  48.995  1.00  0.00     0.172 HD
BRANCH  27  29
HETATM   29  S1  UNL     1     -19.764   6.535  48.501  1.00  0.00     0.265 S 
HETATM   30  O1  UNL     1     -20.451   6.376  47.187  1.00  0.00    -0.200 OA
HETATM   31  O2  UNL     1     -20.454   7.578  49.287  1.00  0.00    -0.200 OA
BRANCH  29  32
HETATM   32  C9  UNL     1     -19.847   5.018  49.399  1.00  0.00     0.121 A 
HETATM   33  C10 UNL     1     -18.831   4.142  49.660  1.00  0.00     0.035 A 
HETATM   34  C11 UNL     1     -19.124   3.046  50.364  1.00  0.00     0.033 A 
HETATM   35  C12 UNL     1     -20.423   2.884  50.770  1.00  0.00     0.075 A 
HETATM   36 CL1  UNL     1     -21.101   1.542  51.709  1.00  0.00    -0.076 Cl
HETATM   37  S2  UNL     1     -21.189   4.277  50.150  1.00  0.00    -0.064 SA
ENDBRANCH  29  32
ENDBRANCH  27  29
ENDBRANCH  26  27
ENDBRANCH  25  26
ENDBRANCH  24  25
ENDBRANCH  23  24
ENDBRANCH  22  23
ENDBRANCH  21  22
ENDBRANCH  20  21
ENDBRANCH   1  20
TORSDOF 13
ENDMDL
MODEL 2
REMARK VINA RESULT: -7.580562445      1.877      3.152
REMARK  13 active torsions:
REMARK  status: ('A' for Active; 'I' for Inactive)
REMARK    1  A    between atoms: C1_4  and  N2_5 
REMARK    2  A    between atoms: C1_4  and  C13_25 
REMARK    3  A    between atoms: N2_5  and  C2_7 
REMARK    4  A    between atoms: C2_7  and  C3_8 
REMARK    5  A    between atoms: C3_8  and  C4_9 
REMARK    6  A    between atoms: C4_9  and  C5_10 
REMARK    7  A    between atoms: C5_10  and  C6_11 
REMARK    8  A    between atoms: C6_11  and  C7_12 
REMARK    9  A    between atoms: C7_12  and  C8_13 
REMARK   10  A    between atoms: C8_13  and  N3_14 
REMARK   11  A    between atoms: N3_14  and  S1_16 
REMARK   12  A    between atoms: S1_16  and  C9_19 
REMARK   13  A    between atoms: C15_31  and  C16_32 
ROOT
HETATM    1  N2  UNL     1     -12.699   7.130  43.453  1.00  0.00    -0.378 N 
ATOM      2  H2  UNL     1     -12.618   7.058  42.439  1.00  0.00     0.160 HD
ENDROOT
BRANCH   1   3
HETATM    3  C1  UNL     1     -11.834   8.016  44.142  1.00  0.00     0.103 C 
HETATM    4  N1  UNL     1     -10.894   7.491  44.861  1.00  0.00    -0.387 N 
ATOM      5  H12 UNL     1     -10.775   6.480  44.933  1.00  0.00     0.157 HD
ATOM      6  H11 UNL     1     -10.271   8.128  45.357  1.00  0.00     0.157 HD
BRANCH   3   7
HETATM    7  C13 UNL     1     -12.008   9.485  44.038  1.00  0.00     0.223 C 
HETATM    8  O3  UNL     1     -11.962   9.999  45.380  1.00  0.00    -0.289 OA
HETATM    9  C14 UNL     1     -12.750  11.152  45.405  1.00  0.00     0.361 C 
HETATM   10  O4  UNL     1     -12.842  11.999  46.356  1.00  0.00    -0.238 OA
HETATM   11  N4  UNL     1     -13.459  11.246  44.176  1.00  0.00    -0.329 N 
HETATM   12  C15 UNL     1     -13.366   9.915  43.589  1.00  0.00     0.128 C 
ATOM     13  H4  UNL     1     -13.928  12.065  43.789  1.00  0.00     0.165 HD
BRANCH  12  14
HETATM   14  C16 UNL     1     -13.559   9.954  42.096  1.00  0.00     0.011 C 
HETATM   15  C17 UNL     1     -14.285  11.278  41.807  1.00  0.00     0.007 C 
HETATM   16  C18 UNL     1     -14.658  11.236  40.325  1.00  0.00     0.000 C 
HETATM   17  C19 UNL     1     -13.395  11.173  39.474  1.00  0.00     0.000 C 
HETATM   18  C20 UNL     1     -12.673   9.891  39.834  1.00  0.00     0.000 C 
HETATM   19  C21 UNL     1     -12.280  10.027  41.312  1.00  0.00     0.007 C 
ENDBRANCH  12  14
ENDBRANCH   3   7
ENDBRANCH   1   3
BRANCH   1  20
HETATM   20  C2  UNL     1     -13.695   6.322  44.133  1.00  0.00     0.121 C 
BRANCH  20  21
HETATM   21  C3  UNL     1     -14.888   6.051  43.265  1.00  0.00     0.020 C 
BRANCH  21  22
HETATM   22  C4  UNL     1     -16.072   5.630  44.120  1.00  0.00     0.002 C 
BRANCH  22  23
HETATM   23  C5  UNL     1     -15.631   4.850  45.303  1.00  0.00     0.000 C 
BRANCH  23  24
HETATM   24  C6  UNL     1     -16.334   5.260  46.566  1.00  0.00     0.002 C 
BRANCH  24  25
HETATM   25  C7  UNL     1     -16.377   6.758  46.686  1.00  0.00     0.020 C 
BRANCH  25  26
HETATM   26  C8  UNL     1     -17.830   7.207  46.886  1.00  0.00     0.132 C 
BRANCH  26  27
HETATM   27  N3  UNL     1     -18.144   6.977  48.263  1.00  0.00    -0.315 N 
ATOM     28  H3  UNL     1     -17.462   7.075  49.015  1.00  0.00     0.172 HD
BRANCH  27  29
HETATM   29  S1  UNL     1     -19.773   6.520  48.530  1.00  0.00     0.265 S 
HETATM   30  O1  UNL     1     -20.477   6.381  47.222  1.00  0.00    -0.200 OA
HETATM   31  O2  UNL     1     -20.440   7.569  49.330  1.00  0.00    -0.200 OA
BRANCH  29  32
HETATM   32  C9  UNL     1     -19.871   5.000  49.420  1.00  0.00     0.121 A 
HETATM   33  C10 UNL     1     -18.859   4.123  49.693  1.00  0.00     0.035 A 
HETATM   34  C11 UNL     1     -19.162   3.023  50.388  1.00  0.00     0.033 A 
HETATM   35  C12 UNL     1     -20.468   2.860  50.772  1.00  0.00     0.075 A 
HETATM   36 CL1  UNL     1     -21.161   1.514  51.694  1.00  0.00    -0.076 Cl
HETATM   37  S2  UNL     1     -21.224   4.256  50.146  1.00  0.00    -0.064 SA
ENDBRANCH  29  32
ENDBRANCH  27  29
ENDBRANCH  26  27
ENDBRANCH  25  26
ENDBRANCH  24  25
ENDBRANCH  23  24
ENDBRANCH  22  23
ENDBRANCH  21  22
ENDBRANCH  20  21
ENDBRANCH   1  20
TORSDOF 13
ENDMDL
MODEL 3
REMARK VINA RESULT: -7.507916316      0.962      1.146
REMARK  13 active torsions:
REMARK  status: ('A' for Active; 'I' for Inactive)
REMARK    1  A    between atoms: C1_4  and  N2_5 
REMARK    2  A    between atoms: C1_4  and  C13_25 
REMARK    3  A    between atoms: N2_5  and  C2_7 
REMARK    4  A    between atoms: C2_7  and  C3_8 
REMARK    5  A    between atoms: C3_8  and  C4_9 
REMARK    6  A    between atoms: C4_9  and  C5_10 
REMARK    7  A    between atoms: C5_10  and  C6_11 
REMARK    8  A    between atoms: C6_11  and  C7_12 
REMARK    9  A    between atoms: C7_12  and  C8_13 
REMARK   10  A    between atoms: C8_13  and  N3_14 
REMARK   11  A    between atoms: N3_14  and  S1_16 
REMARK   12  A    between atoms: S1_16  and  C9_19 
REMARK   13  A    between atoms: C15_31  and  C16_32 
ROOT
HETATM    1  N2  UNL     1     -12.704   6.755  43.115  1.00  0.00    -0.378 N 
ATOM      2  H2  UNL     1     -12.006   6.261  43.670  1.00  0.00     0.160 HD
ENDROOT
BRANCH   1   3
HETATM    3  C1  UNL     1     -12.281   7.818  42.280  1.00  0.00     0.103 C 
HETATM    4  N1  UNL     1     -11.115   7.714  41.727  1.00  0.00    -0.387 N 
ATOM      5  H12 UNL     1     -10.519   6.901  41.882  1.00  0.00     0.157 HD
ATOM      6  H11 UNL     1     -10.810   8.480  41.126  1.00  0.00     0.157 HD
BRANCH   3   7
HETATM    7  C13 UNL     1     -13.148   9.000  42.055  1.00  0.00     0.223 C 
HETATM    8  O3  UNL     1     -12.823   9.502  40.746  1.00  0.00    -0.289 OA
HETATM    9  C14 UNL     1     -13.060  10.879  40.765  1.00  0.00     0.361 C 
HETATM   10  O4  UNL     1     -13.058  11.673  39.765  1.00  0.00    -0.238 OA
HETATM   11  N4  UNL     1     -13.313  11.280  42.106  1.00  0.00    -0.329 N 
HETATM   12  C15 UNL     1     -12.830  10.174  42.923  1.00  0.00     0.128 C 
ATOM     13  H4  UNL     1     -13.738  12.150  42.426  1.00  0.00     0.165 HD
BRANCH  12  14
HETATM   14  C16 UNL     1     -13.489  10.157  44.278  1.00  0.00     0.011 C 
HETATM   15  C17 UNL     1     -12.343  10.001  45.292  1.00  0.00     0.007 C 
HETATM   16  C18 UNL     1     -13.013   9.787  46.649  1.00  0.00     0.000 C 
HETATM   17  C19 UNL     1     -13.835  11.016  47.022  1.00  0.00     0.000 C 
HETATM   18  C20 UNL     1     -14.908  11.176  45.965  1.00  0.00     0.000 C 
HETATM   19  C21 UNL     1     -14.169  11.444  44.647  1.00  0.00     0.007 C 
ENDBRANCH  12  14
ENDBRANCH   3   7
ENDBRANCH   1   3
BRANCH   1  20
HETATM   20  C2  UNL     1     -14.093   6.340  43.210  1.00  0.00     0.121 C 
BRANCH  20  21
HETATM   21  C3  UNL     1     -14.724   6.781  44.497  1.00  0.00     0.020 C 
BRANCH  21  22
HETATM   22  C4  UNL     1     -13.963   6.201  45.678  1.00  0.00     0.002 C 
BRANCH  22  23
HETATM   23  C5  UNL     1     -14.586   6.595  46.966  1.00  0.00     0.000 C 
BRANCH  23  24
HETATM   24  C6  UNL     1     -15.939   7.224  46.790  1.00  0.00     0.002 C 
BRANCH  24  25
HETATM   25  C7  UNL     1     -16.199   8.235  47.872  1.00  0.00     0.020 C 
BRANCH  25  26
HETATM   26  C8  UNL     1     -17.425   7.800  48.685  1.00  0.00     0.132 C 
BRANCH  26  27
HETATM   27  N3  UNL     1     -18.019   6.708  47.979  1.00  0.00    -0.315 N 
ATOM     28  H3  UNL     1     -17.516   6.150  47.288  1.00  0.00     0.172 HD
BRANCH  27  29
HETATM   29  S1  UNL     1     -19.654   6.423  48.401  1.00  0.00     0.265 S 
HETATM   30  O1  UNL     1     -20.483   6.326  47.165  1.00  0.00    -0.200 OA
HETATM   31  O2  UNL     1     -20.140   7.550  49.223  1.00  0.00    -0.200 OA
BRANCH  29  32
HETATM   32  C9  UNL     1     -19.820   4.939  49.342  1.00  0.00     0.121 A 
HETATM   33  C10 UNL     1     -18.825   4.118  49.792  1.00  0.00     0.035 A 
HETATM   34  C11 UNL     1     -19.182   3.037  50.492  1.00  0.00     0.033 A 
HETATM   35  C12 UNL     1     -20.522   2.837  50.702  1.00  0.00     0.075 A 
HETATM   36 CL1  UNL     1     -21.287   1.504  51.585  1.00  0.00    -0.076 Cl
HETATM   37  S2  UNL     1     -21.233   4.171  49.912  1.00  0.00    -0.064 SA
ENDBRANCH  29  32
ENDBRANCH  27  29
ENDBRANCH  26  27
ENDBRANCH  25  26
ENDBRANCH  24  25
ENDBRANCH  23  24
ENDBRANCH  22  23
ENDBRANCH  21  22
ENDBRANCH  20  21
ENDBRANCH   1  20
TORSDOF 13
ENDMDL
MODEL 4
REMARK VINA RESULT: -7.462390187      2.257      2.603
REMARK  13 active torsions:
REMARK  status: ('A' for Active; 'I' for Inactive)
REMARK    1  A    between atoms: C1_4  and  N2_5 
REMARK    2  A    between atoms: C1_4  and  C13_25 
REMARK    3  A    between atoms: N2_5  and  C2_7 
REMARK    4  A    between atoms: C2_7  and  C3_8 
REMARK    5  A    between atoms: C3_8  and  C4_9 
REMARK    6  A    between atoms: C4_9  and  C5_10 
REMARK    7  A    between atoms: C5_10  and  C6_11 
REMARK    8  A    between atoms: C6_11  and  C7_12 
REMARK    9  A    between atoms: C7_12  and  C8_13 
REMARK   10  A    between atoms: C8_13  and  N3_14 
REMARK   11  A    between atoms: N3_14  and  S1_16 
REMARK   12  A    between atoms: S1_16  and  C9_19 
REMARK   13  A    between atoms: C15_31  and  C16_32 
ROOT
HETATM    1  N2  UNL     1     -12.813   7.006  42.690  1.00  0.00    -0.378 N 
ATOM      2  H2  UNL     1     -11.970   6.628  43.123  1.00  0.00     0.160 HD
ENDROOT
BRANCH   1   3
HETATM    3  C1  UNL     1     -12.675   7.885  41.588  1.00  0.00     0.103 C 
HETATM    4  N1  UNL     1     -11.815   7.564  40.674  1.00  0.00    -0.387 N 
ATOM      5  H12 UNL     1     -11.256   6.713  40.738  1.00  0.00     0.157 HD
ATOM      6  H11 UNL     1     -11.716   8.197  39.880  1.00  0.00     0.157 HD
BRANCH   3   7
HETATM    7  C13 UNL     1     -13.488   9.122  41.494  1.00  0.00     0.223 C 
HETATM    8  O3  UNL     1     -13.405   9.563  40.127  1.00  0.00    -0.289 OA
HETATM    9  C14 UNL     1     -13.540  10.953  40.137  1.00  0.00     0.361 C 
HETATM   10  O4  UNL     1     -13.689  11.718  39.126  1.00  0.00    -0.238 OA
HETATM   11  N4  UNL     1     -13.485  11.408  41.484  1.00  0.00    -0.329 N 
HETATM   12  C15 UNL     1     -12.921  10.291  42.231  1.00  0.00     0.128 C 
ATOM     13  H4  UNL     1     -13.776  12.316  41.847  1.00  0.00     0.165 HD
BRANCH  12  14
HETATM   14  C16 UNL     1     -13.287  10.359  43.690  1.00  0.00     0.011 C 
HETATM   15  C17 UNL     1     -11.998  10.017  44.457  1.00  0.00     0.007 C 
HETATM   16  C18 UNL     1     -12.406   9.892  45.924  1.00  0.00     0.000 C 
HETATM   17  C19 UNL     1     -12.937  11.228  46.431  1.00  0.00     0.000 C 
HETATM   18  C20 UNL     1     -14.164  11.564  45.609  1.00  0.00     0.000 C 
HETATM   19  C21 UNL     1     -13.673  11.731  44.164  1.00  0.00     0.007 C 
ENDBRANCH  12  14
ENDBRANCH   3   7
ENDBRANCH   1   3
BRANCH   1  20
HETATM   20  C2  UNL     1     -14.106   6.622  43.228  1.00  0.00     0.121 C 
BRANCH  20  21
HETATM   21  C3  UNL     1     -14.116   5.200  43.705  1.00  0.00     0.020 C 
BRANCH  21  22
HETATM   22  C4  UNL     1     -15.535   4.774  44.046  1.00  0.00     0.002 C 
BRANCH  22  23
HETATM   23  C5  UNL     1     -15.620   4.245  45.430  1.00  0.00     0.000 C 
BRANCH  23  24
HETATM   24  C6  UNL     1     -16.066   5.280  46.423  1.00  0.00     0.002 C 
BRANCH  24  25
HETATM   25  C7  UNL     1     -16.988   6.275  45.774  1.00  0.00     0.020 C 
BRANCH  25  26
HETATM   26  C8  UNL     1     -17.602   7.173  46.854  1.00  0.00     0.132 C 
BRANCH  26  27
HETATM   27  N3  UNL     1     -18.993   6.849  46.916  1.00  0.00    -0.315 N 
ATOM     28  H3  UNL     1     -19.632   6.976  46.131  1.00  0.00     0.172 HD
BRANCH  27  29
HETATM   29  S1  UNL     1     -19.488   6.225  48.433  1.00  0.00     0.265 S 
HETATM   30  O1  UNL     1     -18.537   5.165  48.875  1.00  0.00    -0.200 OA
HETATM   31  O2  UNL     1     -20.837   5.639  48.293  1.00  0.00    -0.200 OA
BRANCH  29  32
HETATM   32  C9  UNL     1     -19.560   7.499  49.652  1.00  0.00     0.121 A 
HETATM   33  C10 UNL     1     -18.585   8.396  49.985  1.00  0.00     0.035 A 
HETATM   34  C11 UNL     1     -18.859   9.281  50.947  1.00  0.00     0.033 A 
HETATM   35  C12 UNL     1     -20.099   9.219  51.527  1.00  0.00     0.075 A 
HETATM   36 CL1  UNL     1     -20.741  10.253  52.816  1.00  0.00    -0.076 Cl
HETATM   37  S2  UNL     1     -20.838   7.921  50.701  1.00  0.00    -0.064 SA
ENDBRANCH  29  32
ENDBRANCH  27  29
ENDBRANCH  26  27
ENDBRANCH  25  26
ENDBRANCH  24  25
ENDBRANCH  23  24
ENDBRANCH  22  23
ENDBRANCH  21  22
ENDBRANCH  20  21
ENDBRANCH   1  20
TORSDOF 13
ENDMDL
MODEL 5
REMARK VINA RESULT: -7.407179871      1.285      1.493
REMARK  13 active torsions:
REMARK  status: ('A' for Active; 'I' for Inactive)
REMARK    1  A    between atoms: C1_4  and  N2_5 
REMARK    2  A    between atoms: C1_4  and  C13_25 
REMARK    3  A    between atoms: N2_5  and  C2_7 
REMARK    4  A    between atoms: C2_7  and  C3_8 
REMARK    5  A    between atoms: C3_8  and  C4_9 
REMARK    6  A    between atoms: C4_9  and  C5_10 
REMARK    7  A    between atoms: C5_10  and  C6_11 
REMARK    8  A    between atoms: C6_11  and  C7_12 
REMARK    9  A    between atoms: C7_12  and  C8_13 
REMARK   10  A    between atoms: C8_13  and  N3_14 
REMARK   11  A    between atoms: N3_14  and  S1_16 
REMARK   12  A    between atoms: S1_16  and  C9_19 
REMARK   13  A    between atoms: C15_31  and  C16_32 
ROOT
HETATM    1  N2  UNL     1     -12.825   6.801  43.053  1.00  0.00    -0.378 N 
ATOM      2  H2  UNL     1     -12.084   6.229  43.458  1.00  0.00     0.160 HD
ENDROOT
BRANCH   1   3
HETATM    3  C1  UNL     1     -12.466   7.969  42.335  1.00  0.00     0.103 C 
HETATM    4  N1  UNL     1     -11.339   7.954  41.699  1.00  0.00    -0.387 N 
ATOM      5  H12 UNL     1     -10.728   7.136  41.709  1.00  0.00     0.157 HD
ATOM      6  H11 UNL     1     -11.081   8.794  41.182  1.00  0.00     0.157 HD
BRANCH   3   7
HETATM    7  C13 UNL     1     -13.354   9.156  42.321  1.00  0.00     0.223 C 
HETATM    8  O3  UNL     1     -13.463   9.569  40.947  1.00  0.00    -0.289 OA
HETATM    9  C14 UNL     1     -13.676  10.949  40.949  1.00  0.00     0.361 C 
HETATM   10  O4  UNL     1     -13.990  11.680  39.951  1.00  0.00    -0.238 OA
HETATM   11  N4  UNL     1     -13.484  11.439  42.271  1.00  0.00    -0.329 N 
HETATM   12  C15 UNL     1     -12.770  10.372  42.963  1.00  0.00     0.128 C 
ATOM     13  H4  UNL     1     -13.780  12.337  42.652  1.00  0.00     0.165 HD
BRANCH  12  14
HETATM   14  C16 UNL     1     -12.959  10.456  44.454  1.00  0.00     0.011 C 
HETATM   15  C17 UNL     1     -13.381  11.908  44.737  1.00  0.00     0.007 C 
HETATM   16  C18 UNL     1     -13.385  12.053  46.258  1.00  0.00     0.000 C 
HETATM   17  C19 UNL     1     -14.421  11.114  46.867  1.00  0.00     0.000 C 
HETATM   18  C20 UNL     1     -14.010   9.701  46.511  1.00  0.00     0.000 C 
HETATM   19  C21 UNL     1     -14.084   9.610  44.980  1.00  0.00     0.007 C 
ENDBRANCH  12  14
ENDBRANCH   3   7
ENDBRANCH   1   3
BRANCH   1  20
HETATM   20  C2  UNL     1     -14.205   6.388  43.235  1.00  0.00     0.121 C 
BRANCH  20  21
HETATM   21  C3  UNL     1     -14.307   5.031  43.865  1.00  0.00     0.020 C 
BRANCH  21  22
HETATM   22  C4  UNL     1     -15.740   4.759  44.292  1.00  0.00     0.002 C 
BRANCH  22  23
HETATM   23  C5  UNL     1     -15.947   5.092  45.724  1.00  0.00     0.000 C 
BRANCH  23  24
HETATM   24  C6  UNL     1     -16.790   6.321  45.920  1.00  0.00     0.002 C 
BRANCH  24  25
HETATM   25  C7  UNL     1     -16.459   6.988  47.226  1.00  0.00     0.020 C 
BRANCH  25  26
HETATM   26  C8  UNL     1     -17.760   7.371  47.941  1.00  0.00     0.132 C 
BRANCH  26  27
HETATM   27  N3  UNL     1     -18.753   6.433  47.516  1.00  0.00    -0.315 N 
ATOM     28  H3  UNL     1     -18.777   6.032  46.578  1.00  0.00     0.172 HD
BRANCH  27  29
HETATM   29  S1  UNL     1     -19.899   6.047  48.729  1.00  0.00     0.265 S 
HETATM   30  O1  UNL     1     -21.049   5.319  48.120  1.00  0.00    -0.200 OA
HETATM   31  O2  UNL     1     -20.388   7.299  49.343  1.00  0.00    -0.200 OA
BRANCH  29  32
HETATM   32  C9  UNL     1     -19.175   5.055  49.996  1.00  0.00     0.121 A 
HETATM   33  C10 UNL     1     -18.390   5.466  51.036  1.00  0.00     0.035 A 
HETATM   34  C11 UNL     1     -17.946   4.534  51.883  1.00  0.00     0.033 A 
HETATM   35  C12 UNL     1     -18.313   3.236  51.643  1.00  0.00     0.075 A 
HETATM   36 CL1  UNL     1     -17.881   1.799  52.587  1.00  0.00    -0.076 Cl
HETATM   37  S2  UNL     1     -19.270   3.368  50.235  1.00  0.00    -0.064 SA
ENDBRANCH  29  32
ENDBRANCH  27  29
ENDBRANCH  26  27
ENDBRANCH  25  26
ENDBRANCH  24  25
ENDBRANCH  23  24
ENDBRANCH  22  23
ENDBRANCH  21  22
ENDBRANCH  20  21
ENDBRANCH   1  20
TORSDOF 13
ENDMDL
