MODEL 1
REMARK VINA RESULT: -6.903674878      0.000      0.000
REMARK  14 active torsions:
REMARK  status: ('A' for Active; 'I' for Inactive)
REMARK    1  A    between atoms: C1_4  and  C2_6 
REMARK    2  A    between atoms: C3_8  and  C4_9 
REMARK    3  A    between atoms: C5_10  and  C6_11 
REMARK    4  A    between atoms: C6_11  and  O2_13 
REMARK    5  A    between atoms: O2_13  and  C7_14 
REMARK    6  A    between atoms: C7_14  and  C8_15 
REMARK    7  A    between atoms: C8_15  and  C9_16 
REMARK    8  A    between atoms: C9_16  and  C10_17 
REMARK    9  A    between atoms: C10_17  and  C11_18 
REMARK   10  A    between atoms: C11_18  and  C12_19 
REMARK   11  A    between atoms: C12_19  and  N3_20 
REMARK       I    between atoms: N3_20  and  C13_22 
REMARK       I    between atoms: C13_22  and  N4_24 
REMARK   12  A    between atoms: C17_28  and  C18_29 
REMARK   13  A    between atoms: C20_33  and  C21_34 
REMARK   14  A    between atoms: C21_34  and  C22_35 
ROOT
HETATM    1  O2  UNL     1     -14.365  11.630  47.862  1.00  0.00    -0.318 OA
ENDROOT
BRANCH   1   2
HETATM    2  C6  UNL     1     -15.258  11.484  46.858  1.00  0.00     0.282 C 
HETATM    3  O1  UNL     1     -16.470  11.780  47.002  1.00  0.00    -0.260 OA
BRANCH   2   4
HETATM    4  C5  UNL     1     -14.880  10.969  45.528  1.00  0.00     0.083 C 
HETATM    5  C4  UNL     1     -13.999  11.591  44.775  1.00  0.00     0.025 C 
BRANCH   5   6
HETATM    6  C3  UNL     1     -13.686  11.009  43.471  1.00  0.00     0.006 A 
HETATM    7  S1  UNL     1     -13.668  11.777  41.968  1.00  0.00    -0.086 SA
HETATM    8  C2  UNL     1     -13.214  10.436  40.959  1.00  0.00     0.056 A 
HETATM    9  C20 UNL     1     -13.094   9.411  41.882  1.00  0.00    -0.014 A 
HETATM   10  C19 UNL     1     -13.340   9.725  43.160  1.00  0.00     0.031 A 
BRANCH   8  11
HETATM   11  C1  UNL     1     -13.025  10.490  39.502  1.00  0.00     0.128 C 
HETATM   12  N1  UNL     1     -12.535   9.699  38.733  1.00  0.00    -0.387 N 
ATOM     13  H12 UNL     1     -12.403   9.737  37.722  1.00  0.00     0.157 HD
ATOM     14  H11 UNL     1     -12.184   8.838  39.154  1.00  0.00     0.157 HD
HETATM   15  N2  UNL     1     -13.531  11.734  38.894  1.00  0.00    -0.082 NA
ENDBRANCH   8  11
BRANCH   9  16
HETATM   16  C21 UNL     1     -12.727   8.056  41.424  1.00  0.00     0.025 C 
BRANCH  16  17
HETATM   17  C22 UNL     1     -11.670   7.350  41.687  1.00  0.00     0.085 C 
HETATM   18 CL1  UNL     1     -10.582   7.498  43.019  1.00  0.00    -0.097 Cl
ENDBRANCH  16  17
ENDBRANCH   9  16
ENDBRANCH   5   6
ENDBRANCH   2   4
ENDBRANCH   1   2
BRANCH   1  19
HETATM   19  C7  UNL     1     -13.735  12.853  48.233  1.00  0.00     0.179 C 
BRANCH  19  20
HETATM   20  C8  UNL     1     -12.275  12.755  47.998  1.00  0.00     0.027 C 
BRANCH  20  21
HETATM   21  C9  UNL     1     -11.625  11.453  47.855  1.00  0.00     0.002 C 
BRANCH  21  22
HETATM   22  C10 UNL     1     -10.900  11.136  46.623  1.00  0.00     0.002 C 
BRANCH  22  23
HETATM   23  C11 UNL     1     -10.910   9.736  46.166  1.00  0.00     0.020 C 
BRANCH  23  24
HETATM   24  C12 UNL     1     -11.912   8.909  47.007  1.00  0.00     0.124 C 
BRANCH  24  25
HETATM   25  N3  UNL     1     -12.623   8.034  46.151  1.00  0.00    -0.343 N 
HETATM   26  C13 UNL     1     -13.948   7.611  46.369  1.00  0.00     0.319 C 
HETATM   27  O3  UNL     1     -14.593   7.984  47.357  1.00  0.00    -0.247 OA
HETATM   28  N4  UNL     1     -14.601   6.716  45.432  1.00  0.00    -0.320 N 
HETATM   29  C14 UNL     1     -13.972   6.211  44.250  1.00  0.00     0.129 C 
HETATM   30  C17 UNL     1     -15.928   6.209  45.534  1.00  0.00     0.190 C 
HETATM   31  C15 UNL     1     -15.112   6.009  43.263  1.00  0.00     0.022 C 
HETATM   32  C16 UNL     1     -16.261   5.665  44.181  1.00  0.00     0.038 C 
ATOM     33  H3  UNL     1     -12.144   7.687  45.319  1.00  0.00     0.164 HD
BRANCH  30  34
HETATM   34  C18 UNL     1     -16.025   5.086  46.503  1.00  0.00     0.197 C 
HETATM   35  O4  UNL     1     -16.702   5.214  47.547  1.00  0.00    -0.646 OA
HETATM   36  O5  UNL     1     -15.366   3.911  46.238  1.00  0.00    -0.646 OA
ENDBRANCH  30  34
ENDBRANCH  24  25
ENDBRANCH  23  24
ENDBRANCH  22  23
ENDBRANCH  21  22
ENDBRANCH  20  21
ENDBRANCH  19  20
ENDBRANCH   1  19
TORSDOF 14
ENDMDL
MODEL 2
REMARK VINA RESULT: -6.880980957      3.256      6.195
REMARK  14 active torsions:
REMARK  status: ('A' for Active; 'I' for Inactive)
REMARK    1  A    between atoms: C1_4  and  C2_6 
REMARK    2  A    between atoms: C3_8  and  C4_9 
REMARK    3  A    between atoms: C5_10  and  C6_11 
REMARK    4  A    between atoms: C6_11  and  O2_13 
REMARK    5  A    between atoms: O2_13  and  C7_14 
REMARK    6  A    between atoms: C7_14  and  C8_15 
REMARK    7  A    between atoms: C8_15  and  C9_16 
REMARK    8  A    between atoms: C9_16  and  C10_17 
REMARK    9  A    between atoms: C10_17  and  C11_18 
REMARK   10  A    between atoms: C11_18  and  C12_19 
REMARK   11  A    between atoms: C12_19  and  N3_20 
REMARK       I    between atoms: N3_20  and  C13_22 
REMARK       I    between atoms: C13_22  and  N4_24 
REMARK   12  A    between atoms: C17_28  and  C18_29 
REMARK   13  A    between atoms: C20_33  and  C21_34 
REMARK   14  A    between atoms: C21_34  and  C22_35 
ROOT
HETATM    1  O2  UNL     1     -13.023  11.672  40.397  1.00  0.00    -0.318 OA
ENDROOT
BRANCH   1   2
HETATM    2  C6  UNL     1     -14.222  11.517  41.002  1.00  0.00     0.282 C 
HETATM    3  O1  UNL     1     -15.292  11.464  40.347  1.00  0.00    -0.260 OA
BRANCH   2   4
HETATM    4  C5  UNL     1     -14.362  11.400  42.466  1.00  0.00     0.083 C 
HETATM    5  C4  UNL     1     -13.314  11.260  43.248  1.00  0.00     0.025 C 
BRANCH   5   6
HETATM    6  C3  UNL     1     -13.548  11.150  44.687  1.00  0.00     0.006 A 
HETATM    7  S1  UNL     1     -12.403  11.011  45.919  1.00  0.00    -0.086 SA
HETATM    8  C2  UNL     1     -13.461  10.933  47.296  1.00  0.00     0.056 A 
HETATM    9  C20 UNL     1     -14.709  11.022  46.703  1.00  0.00    -0.014 A 
HETATM   10  C19 UNL     1     -14.731  11.132  45.369  1.00  0.00     0.031 A 
BRANCH   8  11
HETATM   11  C1  UNL     1     -13.031  10.810  48.697  1.00  0.00     0.128 C 
HETATM   12  N1  UNL     1     -12.903  11.638  49.565  1.00  0.00    -0.387 N 
ATOM     13  H12 UNL     1     -12.604  11.554  50.537  1.00  0.00     0.157 HD
ATOM     14  H11 UNL     1     -13.128  12.596  49.294  1.00  0.00     0.157 HD
HETATM   15  N2  UNL     1     -12.707   9.426  49.089  1.00  0.00    -0.082 NA
ENDBRANCH   8  11
BRANCH   9  16
HETATM   16  C21 UNL     1     -15.921  10.977  47.545  1.00  0.00     0.025 C 
BRANCH  16  17
HETATM   17  C22 UNL     1     -16.629  11.950  48.032  1.00  0.00     0.085 C 
HETATM   18 CL1  UNL     1     -16.634  13.613  47.569  1.00  0.00    -0.097 Cl
ENDBRANCH  16  17
ENDBRANCH   9  16
ENDBRANCH   5   6
ENDBRANCH   2   4
ENDBRANCH   1   2
BRANCH   1  19
HETATM   19  C7  UNL     1     -12.611  11.013  39.202  1.00  0.00     0.179 C 
BRANCH  19  20
HETATM   20  C8  UNL     1     -13.204   9.656  39.150  1.00  0.00     0.027 C 
BRANCH  20  21
HETATM   21  C9  UNL     1     -12.353   8.467  39.122  1.00  0.00     0.002 C 
BRANCH  21  22
HETATM   22  C10 UNL     1     -12.368   7.539  40.255  1.00  0.00     0.002 C 
BRANCH  22  23
HETATM   23  C11 UNL     1     -12.901   8.033  41.536  1.00  0.00     0.020 C 
BRANCH  23  24
HETATM   24  C12 UNL     1     -12.067   7.472  42.711  1.00  0.00     0.124 C 
BRANCH  24  25
HETATM   25  N3  UNL     1     -12.876   7.427  43.873  1.00  0.00    -0.343 N 
HETATM   26  C13 UNL     1     -13.808   6.410  44.154  1.00  0.00     0.319 C 
HETATM   27  O3  UNL     1     -13.988   5.465  43.377  1.00  0.00    -0.247 OA
HETATM   28  N4  UNL     1     -14.590   6.444  45.376  1.00  0.00    -0.320 N 
HETATM   29  C14 UNL     1     -14.480   7.477  46.358  1.00  0.00     0.129 C 
HETATM   30  C17 UNL     1     -15.566   5.487  45.778  1.00  0.00     0.190 C 
HETATM   31  C15 UNL     1     -14.818   6.794  47.675  1.00  0.00     0.022 C 
HETATM   32  C16 UNL     1     -15.804   5.738  47.234  1.00  0.00     0.038 C 
ATOM     33  H3  UNL     1     -12.777   8.183  44.552  1.00  0.00     0.164 HD
BRANCH  30  34
HETATM   34  C18 UNL     1     -16.861   5.677  45.075  1.00  0.00     0.197 C 
HETATM   35  O4  UNL     1     -17.100   5.051  44.019  1.00  0.00    -0.646 OA
HETATM   36  O5  UNL     1     -17.789   6.546  45.596  1.00  0.00    -0.646 OA
ENDBRANCH  30  34
ENDBRANCH  24  25
ENDBRANCH  23  24
ENDBRANCH  22  23
ENDBRANCH  21  22
ENDBRANCH  20  21
ENDBRANCH  19  20
ENDBRANCH   1  19
TORSDOF 14
ENDMDL
MODEL 3
REMARK VINA RESULT: -6.760141443      3.517      6.338
REMARK  14 active torsions:
REMARK  status: ('A' for Active; 'I' for Inactive)
REMARK    1  A    between atoms: C1_4  and  C2_6 
REMARK    2  A    between atoms: C3_8  and  C4_9 
REMARK    3  A    between atoms: C5_10  and  C6_11 
REMARK    4  A    between atoms: C6_11  and  O2_13 
REMARK    5  A    between atoms: O2_13  and  C7_14 
REMARK    6  A    between atoms: C7_14  and  C8_15 
REMARK    7  A    between atoms: C8_15  and  C9_16 
REMARK    8  A    between atoms: C9_16  and  C10_17 
REMARK    9  A    between atoms: C10_17  and  C11_18 
REMARK   10  A    between atoms: C11_18  and  C12_19 
REMARK   11  A    between atoms: C12_19  and  N3_20 
REMARK       I    between atoms: N3_20  and  C13_22 
REMARK       I    between atoms: C13_22  and  N4_24 
REMARK   12  A    between atoms: C17_28  and  C18_29 
REMARK   13  A    between atoms: C20_33  and  C21_34 
REMARK   14  A    between atoms: C21_34  and  C22_35 
ROOT
HETATM    1  O2  UNL     1     -12.673  10.843  40.719  1.00  0.00    -0.318 OA
ENDROOT
BRANCH   1   2
HETATM    2  C6  UNL     1     -13.799  11.317  41.296  1.00  0.00     0.282 C 
HETATM    3  O1  UNL     1     -14.823  11.593  40.623  1.00  0.00    -0.260 OA
BRANCH   2   4
HETATM    4  C5  UNL     1     -13.911  11.544  42.750  1.00  0.00     0.083 C 
HETATM    5  C4  UNL     1     -13.345  10.734  43.618  1.00  0.00     0.025 C 
BRANCH   5   6
HETATM    6  C3  UNL     1     -13.509  11.036  45.039  1.00  0.00     0.006 A 
HETATM    7  S1  UNL     1     -12.311  11.150  46.223  1.00  0.00    -0.086 SA
HETATM    8  C2  UNL     1     -13.297  11.528  47.603  1.00  0.00     0.056 A 
HETATM    9  C20 UNL     1     -14.567  11.547  47.051  1.00  0.00    -0.014 A 
HETATM   10  C19 UNL     1     -14.653  11.293  45.739  1.00  0.00     0.031 A 
BRANCH   8  11
HETATM   11  C1  UNL     1     -12.802  11.757  48.968  1.00  0.00     0.128 C 
HETATM   12  N1  UNL     1     -12.759  11.031  49.932  1.00  0.00    -0.387 N 
ATOM     13  H12 UNL     1     -12.416  11.190  50.879  1.00  0.00     0.157 HD
ATOM     14  H11 UNL     1     -13.130  10.091  49.789  1.00  0.00     0.157 HD
HETATM   15  N2  UNL     1     -12.266  13.115  49.174  1.00  0.00    -0.082 NA
ENDBRANCH   8  11
BRANCH   9  16
HETATM   16  C21 UNL     1     -15.733  11.823  47.913  1.00  0.00     0.025 C 
BRANCH  16  17
HETATM   17  C22 UNL     1     -16.752  12.600  47.705  1.00  0.00     0.085 C 
HETATM   18 CL1  UNL     1     -16.764  14.292  47.367  1.00  0.00    -0.097 Cl
ENDBRANCH  16  17
ENDBRANCH   9  16
ENDBRANCH   5   6
ENDBRANCH   2   4
ENDBRANCH   1   2
BRANCH   1  19
HETATM   19  C7  UNL     1     -12.598   9.696  39.876  1.00  0.00     0.179 C 
BRANCH  19  20
HETATM   20  C8  UNL     1     -13.112   8.510  40.599  1.00  0.00     0.027 C 
BRANCH  20  21
HETATM   21  C9  UNL     1     -12.213   7.658  41.377  1.00  0.00     0.002 C 
BRANCH  21  22
HETATM   22  C10 UNL     1     -12.629   7.180  42.696  1.00  0.00     0.002 C 
BRANCH  22  23
HETATM   23  C11 UNL     1     -14.074   7.075  42.960  1.00  0.00     0.020 C 
BRANCH  23  24
HETATM   24  C12 UNL     1     -14.333   6.078  44.115  1.00  0.00     0.124 C 
BRANCH  24  25
HETATM   25  N3  UNL     1     -15.008   6.750  45.163  1.00  0.00    -0.343 N 
HETATM   26  C13 UNL     1     -16.104   6.221  45.871  1.00  0.00     0.319 C 
HETATM   27  O3  UNL     1     -16.564   5.103  45.610  1.00  0.00    -0.247 OA
HETATM   28  N4  UNL     1     -16.730   6.981  46.937  1.00  0.00    -0.320 N 
HETATM   29  C14 UNL     1     -16.297   8.283  47.341  1.00  0.00     0.129 C 
HETATM   30  C17 UNL     1     -17.842   6.568  47.725  1.00  0.00     0.190 C 
HETATM   31  C15 UNL     1     -16.636   8.360  48.822  1.00  0.00     0.022 C 
HETATM   32  C16 UNL     1     -17.869   7.489  48.904  1.00  0.00     0.038 C 
ATOM     33  H3  UNL     1     -14.678   7.680  45.423  1.00  0.00     0.164 HD
BRANCH  30  34
HETATM   34  C18 UNL     1     -19.131   6.731  47.004  1.00  0.00     0.197 C 
HETATM   35  O4  UNL     1     -19.144   7.166  45.831  1.00  0.00    -0.646 OA
HETATM   36  O5  UNL     1     -20.303   6.397  47.637  1.00  0.00    -0.646 OA
ENDBRANCH  30  34
ENDBRANCH  24  25
ENDBRANCH  23  24
ENDBRANCH  22  23
ENDBRANCH  21  22
ENDBRANCH  20  21
ENDBRANCH  19  20
ENDBRANCH   1  19
TORSDOF 14
ENDMDL
MODEL 4
REMARK VINA RESULT: -6.574322658      3.351      6.231
REMARK  14 active torsions:
REMARK  status: ('A' for Active; 'I' for Inactive)
REMARK    1  A    between atoms: C1_4  and  C2_6 
REMARK    2  A    between atoms: C3_8  and  C4_9 
REMARK    3  A    between atoms: C5_10  and  C6_11 
REMARK    4  A    between atoms: C6_11  and  O2_13 
REMARK    5  A    between atoms: O2_13  and  C7_14 
REMARK    6  A    between atoms: C7_14  and  C8_15 
REMARK    7  A    between atoms: C8_15  and  C9_16 
REMARK    8  A    between atoms: C9_16  and  C10_17 
REMARK    9  A    between atoms: C10_17  and  C11_18 
REMARK   10  A    between atoms: C11_18  and  C12_19 
REMARK   11  A    between atoms: C12_19  and  N3_20 
REMARK       I    between atoms: N3_20  and  C13_22 
REMARK       I    between atoms: C13_22  and  N4_24 
REMARK   12  A    between atoms: C17_28  and  C18_29 
REMARK   13  A    between atoms: C20_33  and  C21_34 
REMARK   14  A    between atoms: C21_34  and  C22_35 
ROOT
HETATM    1  O2  UNL     1     -12.755  10.984  40.388  1.00  0.00    -0.318 OA
ENDROOT
BRANCH   1   2
HETATM    2  C6  UNL     1     -13.924  11.346  40.963  1.00  0.00     0.282 C 
HETATM    3  O1  UNL     1     -14.983  11.455  40.298  1.00  0.00    -0.260 OA
BRANCH   2   4
HETATM    4  C5  UNL     1     -14.041  11.639  42.404  1.00  0.00     0.083 C 
HETATM    5  C4  UNL     1     -13.454  10.886  43.309  1.00  0.00     0.025 C 
BRANCH   5   6
HETATM    6  C3  UNL     1     -13.626  11.249  44.714  1.00  0.00     0.006 A 
HETATM    7  S1  UNL     1     -12.465  11.846  45.784  1.00  0.00    -0.086 SA
HETATM    8  C2  UNL     1     -13.440  12.017  47.212  1.00  0.00     0.056 A 
HETATM    9  C20 UNL     1     -14.677  11.582  46.767  1.00  0.00    -0.014 A 
HETATM   10  C19 UNL     1     -14.750  11.194  45.487  1.00  0.00     0.031 A 
BRANCH   8  11
HETATM   11  C1  UNL     1     -12.970  12.516  48.512  1.00  0.00     0.128 C 
HETATM   12  N1  UNL     1     -12.682  13.629  48.880  1.00  0.00    -0.387 N 
ATOM     13  H12 UNL     1     -12.355  13.976  49.782  1.00  0.00     0.157 HD
ATOM     14  H11 UNL     1     -12.776  14.362  48.176  1.00  0.00     0.157 HD
HETATM   15  N2  UNL     1     -12.835  11.458  49.530  1.00  0.00    -0.082 NA
ENDBRANCH   8  11
BRANCH   9  16
HETATM   16  C21 UNL     1     -15.820  11.552  47.702  1.00  0.00     0.025 C 
BRANCH  16  17
HETATM   17  C22 UNL     1     -16.762  12.426  47.888  1.00  0.00     0.085 C 
HETATM   18 CL1  UNL     1     -16.764  14.106  47.492  1.00  0.00    -0.097 Cl
ENDBRANCH  16  17
ENDBRANCH   9  16
ENDBRANCH   5   6
ENDBRANCH   2   4
ENDBRANCH   1   2
BRANCH   1  19
HETATM   19  C7  UNL     1     -12.609  10.002  39.364  1.00  0.00     0.179 C 
BRANCH  19  20
HETATM   20  C8  UNL     1     -13.116   8.697  39.848  1.00  0.00     0.027 C 
BRANCH  20  21
HETATM   21  C9  UNL     1     -12.245   7.782  40.586  1.00  0.00     0.002 C 
BRANCH  21  22
HETATM   22  C10 UNL     1     -12.433   7.607  42.027  1.00  0.00     0.002 C 
BRANCH  22  23
HETATM   23  C11 UNL     1     -13.774   7.224  42.500  1.00  0.00     0.020 C 
BRANCH  23  24
HETATM   24  C12 UNL     1     -13.666   6.072  43.527  1.00  0.00     0.124 C 
BRANCH  24  25
HETATM   25  N3  UNL     1     -14.704   6.204  44.481  1.00  0.00    -0.343 N 
HETATM   26  C13 UNL     1     -14.645   7.045  45.609  1.00  0.00     0.319 C 
HETATM   27  O3  UNL     1     -13.649   7.738  45.848  1.00  0.00    -0.247 OA
HETATM   28  N4  UNL     1     -15.762   7.121  46.532  1.00  0.00    -0.320 N 
HETATM   29  C14 UNL     1     -16.972   6.376  46.373  1.00  0.00     0.129 C 
HETATM   30  C17 UNL     1     -15.831   7.922  47.708  1.00  0.00     0.190 C 
HETATM   31  C15 UNL     1     -18.048   7.248  47.003  1.00  0.00     0.022 C 
HETATM   32  C16 UNL     1     -17.277   7.954  48.093  1.00  0.00     0.038 C 
ATOM     33  H3  UNL     1     -15.552   5.654  44.342  1.00  0.00     0.164 HD
BRANCH  30  34
HETATM   34  C18 UNL     1     -15.081   7.320  48.840  1.00  0.00     0.197 C 
HETATM   35  O4  UNL     1     -15.565   6.354  49.471  1.00  0.00    -0.646 OA
HETATM   36  O5  UNL     1     -13.855   7.834  49.185  1.00  0.00    -0.646 OA
ENDBRANCH  30  34
ENDBRANCH  24  25
ENDBRANCH  23  24
ENDBRANCH  22  23
ENDBRANCH  21  22
ENDBRANCH  20  21
ENDBRANCH  19  20
ENDBRANCH   1  19
TORSDOF 14
ENDMDL
MODEL 5
REMARK VINA RESULT: -6.574009786      1.621      2.813
REMARK  14 active torsions:
REMARK  status: ('A' for Active; 'I' for Inactive)
REMARK    1  A    between atoms: C1_4  and  C2_6 
REMARK    2  A    between atoms: C3_8  and  C4_9 
REMARK    3  A    between atoms: C5_10  and  C6_11 
REMARK    4  A    between atoms: C6_11  and  O2_13 
REMARK    5  A    between atoms: O2_13  and  C7_14 
REMARK    6  A    between atoms: C7_14  and  C8_15 
REMARK    7  A    between atoms: C8_15  and  C9_16 
REMARK    8  A    between atoms: C9_16  and  C10_17 
REMARK    9  A    between atoms: C10_17  and  C11_18 
REMARK   10  A    between atoms: C11_18  and  C12_19 
REMARK   11  A    between atoms: C12_19  and  N3_20 
REMARK       I    between atoms: N3_20  and  C13_22 
REMARK       I    between atoms: C13_22  and  N4_24 
REMARK   12  A    between atoms: C17_28  and  C18_29 
REMARK   13  A    between atoms: C20_33  and  C21_34 
REMARK   14  A    between atoms: C21_34  and  C22_35 
ROOT
HETATM    1  O2  UNL     1     -13.762  12.792  47.490  1.00  0.00    -0.318 OA
ENDROOT
BRANCH   1   2
HETATM    2  C6  UNL     1     -13.124  11.641  47.183  1.00  0.00     0.282 C 
HETATM    3  O1  UNL     1     -12.607  10.914  48.067  1.00  0.00    -0.260 OA
BRANCH   2   4
HETATM    4  C5  UNL     1     -12.988  11.154  45.797  1.00  0.00     0.083 C 
HETATM    5  C4  UNL     1     -13.889  11.431  44.879  1.00  0.00     0.025 C 
BRANCH   5   6
HETATM    6  C3  UNL     1     -13.673  10.907  43.532  1.00  0.00     0.006 A 
HETATM    7  S1  UNL     1     -13.686  11.753  42.072  1.00  0.00    -0.086 SA
HETATM    8  C2  UNL     1     -13.357  10.447  40.972  1.00  0.00     0.056 A 
HETATM    9  C20 UNL     1     -13.249   9.369  41.834  1.00  0.00    -0.014 A 
HETATM   10  C19 UNL     1     -13.414   9.625  43.138  1.00  0.00     0.031 A 
BRANCH   8  11
HETATM   11  C1  UNL     1     -13.237  10.571  39.513  1.00  0.00     0.128 C 
HETATM   12  N1  UNL     1     -12.671   9.882  38.699  1.00  0.00    -0.387 N 
ATOM     13  H12 UNL     1     -12.588   9.967  37.686  1.00  0.00     0.157 HD
ATOM     14  H11 UNL     1     -12.185   9.068  39.077  1.00  0.00     0.157 HD
HETATM   15  N2  UNL     1     -13.939  11.747  38.967  1.00  0.00    -0.082 NA
ENDBRANCH   8  11
BRANCH   9  16
HETATM   16  C21 UNL     1     -12.980   8.023  41.288  1.00  0.00     0.025 C 
BRANCH  16  17
HETATM   17  C22 UNL     1     -11.910   7.293  41.372  1.00  0.00     0.085 C 
HETATM   18 CL1  UNL     1     -10.661   7.348  42.563  1.00  0.00    -0.097 Cl
ENDBRANCH  16  17
ENDBRANCH   9  16
ENDBRANCH   5   6
ENDBRANCH   2   4
ENDBRANCH   1   2
BRANCH   1  19
HETATM   19  C7  UNL     1     -14.880  12.907  48.367  1.00  0.00     0.179 C 
BRANCH  19  20
HETATM   20  C8  UNL     1     -16.130  12.625  47.623  1.00  0.00     0.027 C 
BRANCH  20  21
HETATM   21  C9  UNL     1     -16.701  11.279  47.600  1.00  0.00     0.002 C 
BRANCH  21  22
HETATM   22  C10 UNL     1     -16.151  10.243  48.476  1.00  0.00     0.002 C 
BRANCH  22  23
HETATM   23  C11 UNL     1     -17.075   9.573  49.407  1.00  0.00     0.020 C 
BRANCH  23  24
HETATM   24  C12 UNL     1     -17.450   8.172  48.868  1.00  0.00     0.124 C 
BRANCH  24  25
HETATM   25  N3  UNL     1     -16.387   7.684  48.070  1.00  0.00    -0.343 N 
HETATM   26  C13 UNL     1     -16.551   7.086  46.806  1.00  0.00     0.319 C 
HETATM   27  O3  UNL     1     -17.671   6.941  46.299  1.00  0.00    -0.247 OA
HETATM   28  N4  UNL     1     -15.401   6.619  46.055  1.00  0.00    -0.320 N 
HETATM   29  C14 UNL     1     -14.054   6.727  46.523  1.00  0.00     0.129 C 
HETATM   30  C17 UNL     1     -15.426   5.996  44.775  1.00  0.00     0.190 C 
HETATM   31  C15 UNL     1     -13.216   6.860  45.261  1.00  0.00     0.022 C 
HETATM   32  C16 UNL     1     -14.019   6.052  44.268  1.00  0.00     0.038 C 
ATOM     33  H3  UNL     1     -15.439   7.770  48.436  1.00  0.00     0.164 HD
BRANCH  30  34
HETATM   34  C18 UNL     1     -15.814   4.564  44.857  1.00  0.00     0.197 C 
HETATM   35  O4  UNL     1     -15.160   3.776  45.577  1.00  0.00    -0.646 OA
HETATM   36  O5  UNL     1     -16.895   4.117  44.137  1.00  0.00    -0.646 OA
ENDBRANCH  30  34
ENDBRANCH  24  25
ENDBRANCH  23  24
ENDBRANCH  22  23
ENDBRANCH  21  22
ENDBRANCH  20  21
ENDBRANCH  19  20
ENDBRANCH   1  19
TORSDOF 14
ENDMDL
