MODEL 1
REMARK VINA RESULT: -7.183413827      0.000      0.000
REMARK  14 active torsions:
REMARK  status: ('A' for Active; 'I' for Inactive)
REMARK       I    between atoms: C2_2  and  N1_4 
REMARK    1  A    between atoms: N1_4  and  C3_6 
REMARK    2  A    between atoms: C3_6  and  C5_8 
REMARK    3  A    between atoms: C5_8  and  C6_9 
REMARK    4  A    between atoms: C7_10  and  C8_11 
REMARK    5  A    between atoms: C8_11  and  N2_12 
REMARK    6  A    between atoms: N2_12  and  C9_14 
REMARK    7  A    between atoms: C10_16  and  O3_17 
REMARK    8  A    between atoms: C12_20  and  O4_21 
REMARK    9  A    between atoms: O4_21  and  C13_22 
REMARK   10  A    between atoms: C17_26  and  C18_27 
REMARK   11  A    between atoms: C18_27  and  C20_29 
REMARK   12  A    between atoms: C20_29  and  C21_30 
REMARK   13  A    between atoms: C21_30  and  O5_31 
REMARK   14  A    between atoms: C21_30  and  C22_33 
ROOT
HETATM    1  C9  UNL     1     -13.561   6.947  42.799  1.00  0.00     0.249 C 
HETATM    2  O2  UNL     1     -13.305   6.961  41.434  1.00  0.00    -0.335 OA
HETATM    3  C10 UNL     1     -12.093   7.539  41.221  1.00  0.00     0.262 C 
HETATM    4  C11 UNL     1     -11.487   7.976  42.502  1.00  0.00     0.097 C 
HETATM    5  C12 UNL     1     -12.648   7.937  43.468  1.00  0.00     0.175 C 
ENDROOT
BRANCH   5   6
HETATM    6  O4  UNL     1     -13.331   9.132  43.531  1.00  0.00    -0.376 OA
BRANCH   6   7
HETATM    7  C13 UNL     1     -13.242   9.800  44.774  1.00  0.00     0.126 C 
HETATM    8  C14 UNL     1     -13.559   8.792  45.855  1.00  0.00     0.032 C 
HETATM    9  C15 UNL     1     -13.122   9.220  47.209  1.00  0.00     0.003 C 
HETATM   10  C16 UNL     1     -14.104  10.057  47.945  1.00  0.00     0.005 C 
HETATM   11  C17 UNL     1     -14.213  11.441  47.236  1.00  0.00    -0.010 C 
HETATM   12  C23 UNL     1     -14.976  11.208  46.027  1.00  0.00     0.011 C 
HETATM   13  C24 UNL     1     -14.241  10.875  44.766  1.00  0.00     0.011 C 
HETATM   14  C25 UNL     1     -13.571  12.179  44.297  1.00  0.00     0.012 C 
BRANCH  11  15
HETATM   15  C18 UNL     1     -14.612  12.471  48.230  1.00  0.00    -0.012 C 
HETATM   16  C19 UNL     1     -15.986  13.037  47.743  1.00  0.00     0.010 C 
BRANCH  15  17
HETATM   17  C20 UNL     1     -13.747  13.607  48.498  1.00  0.00     0.037 C 
BRANCH  17  18
HETATM   18  C21 UNL     1     -12.277  13.495  48.323  1.00  0.00     0.132 C 
BRANCH  18  19
HETATM   19  O5  UNL     1     -11.774  14.898  48.504  1.00  0.00    -0.394 OA
ATOM     20  H5  UNL     1     -10.831  14.821  48.425  1.00  0.00     0.210 HD
ENDBRANCH  18  19
BRANCH  18  21
HETATM   21  C22 UNL     1     -11.535  12.782  49.439  1.00  0.00     0.146 C 
HETATM   22 CL1  UNL     1     -10.744  11.316  49.022  1.00  0.00    -0.128 Cl
ENDBRANCH  18  21
ENDBRANCH  17  18
ENDBRANCH  15  17
ENDBRANCH  11  15
ENDBRANCH   6   7
ENDBRANCH   5   6
BRANCH   1  23
HETATM   23  N2  UNL     1     -13.559   5.633  43.343  1.00  0.00    -0.392 N 
ATOM     24  H2  UNL     1     -13.025   4.879  42.910  1.00  0.00     0.156 HD
BRANCH  23  25
HETATM   25  C8  UNL     1     -14.334   5.417  44.519  1.00  0.00     0.143 C 
BRANCH  25  26
HETATM   26  C7  UNL     1     -15.755   5.653  44.170  1.00  0.00    -0.012 C 
HETATM   27  C6  UNL     1     -16.743   5.863  44.991  1.00  0.00    -0.027 C 
BRANCH  27  28
HETATM   28  C5  UNL     1     -16.721   5.928  46.452  1.00  0.00     0.051 C 
BRANCH  28  29
HETATM   29  C3  UNL     1     -17.669   6.974  47.025  1.00  0.00     0.083 C 
HETATM   30  C4  UNL     1     -17.055   8.305  47.238  1.00  0.00     0.032 C 
BRANCH  29  31
HETATM   31  N1  UNL     1     -18.358   6.448  48.197  1.00  0.00    -0.357 N 
HETATM   32  C2  UNL     1     -19.756   6.238  48.247  1.00  0.00     0.213 C 
HETATM   33  C1  UNL     1     -20.355   5.699  49.489  1.00  0.00     0.117 C 
HETATM   34  O1  UNL     1     -20.492   6.498  47.266  1.00  0.00    -0.274 OA
ATOM     35  H1  UNL     1     -17.805   6.220  49.023  1.00  0.00     0.162 HD
ENDBRANCH  29  31
ENDBRANCH  28  29
ENDBRANCH  27  28
ENDBRANCH  25  26
ENDBRANCH  23  25
ENDBRANCH   1  23
BRANCH   3  36
HETATM   36  O3  UNL     1     -12.187   8.562  40.274  1.00  0.00    -0.371 OA
ATOM     37  H3  UNL     1     -12.573   9.342  40.654  1.00  0.00     0.212 HD
ENDBRANCH   3  36
TORSDOF 14
ENDMDL
MODEL 2
REMARK VINA RESULT: -7.074927140      3.424      8.078
REMARK  14 active torsions:
REMARK  status: ('A' for Active; 'I' for Inactive)
REMARK       I    between atoms: C2_2  and  N1_4 
REMARK    1  A    between atoms: N1_4  and  C3_6 
REMARK    2  A    between atoms: C3_6  and  C5_8 
REMARK    3  A    between atoms: C5_8  and  C6_9 
REMARK    4  A    between atoms: C7_10  and  C8_11 
REMARK    5  A    between atoms: C8_11  and  N2_12 
REMARK    6  A    between atoms: N2_12  and  C9_14 
REMARK    7  A    between atoms: C10_16  and  O3_17 
REMARK    8  A    between atoms: C12_20  and  O4_21 
REMARK    9  A    between atoms: O4_21  and  C13_22 
REMARK   10  A    between atoms: C17_26  and  C18_27 
REMARK   11  A    between atoms: C18_27  and  C20_29 
REMARK   12  A    between atoms: C20_29  and  C21_30 
REMARK   13  A    between atoms: C21_30  and  O5_31 
REMARK   14  A    between atoms: C21_30  and  C22_33 
ROOT
HETATM    1  C9  UNL     1     -12.834  11.762  48.249  1.00  0.00     0.249 C 
HETATM    2  O2  UNL     1     -12.736  12.428  49.464  1.00  0.00    -0.335 OA
HETATM    3  C10 UNL     1     -11.449  12.366  49.896  1.00  0.00     0.262 C 
HETATM    4  C11 UNL     1     -10.613  11.590  48.947  1.00  0.00     0.097 C 
HETATM    5  C12 UNL     1     -11.631  10.873  48.093  1.00  0.00     0.175 C 
ENDROOT
BRANCH   5   6
HETATM    6  O4  UNL     1     -11.977   9.638  48.597  1.00  0.00    -0.376 OA
BRANCH   6   7
HETATM    7  C13 UNL     1     -12.073   8.610  47.631  1.00  0.00     0.126 C 
HETATM    8  C14 UNL     1     -11.389   9.101  46.375  1.00  0.00     0.032 C 
HETATM    9  C15 UNL     1     -11.050   8.013  45.421  1.00  0.00     0.003 C 
HETATM   10  C16 UNL     1     -12.139   7.652  44.478  1.00  0.00     0.005 C 
HETATM   11  C17 UNL     1     -13.292   6.973  45.279  1.00  0.00    -0.010 C 
HETATM   12  C23 UNL     1     -13.959   8.041  45.995  1.00  0.00     0.011 C 
HETATM   13  C24 UNL     1     -13.499   8.375  47.380  1.00  0.00     0.011 C 
HETATM   14  C25 UNL     1     -13.986   7.230  48.287  1.00  0.00     0.012 C 
BRANCH  11  15
HETATM   15  C18 UNL     1     -14.032   6.046  44.384  1.00  0.00    -0.012 C 
HETATM   16  C19 UNL     1     -13.998   6.694  42.961  1.00  0.00     0.010 C 
BRANCH  15  17
HETATM   17  C20 UNL     1     -15.414   5.699  44.668  1.00  0.00     0.037 C 
BRANCH  17  18
HETATM   18  C21 UNL     1     -15.739   4.543  45.542  1.00  0.00     0.132 C 
BRANCH  18  19
HETATM   19  O5  UNL     1     -14.404   3.934  45.859  1.00  0.00    -0.394 OA
ATOM     20  H5  UNL     1     -14.200   4.258  46.728  1.00  0.00     0.210 HD
ENDBRANCH  18  19
BRANCH  18  21
HETATM   21  C22 UNL     1     -16.231   4.891  46.935  1.00  0.00     0.146 C 
HETATM   22 CL1  UNL     1     -17.266   6.255  47.065  1.00  0.00    -0.128 Cl
ENDBRANCH  18  21
ENDBRANCH  17  18
ENDBRANCH  15  17
ENDBRANCH  11  15
ENDBRANCH   6   7
ENDBRANCH   5   6
BRANCH   1  23
HETATM   23  N2  UNL     1     -13.104  12.639  47.164  1.00  0.00    -0.392 N 
ATOM     24  H2  UNL     1     -13.545  13.548  47.310  1.00  0.00     0.156 HD
BRANCH  23  25
HETATM   25  C8  UNL     1     -12.733  12.194  45.862  1.00  0.00     0.143 C 
BRANCH  25  26
HETATM   26  C7  UNL     1     -13.951  11.667  45.202  1.00  0.00    -0.012 C 
HETATM   27  C6  UNL     1     -14.030  11.097  44.035  1.00  0.00    -0.027 C 
BRANCH  27  28
HETATM   28  C5  UNL     1     -12.960  10.824  43.076  1.00  0.00     0.051 C 
BRANCH  28  29
HETATM   29  C3  UNL     1     -13.383  11.026  41.625  1.00  0.00     0.083 C 
HETATM   30  C4  UNL     1     -14.762  11.537  41.456  1.00  0.00     0.032 C 
BRANCH  29  31
HETATM   31  N1  UNL     1     -13.097   9.830  40.841  1.00  0.00    -0.357 N 
HETATM   32  C2  UNL     1     -12.715   9.866  39.480  1.00  0.00     0.213 C 
HETATM   33  C1  UNL     1     -12.448   8.591  38.777  1.00  0.00     0.117 C 
HETATM   34  O1  UNL     1     -12.598  10.951  38.863  1.00  0.00    -0.274 OA
ATOM     35  H1  UNL     1     -13.178   8.921  41.298  1.00  0.00     0.162 HD
ENDBRANCH  29  31
ENDBRANCH  28  29
ENDBRANCH  27  28
ENDBRANCH  25  26
ENDBRANCH  23  25
ENDBRANCH   1  23
BRANCH   3  36
HETATM   36  O3  UNL     1     -11.385  11.890  51.208  1.00  0.00    -0.371 OA
ATOM     37  H3  UNL     1     -10.527  12.048  51.585  1.00  0.00     0.212 HD
ENDBRANCH   3  36
TORSDOF 14
ENDMDL
MODEL 3
REMARK VINA RESULT: -7.070837934      3.227      8.058
REMARK  14 active torsions:
REMARK  status: ('A' for Active; 'I' for Inactive)
REMARK       I    between atoms: C2_2  and  N1_4 
REMARK    1  A    between atoms: N1_4  and  C3_6 
REMARK    2  A    between atoms: C3_6  and  C5_8 
REMARK    3  A    between atoms: C5_8  and  C6_9 
REMARK    4  A    between atoms: C7_10  and  C8_11 
REMARK    5  A    between atoms: C8_11  and  N2_12 
REMARK    6  A    between atoms: N2_12  and  C9_14 
REMARK    7  A    between atoms: C10_16  and  O3_17 
REMARK    8  A    between atoms: C12_20  and  O4_21 
REMARK    9  A    between atoms: O4_21  and  C13_22 
REMARK   10  A    between atoms: C17_26  and  C18_27 
REMARK   11  A    between atoms: C18_27  and  C20_29 
REMARK   12  A    between atoms: C20_29  and  C21_30 
REMARK   13  A    between atoms: C21_30  and  O5_31 
REMARK   14  A    between atoms: C21_30  and  C22_33 
ROOT
HETATM    1  C9  UNL     1     -12.563  12.338  48.502  1.00  0.00     0.249 C 
HETATM    2  O2  UNL     1     -12.090  13.176  49.502  1.00  0.00    -0.335 OA
HETATM    3  C10 UNL     1     -10.993  12.607  50.069  1.00  0.00     0.262 C 
HETATM    4  C11 UNL     1     -10.705  11.290  49.451  1.00  0.00     0.097 C 
HETATM    5  C12 UNL     1     -11.982  10.966  48.712  1.00  0.00     0.175 C 
ENDROOT
BRANCH   5   6
HETATM    6  O4  UNL     1     -12.883  10.264  49.482  1.00  0.00    -0.376 OA
BRANCH   6   7
HETATM    7  C13 UNL     1     -13.395   9.094  48.876  1.00  0.00     0.126 C 
HETATM    8  C14 UNL     1     -12.548   8.805  47.658  1.00  0.00     0.032 C 
HETATM    9  C15 UNL     1     -12.695   7.416  47.151  1.00  0.00     0.003 C 
HETATM   10  C16 UNL     1     -13.818   7.216  46.200  1.00  0.00     0.005 C 
HETATM   11  C17 UNL     1     -15.163   7.376  46.973  1.00  0.00    -0.010 C 
HETATM   12  C23 UNL     1     -15.318   8.797  47.210  1.00  0.00     0.011 C 
HETATM   13  C24 UNL     1     -14.780   9.376  48.481  1.00  0.00     0.011 C 
HETATM   14  C25 UNL     1     -15.726   8.911  49.603  1.00  0.00     0.012 C 
BRANCH  11  15
HETATM   15  C18 UNL     1     -16.216   6.574  46.296  1.00  0.00    -0.012 C 
HETATM   16  C19 UNL     1     -17.526   6.791  47.121  1.00  0.00     0.010 C 
BRANCH  15  17
HETATM   17  C20 UNL     1     -16.048   5.141  46.120  1.00  0.00     0.037 C 
BRANCH  17  18
HETATM   18  C21 UNL     1     -16.139   4.530  44.771  1.00  0.00     0.132 C 
BRANCH  18  19
HETATM   19  O5  UNL     1     -17.184   5.345  44.066  1.00  0.00    -0.394 OA
ATOM     20  H5  UNL     1     -16.885   5.381  43.165  1.00  0.00     0.210 HD
ENDBRANCH  18  19
BRANCH  18  21
HETATM   21  C22 UNL     1     -14.943   4.757  43.864  1.00  0.00     0.146 C 
HETATM   22 CL1  UNL     1     -14.917   6.229  42.982  1.00  0.00    -0.128 Cl
ENDBRANCH  18  21
ENDBRANCH  17  18
ENDBRANCH  15  17
ENDBRANCH  11  15
ENDBRANCH   6   7
ENDBRANCH   5   6
BRANCH   1  23
HETATM   23  N2  UNL     1     -12.400  12.890  47.202  1.00  0.00    -0.392 N 
ATOM     24  H2  UNL     1     -12.329  13.897  47.056  1.00  0.00     0.156 HD
BRANCH  23  25
HETATM   25  C8  UNL     1     -12.339  11.974  46.112  1.00  0.00     0.143 C 
BRANCH  25  26
HETATM   26  C7  UNL     1     -13.728  11.715  45.664  1.00  0.00    -0.012 C 
HETATM   27  C6  UNL     1     -14.106  10.987  44.654  1.00  0.00    -0.027 C 
BRANCH  27  28
HETATM   28  C5  UNL     1     -13.283  10.237  43.707  1.00  0.00     0.051 C 
BRANCH  28  29
HETATM   29  C3  UNL     1     -13.362  10.771  42.281  1.00  0.00     0.083 C 
HETATM   30  C4  UNL     1     -14.539  11.630  42.015  1.00  0.00     0.032 C 
BRANCH  29  31
HETATM   31  N1  UNL     1     -13.195   9.686  41.322  1.00  0.00    -0.357 N 
HETATM   32  C2  UNL     1     -12.642   9.867  40.033  1.00  0.00     0.213 C 
HETATM   33  C1  UNL     1     -12.518   8.696  39.136  1.00  0.00     0.117 C 
HETATM   34  O1  UNL     1     -12.257  10.994  39.640  1.00  0.00    -0.274 OA
ATOM     35  H1  UNL     1     -13.493   8.749  41.594  1.00  0.00     0.162 HD
ENDBRANCH  29  31
ENDBRANCH  28  29
ENDBRANCH  27  28
ENDBRANCH  25  26
ENDBRANCH  23  25
ENDBRANCH   1  23
BRANCH   3  36
HETATM   36  O3  UNL     1     -11.122  12.551  51.460  1.00  0.00    -0.371 OA
ATOM     37  H3  UNL     1     -12.009  12.319  51.710  1.00  0.00     0.212 HD
ENDBRANCH   3  36
TORSDOF 14
ENDMDL
MODEL 4
REMARK VINA RESULT: -6.969354063      3.064      7.989
REMARK  14 active torsions:
REMARK  status: ('A' for Active; 'I' for Inactive)
REMARK       I    between atoms: C2_2  and  N1_4 
REMARK    1  A    between atoms: N1_4  and  C3_6 
REMARK    2  A    between atoms: C3_6  and  C5_8 
REMARK    3  A    between atoms: C5_8  and  C6_9 
REMARK    4  A    between atoms: C7_10  and  C8_11 
REMARK    5  A    between atoms: C8_11  and  N2_12 
REMARK    6  A    between atoms: N2_12  and  C9_14 
REMARK    7  A    between atoms: C10_16  and  O3_17 
REMARK    8  A    between atoms: C12_20  and  O4_21 
REMARK    9  A    between atoms: O4_21  and  C13_22 
REMARK   10  A    between atoms: C17_26  and  C18_27 
REMARK   11  A    between atoms: C18_27  and  C20_29 
REMARK   12  A    between atoms: C20_29  and  C21_30 
REMARK   13  A    between atoms: C21_30  and  O5_31 
REMARK   14  A    between atoms: C21_30  and  C22_33 
ROOT
HETATM    1  C9  UNL     1     -12.567  12.365  48.417  1.00  0.00     0.249 C 
HETATM    2  O2  UNL     1     -12.008  13.148  49.418  1.00  0.00    -0.335 OA
HETATM    3  C10 UNL     1     -11.056  12.421  50.062  1.00  0.00     0.262 C 
HETATM    4  C11 UNL     1     -10.969  11.052  49.498  1.00  0.00     0.097 C 
HETATM    5  C12 UNL     1     -12.243  10.924  48.697  1.00  0.00     0.175 C 
ENDROOT
BRANCH   5   6
HETATM    6  O4  UNL     1     -13.289  10.414  49.435  1.00  0.00    -0.376 OA
BRANCH   6   7
HETATM    7  C13 UNL     1     -13.836   9.210  48.935  1.00  0.00     0.126 C 
HETATM    8  C14 UNL     1     -13.054   8.837  47.696  1.00  0.00     0.032 C 
HETATM    9  C15 UNL     1     -13.231   7.418  47.291  1.00  0.00     0.003 C 
HETATM   10  C16 UNL     1     -14.403   7.163  46.416  1.00  0.00     0.005 C 
HETATM   11  C17 UNL     1     -15.705   7.381  47.246  1.00  0.00    -0.010 C 
HETATM   12  C23 UNL     1     -15.844   8.815  47.396  1.00  0.00     0.011 C 
HETATM   13  C24 UNL     1     -15.238   9.473  48.597  1.00  0.00     0.011 C 
HETATM   14  C25 UNL     1     -16.125   9.089  49.795  1.00  0.00     0.012 C 
BRANCH  11  15
HETATM   15  C18 UNL     1     -16.794   6.541  46.680  1.00  0.00    -0.012 C 
HETATM   16  C19 UNL     1     -16.327   6.130  45.246  1.00  0.00     0.010 C 
BRANCH  15  17
HETATM   17  C20 UNL     1     -18.142   7.070  46.561  1.00  0.00     0.037 C 
BRANCH  17  18
HETATM   18  C21 UNL     1     -19.088   6.991  47.702  1.00  0.00     0.132 C 
BRANCH  18  19
HETATM   19  O5  UNL     1     -20.409   6.670  47.065  1.00  0.00    -0.394 OA
ATOM     20  H5  UNL     1     -20.193   6.054  46.376  1.00  0.00     0.210 HD
ENDBRANCH  18  19
BRANCH  18  21
HETATM   21  C22 UNL     1     -18.915   5.791  48.616  1.00  0.00     0.146 C 
HETATM   22 CL1  UNL     1     -18.083   6.065  50.093  1.00  0.00    -0.128 Cl
ENDBRANCH  18  21
ENDBRANCH  17  18
ENDBRANCH  15  17
ENDBRANCH  11  15
ENDBRANCH   6   7
ENDBRANCH   5   6
BRANCH   1  23
HETATM   23  N2  UNL     1     -12.245  12.833  47.113  1.00  0.00    -0.392 N 
ATOM     24  H2  UNL     1     -11.985  13.805  46.945  1.00  0.00     0.156 HD
BRANCH  23  25
HETATM   25  C8  UNL     1     -12.303  11.884  46.052  1.00  0.00     0.143 C 
BRANCH  25  26
HETATM   26  C7  UNL     1     -13.727  11.710  45.680  1.00  0.00    -0.012 C 
HETATM   27  C6  UNL     1     -14.207  10.962  44.729  1.00  0.00    -0.027 C 
BRANCH  27  28
HETATM   28  C5  UNL     1     -13.488  10.103  43.790  1.00  0.00     0.051 C 
BRANCH  28  29
HETATM   29  C3  UNL     1     -13.405  10.683  42.382  1.00  0.00     0.083 C 
HETATM   30  C4  UNL     1     -14.492  11.632  42.047  1.00  0.00     0.032 C 
BRANCH  29  31
HETATM   31  N1  UNL     1     -13.230   9.617  41.403  1.00  0.00    -0.357 N 
HETATM   32  C2  UNL     1     -12.648   9.820  40.130  1.00  0.00     0.213 C 
HETATM   33  C1  UNL     1     -12.517   8.667  39.210  1.00  0.00     0.117 C 
HETATM   34  O1  UNL     1     -12.242  10.951  39.770  1.00  0.00    -0.274 OA
ATOM     35  H1  UNL     1     -13.543   8.678  41.648  1.00  0.00     0.162 HD
ENDBRANCH  29  31
ENDBRANCH  28  29
ENDBRANCH  27  28
ENDBRANCH  25  26
ENDBRANCH  23  25
ENDBRANCH   1  23
BRANCH   3  36
HETATM   36  O3  UNL     1     -11.262  12.440  51.444  1.00  0.00    -0.371 OA
ATOM     37  H3  UNL     1     -10.441  12.548  51.909  1.00  0.00     0.212 HD
ENDBRANCH   3  36
TORSDOF 14
ENDMDL
MODEL 5
REMARK VINA RESULT: -6.906526680      3.077      6.016
REMARK  14 active torsions:
REMARK  status: ('A' for Active; 'I' for Inactive)
REMARK       I    between atoms: C2_2  and  N1_4 
REMARK    1  A    between atoms: N1_4  and  C3_6 
REMARK    2  A    between atoms: C3_6  and  C5_8 
REMARK    3  A    between atoms: C5_8  and  C6_9 
REMARK    4  A    between atoms: C7_10  and  C8_11 
REMARK    5  A    between atoms: C8_11  and  N2_12 
REMARK    6  A    between atoms: N2_12  and  C9_14 
REMARK    7  A    between atoms: C10_16  and  O3_17 
REMARK    8  A    between atoms: C12_20  and  O4_21 
REMARK    9  A    between atoms: O4_21  and  C13_22 
REMARK   10  A    between atoms: C17_26  and  C18_27 
REMARK   11  A    between atoms: C18_27  and  C20_29 
REMARK   12  A    between atoms: C20_29  and  C21_30 
REMARK   13  A    between atoms: C21_30  and  O5_31 
REMARK   14  A    between atoms: C21_30  and  C22_33 
ROOT
HETATM    1  C9  UNL     1     -12.173   8.936  43.617  1.00  0.00     0.249 C 
HETATM    2  O2  UNL     1     -11.559   8.456  42.468  1.00  0.00    -0.335 OA
HETATM    3  C10 UNL     1     -12.375   7.537  41.887  1.00  0.00     0.262 C 
HETATM    4  C11 UNL     1     -13.608   7.347  42.688  1.00  0.00     0.097 C 
HETATM    5  C12 UNL     1     -13.260   7.977  44.016  1.00  0.00     0.175 C 
ENDROOT
BRANCH   5   6
HETATM    6  O4  UNL     1     -12.700   7.082  44.902  1.00  0.00    -0.376 OA
BRANCH   6   7
HETATM    7  C13 UNL     1     -13.570   6.635  45.923  1.00  0.00     0.126 C 
HETATM    8  C14 UNL     1     -14.452   5.560  45.330  1.00  0.00     0.032 C 
HETATM    9  C15 UNL     1     -15.129   4.720  46.352  1.00  0.00     0.003 C 
HETATM   10  C16 UNL     1     -16.421   5.261  46.845  1.00  0.00     0.005 C 
HETATM   11  C17 UNL     1     -16.139   6.546  47.681  1.00  0.00    -0.010 C 
HETATM   12  C23 UNL     1     -15.813   7.581  46.721  1.00  0.00     0.011 C 
HETATM   13  C24 UNL     1     -14.378   7.785  46.344  1.00  0.00     0.011 C 
HETATM   14  C25 UNL     1     -13.703   8.456  47.554  1.00  0.00     0.012 C 
BRANCH  11  15
HETATM   15  C18 UNL     1     -17.217   6.723  48.689  1.00  0.00    -0.012 C 
HETATM   16  C19 UNL     1     -16.584   6.362  50.072  1.00  0.00     0.010 C 
BRANCH  15  17
HETATM   17  C20 UNL     1     -18.459   5.976  48.574  1.00  0.00     0.037 C 
BRANCH  17  18
HETATM   18  C21 UNL     1     -19.767   6.677  48.595  1.00  0.00     0.132 C 
BRANCH  18  19
HETATM   19  O5  UNL     1     -20.742   5.656  48.086  1.00  0.00    -0.394 OA
ATOM     20  H5  UNL     1     -21.463   5.692  48.703  1.00  0.00     0.210 HD
ENDBRANCH  18  19
BRANCH  18  21
HETATM   21  C22 UNL     1     -20.341   6.957  49.972  1.00  0.00     0.146 C 
HETATM   22 CL1  UNL     1     -20.789   8.582  50.301  1.00  0.00    -0.128 Cl
ENDBRANCH  18  21
ENDBRANCH  17  18
ENDBRANCH  15  17
ENDBRANCH  11  15
ENDBRANCH   6   7
ENDBRANCH   5   6
BRANCH   1  23
HETATM   23  N2  UNL     1     -12.559  10.300  43.503  1.00  0.00    -0.392 N 
ATOM     24  H2  UNL     1     -11.948  10.991  43.066  1.00  0.00     0.156 HD
BRANCH  23  25
HETATM   25  C8  UNL     1     -13.835  10.659  44.026  1.00  0.00     0.143 C 
BRANCH  25  26
HETATM   26  C7  UNL     1     -13.609  11.524  45.209  1.00  0.00    -0.012 C 
HETATM   27  C6  UNL     1     -14.443  11.765  46.179  1.00  0.00    -0.027 C 
BRANCH  27  28
HETATM   28  C5  UNL     1     -15.801  11.257  46.365  1.00  0.00     0.051 C 
BRANCH  28  29
HETATM   29  C3  UNL     1     -16.472  11.776  47.632  1.00  0.00     0.083 C 
HETATM   30  C4  UNL     1     -16.731  13.234  47.633  1.00  0.00     0.032 C 
BRANCH  29  31
HETATM   31  N1  UNL     1     -15.761  11.303  48.814  1.00  0.00    -0.357 N 
HETATM   32  C2  UNL     1     -16.331  10.424  49.763  1.00  0.00     0.213 C 
HETATM   33  C1  UNL     1     -15.521  10.004  50.929  1.00  0.00     0.117 C 
HETATM   34  O1  UNL     1     -17.503   9.995  49.636  1.00  0.00    -0.274 OA
ATOM     35  H1  UNL     1     -14.804  11.622  48.963  1.00  0.00     0.162 HD
ENDBRANCH  29  31
ENDBRANCH  28  29
ENDBRANCH  27  28
ENDBRANCH  25  26
ENDBRANCH  23  25
ENDBRANCH   1  23
BRANCH   3  36
HETATM   36  O3  UNL     1     -11.688   6.347  41.635  1.00  0.00    -0.371 OA
ATOM     37  H3  UNL     1     -11.994   5.941  40.832  1.00  0.00     0.212 HD
ENDBRANCH   3  36
TORSDOF 14
ENDMDL
