MODEL 1
REMARK VINA RESULT: -7.004686848      0.000      0.000
REMARK  18 active torsions:
REMARK  status: ('A' for Active; 'I' for Inactive)
REMARK    1  A    between atoms: C2_2  and  C3_3 
REMARK    2  A    between atoms: C2_2  and  C13_18 
REMARK    3  A    between atoms: C3_3  and  O1_4 
REMARK    4  A    between atoms: C3_3  and  C4_6 
REMARK    5  A    between atoms: C4_6  and  O2_7 
REMARK    6  A    between atoms: C4_6  and  C5_9 
REMARK    7  A    between atoms: C5_9  and  C6_10 
REMARK    8  A    between atoms: C6_10  and  C7_11 
REMARK    9  A    between atoms: C7_11  and  C8_12 
REMARK   10  A    between atoms: C13_18  and  O4_19 
REMARK   11  A    between atoms: C13_18  and  C14_21 
REMARK   12  A    between atoms: C14_21  and  C17_24 
REMARK   13  A    between atoms: C17_24  and  O5_25 
REMARK   14  A    between atoms: C17_24  and  C18_27 
REMARK   15  A    between atoms: C18_27  and  N1_28 
REMARK   16  A    between atoms: N1_28  and  N2_30 
REMARK   17  A    between atoms: N2_30  and  N3_31 
REMARK   18  A    between atoms: C22_37  and  C23_38 
ROOT
HETATM    1  C14 UNL     1     -12.676   8.302  45.991  1.00  0.00     0.008 C 
HETATM    2  C15 UNL     1     -14.082   8.340  46.461  1.00  0.00     0.020 C 
HETATM    3  C16 UNL     1     -12.188   6.927  46.548  1.00  0.00     0.020 C 
ENDROOT
BRANCH   1   4
HETATM    4  C13 UNL     1     -12.408   8.209  44.528  1.00  0.00     0.134 C 
BRANCH   4   5
HETATM    5  C2  UNL     1     -13.467   8.129  43.524  1.00  0.00     0.042 C 
HETATM    6  C1  UNL     1     -13.038   9.006  42.283  1.00  0.00     0.015 C 
BRANCH   5   7
HETATM    7  C3  UNL     1     -13.528   6.744  42.826  1.00  0.00     0.153 C 
BRANCH   7   8
HETATM    8  O1  UNL     1     -12.279   6.342  42.458  1.00  0.00    -0.393 OA
ATOM      9  H1  UNL     1     -11.973   6.850  41.716  1.00  0.00     0.210 HD
ENDBRANCH   7   8
BRANCH   7  10
HETATM   10  C4  UNL     1     -14.087   5.722  43.786  1.00  0.00     0.147 C 
BRANCH  10  11
HETATM   11  O2  UNL     1     -13.742   4.421  43.399  1.00  0.00    -0.393 OA
ATOM     12  H2  UNL     1     -13.401   3.923  44.133  1.00  0.00     0.210 HD
ENDBRANCH  10  11
BRANCH  10  13
HETATM   13  C5  UNL     1     -15.618   5.761  43.648  1.00  0.00     0.034 C 
BRANCH  13  14
HETATM   14  C6  UNL     1     -16.251   4.945  44.728  1.00  0.00     0.005 C 
BRANCH  14  15
HETATM   15  C7  UNL     1     -15.697   5.132  46.097  1.00  0.00     0.032 C 
BRANCH  15  16
HETATM   16  C8  UNL     1     -16.622   5.635  47.140  1.00  0.00     0.121 C 
HETATM   17  C9  UNL     1     -17.534   6.745  46.661  1.00  0.00     0.032 C 
HETATM   18  C10 UNL     1     -18.637   6.908  47.699  1.00  0.00     0.004 C 
HETATM   19  C11 UNL     1     -18.101   6.934  49.095  1.00  0.00     0.026 C 
HETATM   20  C12 UNL     1     -16.952   6.005  49.333  1.00  0.00     0.168 C 
HETATM   21  O3  UNL     1     -16.003   6.035  48.307  1.00  0.00    -0.386 OA
ENDBRANCH  15  16
ENDBRANCH  14  15
ENDBRANCH  13  14
ENDBRANCH  10  13
ENDBRANCH   7  10
ENDBRANCH   5   7
ENDBRANCH   4   5
BRANCH   4  22
HETATM   22  O4  UNL     1     -11.302   7.436  44.153  1.00  0.00    -0.394 OA
ATOM     23  H4  UNL     1     -10.490   7.906  44.308  1.00  0.00     0.210 HD
ENDBRANCH   4  22
ENDBRANCH   1   4
BRANCH   1  24
HETATM   24  C17 UNL     1     -11.780   9.390  46.503  1.00  0.00     0.166 C 
BRANCH  24  25
HETATM   25  O5  UNL     1     -11.061   8.733  47.561  1.00  0.00    -0.392 OA
ATOM     26  H5  UNL     1     -11.131   9.353  48.277  1.00  0.00     0.210 HD
ENDBRANCH  24  25
BRANCH  24  27
HETATM   27  C18 UNL     1     -12.266  10.629  47.061  1.00  0.00     0.146 C 
HETATM   28  C19 UNL     1     -12.621  10.680  48.496  1.00  0.00     0.044 C 
HETATM   29  C20 UNL     1     -12.726  12.174  48.861  1.00  0.00     0.004 C 
HETATM   30  C21 UNL     1     -14.031  12.668  48.299  1.00  0.00     0.013 C 
HETATM   31  C22 UNL     1     -14.226  12.343  46.858  1.00  0.00     0.072 C 
HETATM   32  C24 UNL     1     -13.250  11.429  46.277  1.00  0.00     0.165 C 
HETATM   33  O6  UNL     1     -13.226  11.306  45.066  1.00  0.00    -0.295 OA
BRANCH  27  34
HETATM   34  N1  UNL     1     -11.063  11.538  46.952  1.00  0.00    -0.233 N 
ATOM     35  H1  UNL     1     -11.080  12.502  47.286  1.00  0.00     0.198 HD
BRANCH  34  36
HETATM   36  N2  UNL     1     -10.075  11.051  46.440  1.00  0.00    -0.247 NA
BRANCH  36  37
HETATM   37  N3  UNL     1      -9.002  10.645  45.997  1.00  0.00    -0.261 N 
ATOM     38  H32 UNL     1      -8.733  10.655  46.981  1.00  0.00     0.193 HD
ATOM     39  H31 UNL     1      -8.159  10.313  45.527  1.00  0.00     0.193 HD
ENDBRANCH  36  37
ENDBRANCH  34  36
ENDBRANCH  27  34
BRANCH  31  40
HETATM   40  C23 UNL     1     -15.616  11.785  46.664  1.00  0.00     0.127 C 
HETATM   41 CL1  UNL     1     -16.846  12.616  47.616  1.00  0.00    -0.130 Cl
ENDBRANCH  31  40
ENDBRANCH  24  27
ENDBRANCH   1  24
TORSDOF 18
ENDMDL
MODEL 2
REMARK VINA RESULT: -6.948754990      4.622      8.362
REMARK  18 active torsions:
REMARK  status: ('A' for Active; 'I' for Inactive)
REMARK    1  A    between atoms: C2_2  and  C3_3 
REMARK    2  A    between atoms: C2_2  and  C13_18 
REMARK    3  A    between atoms: C3_3  and  O1_4 
REMARK    4  A    between atoms: C3_3  and  C4_6 
REMARK    5  A    between atoms: C4_6  and  O2_7 
REMARK    6  A    between atoms: C4_6  and  C5_9 
REMARK    7  A    between atoms: C5_9  and  C6_10 
REMARK    8  A    between atoms: C6_10  and  C7_11 
REMARK    9  A    between atoms: C7_11  and  C8_12 
REMARK   10  A    between atoms: C13_18  and  O4_19 
REMARK   11  A    between atoms: C13_18  and  C14_21 
REMARK   12  A    between atoms: C14_21  and  C17_24 
REMARK   13  A    between atoms: C17_24  and  O5_25 
REMARK   14  A    between atoms: C17_24  and  C18_27 
REMARK   15  A    between atoms: C18_27  and  N1_28 
REMARK   16  A    between atoms: N1_28  and  N2_30 
REMARK   17  A    between atoms: N2_30  and  N3_31 
REMARK   18  A    between atoms: C22_37  and  C23_38 
ROOT
HETATM    1  C14 UNL     1     -18.347   7.490  50.587  1.00  0.00     0.008 C 
HETATM    2  C15 UNL     1     -17.960   6.602  51.711  1.00  0.00     0.020 C 
HETATM    3  C16 UNL     1     -19.044   8.671  51.335  1.00  0.00     0.020 C 
ENDROOT
BRANCH   1   4
HETATM    4  C13 UNL     1     -17.276   8.154  49.792  1.00  0.00     0.134 C 
BRANCH   4   5
HETATM    5  C2  UNL     1     -17.099   7.946  48.356  1.00  0.00     0.042 C 
HETATM    6  C1  UNL     1     -16.622   9.308  47.715  1.00  0.00     0.015 C 
BRANCH   5   7
HETATM    7  C3  UNL     1     -15.855   7.079  48.025  1.00  0.00     0.153 C 
BRANCH   7   8
HETATM    8  O1  UNL     1     -15.714   6.081  48.942  1.00  0.00    -0.393 OA
ATOM      9  H1  UNL     1     -15.218   5.360  48.573  1.00  0.00     0.210 HD
ENDBRANCH   7   8
BRANCH   7  10
HETATM   10  C4  UNL     1     -16.030   6.447  46.665  1.00  0.00     0.147 C 
BRANCH  10  11
HETATM   11  O2  UNL     1     -17.325   5.943  46.504  1.00  0.00    -0.393 OA
ATOM     12  H2  UNL     1     -17.808   6.438  45.852  1.00  0.00     0.210 HD
ENDBRANCH  10  11
BRANCH  10  13
HETATM   13  C5  UNL     1     -15.133   5.198  46.628  1.00  0.00     0.034 C 
BRANCH  13  14
HETATM   14  C6  UNL     1     -13.941   5.449  45.761  1.00  0.00     0.005 C 
BRANCH  14  15
HETATM   15  C7  UNL     1     -14.181   5.401  44.293  1.00  0.00     0.032 C 
BRANCH  15  16
HETATM   16  C8  UNL     1     -13.677   6.538  43.486  1.00  0.00     0.121 C 
HETATM   17  C9  UNL     1     -13.801   7.879  44.179  1.00  0.00     0.032 C 
HETATM   18  C10 UNL     1     -12.943   8.872  43.406  1.00  0.00     0.004 C 
HETATM   19  C11 UNL     1     -13.154   8.774  41.930  1.00  0.00     0.026 C 
HETATM   20  C12 UNL     1     -13.359   7.379  41.426  1.00  0.00     0.168 C 
HETATM   21  O3  UNL     1     -14.229   6.631  42.225  1.00  0.00    -0.386 OA
ENDBRANCH  15  16
ENDBRANCH  14  15
ENDBRANCH  13  14
ENDBRANCH  10  13
ENDBRANCH   7  10
ENDBRANCH   5   7
ENDBRANCH   4   5
BRANCH   4  22
HETATM   22  O4  UNL     1     -16.040   8.309  50.432  1.00  0.00    -0.394 OA
ATOM     23  H4  UNL     1     -15.909   7.632  51.086  1.00  0.00     0.210 HD
ENDBRANCH   4  22
ENDBRANCH   1   4
BRANCH   1  24
HETATM   24  C17 UNL     1     -19.299   6.907  49.585  1.00  0.00     0.166 C 
BRANCH  24  25
HETATM   25  O5  UNL     1     -20.404   7.826  49.630  1.00  0.00    -0.392 OA
ATOM     26  H5  UNL     1     -21.151   7.248  49.729  1.00  0.00     0.210 HD
ENDBRANCH  24  25
BRANCH  24  27
HETATM   27  C18 UNL     1     -19.872   5.588  49.700  1.00  0.00     0.146 C 
HETATM   28  C19 UNL     1     -20.914   5.344  50.721  1.00  0.00     0.044 C 
HETATM   29  C20 UNL     1     -21.579   4.005  50.348  1.00  0.00     0.004 C 
HETATM   30  C21 UNL     1     -20.622   2.917  50.754  1.00  0.00     0.013 C 
HETATM   31  C22 UNL     1     -19.236   3.113  50.240  1.00  0.00     0.072 C 
HETATM   32  C24 UNL     1     -18.967   4.406  49.622  1.00  0.00     0.165 C 
HETATM   33  O6  UNL     1     -17.934   4.538  48.992  1.00  0.00    -0.295 OA
BRANCH  27  34
HETATM   34  N1  UNL     1     -20.605   5.428  48.387  1.00  0.00    -0.233 N 
ATOM     35  H1  UNL     1     -21.312   4.706  48.247  1.00  0.00     0.198 HD
BRANCH  34  36
HETATM   36  N2  UNL     1     -20.300   6.210  47.511  1.00  0.00    -0.247 NA
BRANCH  36  37
HETATM   37  N3  UNL     1     -19.977   6.895  46.541  1.00  0.00    -0.261 N 
ATOM     38  H32 UNL     1     -20.975   6.859  46.339  1.00  0.00     0.193 HD
ATOM     39  H31 UNL     1     -19.602   7.456  45.775  1.00  0.00     0.193 HD
ENDBRANCH  36  37
ENDBRANCH  34  36
ENDBRANCH  27  34
BRANCH  31  40
HETATM   40  C23 UNL     1     -18.258   2.880  51.366  1.00  0.00     0.127 C 
HETATM   41 CL1  UNL     1     -18.915   3.261  52.958  1.00  0.00    -0.130 Cl
ENDBRANCH  31  40
ENDBRANCH  24  27
ENDBRANCH   1  24
TORSDOF 18
ENDMDL
MODEL 3
REMARK VINA RESULT: -6.823363350      2.677      4.737
REMARK  18 active torsions:
REMARK  status: ('A' for Active; 'I' for Inactive)
REMARK    1  A    between atoms: C2_2  and  C3_3 
REMARK    2  A    between atoms: C2_2  and  C13_18 
REMARK    3  A    between atoms: C3_3  and  O1_4 
REMARK    4  A    between atoms: C3_3  and  C4_6 
REMARK    5  A    between atoms: C4_6  and  O2_7 
REMARK    6  A    between atoms: C4_6  and  C5_9 
REMARK    7  A    between atoms: C5_9  and  C6_10 
REMARK    8  A    between atoms: C6_10  and  C7_11 
REMARK    9  A    between atoms: C7_11  and  C8_12 
REMARK   10  A    between atoms: C13_18  and  O4_19 
REMARK   11  A    between atoms: C13_18  and  C14_21 
REMARK   12  A    between atoms: C14_21  and  C17_24 
REMARK   13  A    between atoms: C17_24  and  O5_25 
REMARK   14  A    between atoms: C17_24  and  C18_27 
REMARK   15  A    between atoms: C18_27  and  N1_28 
REMARK   16  A    between atoms: N1_28  and  N2_30 
REMARK   17  A    between atoms: N2_30  and  N3_31 
REMARK   18  A    between atoms: C22_37  and  C23_38 
ROOT
HETATM    1  C14 UNL     1     -12.439   8.751  49.063  1.00  0.00     0.008 C 
HETATM    2  C15 UNL     1     -13.886   8.982  49.292  1.00  0.00     0.020 C 
HETATM    3  C16 UNL     1     -11.910   8.547  50.517  1.00  0.00     0.020 C 
ENDROOT
BRANCH   1   4
HETATM    4  C13 UNL     1     -12.012   7.513  48.352  1.00  0.00     0.134 C 
BRANCH   4   5
HETATM    5  C2  UNL     1     -11.293   7.528  47.079  1.00  0.00     0.042 C 
HETATM    6  C1  UNL     1     -10.277   6.319  47.071  1.00  0.00     0.015 C 
BRANCH   5   7
HETATM    7  C3  UNL     1     -12.183   7.097  45.883  1.00  0.00     0.153 C 
BRANCH   7   8
HETATM    8  O1  UNL     1     -13.447   7.583  46.032  1.00  0.00    -0.393 OA
ATOM      9  H1  UNL     1     -13.947   7.455  45.234  1.00  0.00     0.210 HD
ENDBRANCH   7   8
BRANCH   7  10
HETATM   10  C4  UNL     1     -11.612   7.657  44.603  1.00  0.00     0.147 C 
BRANCH  10  11
HETATM   11  O2  UNL     1     -11.363   9.030  44.718  1.00  0.00    -0.393 OA
ATOM     12  H2  UNL     1     -10.487   9.195  45.045  1.00  0.00     0.210 HD
ENDBRANCH  10  11
BRANCH  10  13
HETATM   13  C5  UNL     1     -12.715   7.564  43.536  1.00  0.00     0.034 C 
BRANCH  13  14
HETATM   14  C6  UNL     1     -12.109   7.291  42.196  1.00  0.00     0.005 C 
BRANCH  14  15
HETATM   15  C7  UNL     1     -12.002   8.458  41.279  1.00  0.00     0.032 C 
BRANCH  15  16
HETATM   16  C8  UNL     1     -12.897   9.611  41.541  1.00  0.00     0.121 C 
HETATM   17  C9  UNL     1     -13.493  10.217  40.288  1.00  0.00     0.032 C 
HETATM   18  C10 UNL     1     -14.633  11.128  40.722  1.00  0.00     0.004 C 
HETATM   19  C11 UNL     1     -14.249  12.011  41.866  1.00  0.00     0.026 C 
HETATM   20  C12 UNL     1     -13.359  11.359  42.877  1.00  0.00     0.168 C 
HETATM   21  O3  UNL     1     -12.327  10.614  42.299  1.00  0.00    -0.386 OA
ENDBRANCH  15  16
ENDBRANCH  14  15
ENDBRANCH  13  14
ENDBRANCH  10  13
ENDBRANCH   7  10
ENDBRANCH   5   7
ENDBRANCH   4   5
BRANCH   4  22
HETATM   22  O4  UNL     1     -12.898   6.430  48.414  1.00  0.00    -0.394 OA
ATOM     23  H4  UNL     1     -13.798   6.722  48.327  1.00  0.00     0.210 HD
ENDBRANCH   4  22
ENDBRANCH   1   4
BRANCH   1  24
HETATM   24  C17 UNL     1     -11.687   9.875  48.415  1.00  0.00     0.166 C 
BRANCH  24  25
HETATM   25  O5  UNL     1     -10.653  10.155  49.375  1.00  0.00    -0.392 OA
ATOM     26  H5  UNL     1      -9.866  10.145  48.843  1.00  0.00     0.210 HD
ENDBRANCH  24  25
BRANCH  24  27
HETATM   27  C18 UNL     1     -12.279  11.148  48.084  1.00  0.00     0.146 C 
HETATM   28  C19 UNL     1     -12.626  12.084  49.175  1.00  0.00     0.044 C 
HETATM   29  C20 UNL     1     -12.865  13.454  48.509  1.00  0.00     0.004 C 
HETATM   30  C21 UNL     1     -14.215  13.385  47.849  1.00  0.00     0.013 C 
HETATM   31  C22 UNL     1     -14.391  12.200  46.963  1.00  0.00     0.072 C 
HETATM   32  C24 UNL     1     -13.340  11.192  47.037  1.00  0.00     0.165 C 
HETATM   33  O6  UNL     1     -13.315  10.323  46.185  1.00  0.00    -0.295 OA
BRANCH  27  34
HETATM   34  N1  UNL     1     -11.166  11.851  47.341  1.00  0.00    -0.233 N 
ATOM     35  H1  UNL     1     -11.104  12.869  47.295  1.00  0.00     0.198 HD
BRANCH  34  36
HETATM   36  N2  UNL     1     -10.352  11.131  46.801  1.00  0.00    -0.247 NA
BRANCH  36  37
HETATM   37  N3  UNL     1      -9.435  10.499  46.277  1.00  0.00    -0.261 N 
ATOM     38  H32 UNL     1      -9.378  11.321  45.676  1.00  0.00     0.193 HD
ATOM     39  H31 UNL     1      -8.697   9.893  45.918  1.00  0.00     0.193 HD
ENDBRANCH  36  37
ENDBRANCH  34  36
ENDBRANCH  27  34
BRANCH  31  40
HETATM   40  C23 UNL     1     -15.725  11.558  47.263  1.00  0.00     0.127 C 
HETATM   41 CL1  UNL     1     -16.962  12.710  47.764  1.00  0.00    -0.130 Cl
ENDBRANCH  31  40
ENDBRANCH  24  27
ENDBRANCH   1  24
TORSDOF 18
ENDMDL
MODEL 4
REMARK VINA RESULT: -6.697387993      2.049      4.534
REMARK  18 active torsions:
REMARK  status: ('A' for Active; 'I' for Inactive)
REMARK    1  A    between atoms: C2_2  and  C3_3 
REMARK    2  A    between atoms: C2_2  and  C13_18 
REMARK    3  A    between atoms: C3_3  and  O1_4 
REMARK    4  A    between atoms: C3_3  and  C4_6 
REMARK    5  A    between atoms: C4_6  and  O2_7 
REMARK    6  A    between atoms: C4_6  and  C5_9 
REMARK    7  A    between atoms: C5_9  and  C6_10 
REMARK    8  A    between atoms: C6_10  and  C7_11 
REMARK    9  A    between atoms: C7_11  and  C8_12 
REMARK   10  A    between atoms: C13_18  and  O4_19 
REMARK   11  A    between atoms: C13_18  and  C14_21 
REMARK   12  A    between atoms: C14_21  and  C17_24 
REMARK   13  A    between atoms: C17_24  and  O5_25 
REMARK   14  A    between atoms: C17_24  and  C18_27 
REMARK   15  A    between atoms: C18_27  and  N1_28 
REMARK   16  A    between atoms: N1_28  and  N2_30 
REMARK   17  A    between atoms: N2_30  and  N3_31 
REMARK   18  A    between atoms: C22_37  and  C23_38 
ROOT
HETATM    1  C14 UNL     1     -13.470   8.015  48.114  1.00  0.00     0.008 C 
HETATM    2  C15 UNL     1     -14.264   8.619  49.211  1.00  0.00     0.020 C 
HETATM    3  C16 UNL     1     -12.691   6.888  48.862  1.00  0.00     0.020 C 
ENDROOT
BRANCH   1   4
HETATM    4  C13 UNL     1     -14.183   7.291  47.023  1.00  0.00     0.134 C 
BRANCH   4   5
HETATM    5  C2  UNL     1     -13.499   6.688  45.881  1.00  0.00     0.042 C 
HETATM    6  C1  UNL     1     -13.962   5.184  45.765  1.00  0.00     0.015 C 
BRANCH   5   7
HETATM    7  C3  UNL     1     -14.034   7.208  44.520  1.00  0.00     0.153 C 
BRANCH   7   8
HETATM    8  O1  UNL     1     -13.891   8.559  44.436  1.00  0.00    -0.393 OA
ATOM      9  H1  UNL     1     -14.740   8.979  44.362  1.00  0.00     0.210 HD
ENDBRANCH   7   8
BRANCH   7  10
HETATM   10  C4  UNL     1     -13.244   6.581  43.397  1.00  0.00     0.147 C 
BRANCH  10  11
HETATM   11  O2  UNL     1     -11.886   6.903  43.492  1.00  0.00    -0.393 OA
ATOM     12  H2  UNL     1     -11.514   6.589  44.308  1.00  0.00     0.210 HD
ENDBRANCH  10  11
BRANCH  10  13
HETATM   13  C5  UNL     1     -13.699   7.255  42.092  1.00  0.00     0.034 C 
BRANCH  13  14
HETATM   14  C6  UNL     1     -12.545   7.381  41.150  1.00  0.00     0.005 C 
BRANCH  14  15
HETATM   15  C7  UNL     1     -12.176   8.766  40.752  1.00  0.00     0.032 C 
BRANCH  15  16
HETATM   16  C8  UNL     1     -12.998   9.871  41.301  1.00  0.00     0.121 C 
HETATM   17  C9  UNL     1     -13.727  10.672  40.243  1.00  0.00     0.032 C 
HETATM   18  C10 UNL     1     -14.778  11.514  40.954  1.00  0.00     0.004 C 
HETATM   19  C11 UNL     1     -14.231  12.202  42.163  1.00  0.00     0.026 C 
HETATM   20  C12 UNL     1     -13.242  11.391  42.940  1.00  0.00     0.168 C 
HETATM   21  O3  UNL     1     -12.311  10.737  42.127  1.00  0.00    -0.386 OA
ENDBRANCH  15  16
ENDBRANCH  14  15
ENDBRANCH  13  14
ENDBRANCH  10  13
ENDBRANCH   7  10
ENDBRANCH   5   7
ENDBRANCH   4   5
BRANCH   4  22
HETATM   22  O4  UNL     1     -15.424   7.818  46.643  1.00  0.00    -0.394 OA
ATOM     23  H4  UNL     1     -15.962   7.155  46.226  1.00  0.00     0.210 HD
ENDBRANCH   4  22
ENDBRANCH   1   4
BRANCH   1  24
HETATM   24  C17 UNL     1     -12.493   8.925  47.430  1.00  0.00     0.166 C 
BRANCH  24  25
HETATM   25  O5  UNL     1     -11.234   8.505  47.984  1.00  0.00    -0.392 OA
ATOM     26  H5  UNL     1     -10.613   8.773  47.316  1.00  0.00     0.210 HD
ENDBRANCH  24  25
BRANCH  24  27
HETATM   27  C18 UNL     1     -12.521  10.362  47.548  1.00  0.00     0.146 C 
HETATM   28  C19 UNL     1     -12.023  10.991  48.790  1.00  0.00     0.044 C 
HETATM   29  C20 UNL     1     -11.826  12.486  48.468  1.00  0.00     0.004 C 
HETATM   30  C21 UNL     1     -13.196  13.109  48.447  1.00  0.00     0.013 C 
HETATM   31  C22 UNL     1     -14.171  12.387  47.582  1.00  0.00     0.072 C 
HETATM   32  C24 UNL     1     -13.729  11.095  47.071  1.00  0.00     0.165 C 
HETATM   33  O6  UNL     1     -14.385  10.570  46.189  1.00  0.00    -0.295 OA
BRANCH  27  34
HETATM   34  N1  UNL     1     -11.531  10.803  46.494  1.00  0.00    -0.233 N 
ATOM     35  H1  UNL     1     -11.083  11.720  46.520  1.00  0.00     0.198 HD
BRANCH  34  36
HETATM   36  N2  UNL     1     -11.301   9.999  45.614  1.00  0.00    -0.247 NA
BRANCH  36  37
HETATM   37  N3  UNL     1     -10.967   9.267  44.683  1.00  0.00    -0.261 N 
ATOM     38  H32 UNL     1     -10.852   8.580  45.428  1.00  0.00     0.193 HD
ATOM     39  H31 UNL     1     -10.707   8.748  43.844  1.00  0.00     0.193 HD
ENDBRANCH  36  37
ENDBRANCH  34  36
ENDBRANCH  27  34
BRANCH  31  40
HETATM   40  C23 UNL     1     -15.465  12.213  48.341  1.00  0.00     0.127 C 
HETATM   41 CL1  UNL     1     -16.826  13.068  47.617  1.00  0.00    -0.130 Cl
ENDBRANCH  31  40
ENDBRANCH  24  27
ENDBRANCH   1  24
TORSDOF 18
ENDMDL
MODEL 5
REMARK VINA RESULT: -6.646208725      1.874      4.517
REMARK  18 active torsions:
REMARK  status: ('A' for Active; 'I' for Inactive)
REMARK    1  A    between atoms: C2_2  and  C3_3 
REMARK    2  A    between atoms: C2_2  and  C13_18 
REMARK    3  A    between atoms: C3_3  and  O1_4 
REMARK    4  A    between atoms: C3_3  and  C4_6 
REMARK    5  A    between atoms: C4_6  and  O2_7 
REMARK    6  A    between atoms: C4_6  and  C5_9 
REMARK    7  A    between atoms: C5_9  and  C6_10 
REMARK    8  A    between atoms: C6_10  and  C7_11 
REMARK    9  A    between atoms: C7_11  and  C8_12 
REMARK   10  A    between atoms: C13_18  and  O4_19 
REMARK   11  A    between atoms: C13_18  and  C14_21 
REMARK   12  A    between atoms: C14_21  and  C17_24 
REMARK   13  A    between atoms: C17_24  and  O5_25 
REMARK   14  A    between atoms: C17_24  and  C18_27 
REMARK   15  A    between atoms: C18_27  and  N1_28 
REMARK   16  A    between atoms: N1_28  and  N2_30 
REMARK   17  A    between atoms: N2_30  and  N3_31 
REMARK   18  A    between atoms: C22_37  and  C23_38 
ROOT
HETATM    1  C14 UNL     1     -12.558   8.367  48.316  1.00  0.00     0.008 C 
HETATM    2  C15 UNL     1     -13.637   8.525  49.321  1.00  0.00     0.020 C 
HETATM    3  C16 UNL     1     -11.618   7.333  49.012  1.00  0.00     0.020 C 
ENDROOT
BRANCH   1   4
HETATM    4  C13 UNL     1     -12.881   7.730  47.008  1.00  0.00     0.134 C 
BRANCH   4   5
HETATM    5  C2  UNL     1     -13.935   6.730  46.842  1.00  0.00     0.042 C 
HETATM    6  C1  UNL     1     -15.265   7.477  46.437  1.00  0.00     0.015 C 
BRANCH   5   7
HETATM    7  C3  UNL     1     -13.747   5.869  45.564  1.00  0.00     0.153 C 
BRANCH   7   8
HETATM    8  O1  UNL     1     -13.347   4.610  45.893  1.00  0.00    -0.393 OA
ATOM      9  H1  UNL     1     -12.435   4.481  45.662  1.00  0.00     0.210 HD
ENDBRANCH   7   8
BRANCH   7  10
HETATM   10  C4  UNL     1     -15.062   5.768  44.829  1.00  0.00     0.147 C 
BRANCH  10  11
HETATM   11  O2  UNL     1     -15.549   4.456  44.842  1.00  0.00    -0.393 OA
ATOM     12  H2  UNL     1     -15.498   4.062  43.979  1.00  0.00     0.210 HD
ENDBRANCH  10  11
BRANCH  10  13
HETATM   13  C5  UNL     1     -14.773   6.046  43.344  1.00  0.00     0.034 C 
BRANCH  13  14
HETATM   14  C6  UNL     1     -13.479   6.782  43.204  1.00  0.00     0.005 C 
BRANCH  14  15
HETATM   15  C7  UNL     1     -13.583   8.254  43.014  1.00  0.00     0.032 C 
BRANCH  15  16
HETATM   16  C8  UNL     1     -13.380   8.777  41.642  1.00  0.00     0.121 C 
HETATM   17  C9  UNL     1     -12.472   7.917  40.790  1.00  0.00     0.032 C 
HETATM   18  C10 UNL     1     -12.640   8.369  39.345  1.00  0.00     0.004 C 
HETATM   19  C11 UNL     1     -12.599   9.857  39.209  1.00  0.00     0.026 C 
HETATM   20  C12 UNL     1     -13.260  10.598  40.329  1.00  0.00     0.168 C 
HETATM   21  O3  UNL     1     -12.941  10.085  41.589  1.00  0.00    -0.386 OA
ENDBRANCH  15  16
ENDBRANCH  14  15
ENDBRANCH  13  14
ENDBRANCH  10  13
ENDBRANCH   7  10
ENDBRANCH   5   7
ENDBRANCH   4   5
BRANCH   4  22
HETATM   22  O4  UNL     1     -11.792   7.453  46.172  1.00  0.00    -0.394 OA
ATOM     23  H4  UNL     1     -10.983   7.787  46.545  1.00  0.00     0.210 HD
ENDBRANCH   4  22
ENDBRANCH   1   4
BRANCH   1  24
HETATM   24  C17 UNL     1     -11.777   9.604  47.987  1.00  0.00     0.166 C 
BRANCH  24  25
HETATM   25  O5  UNL     1     -10.881   9.717  49.107  1.00  0.00    -0.392 OA
ATOM     26  H5  UNL     1     -11.013  10.614  49.389  1.00  0.00     0.210 HD
ENDBRANCH  24  25
BRANCH  24  27
HETATM   27  C18 UNL     1     -12.375  10.907  47.823  1.00  0.00     0.146 C 
HETATM   28  C19 UNL     1     -12.826  11.647  49.021  1.00  0.00     0.044 C 
HETATM   29  C20 UNL     1     -13.048  13.104  48.570  1.00  0.00     0.004 C 
HETATM   30  C21 UNL     1     -14.342  13.129  47.804  1.00  0.00     0.013 C 
HETATM   31  C22 UNL     1     -14.421  12.103  46.725  1.00  0.00     0.072 C 
HETATM   32  C24 UNL     1     -13.354  11.110  46.716  1.00  0.00     0.165 C 
HETATM   33  O6  UNL     1     -13.243  10.393  45.739  1.00  0.00    -0.295 OA
BRANCH  27  34
HETATM   34  N1  UNL     1     -11.226  11.737  47.294  1.00  0.00    -0.233 N 
ATOM     35  H1  UNL     1     -11.204  12.752  47.388  1.00  0.00     0.198 HD
BRANCH  34  36
HETATM   36  N2  UNL     1     -10.333  11.119  46.751  1.00  0.00    -0.247 NA
BRANCH  36  37
HETATM   37  N3  UNL     1      -9.346  10.597  46.235  1.00  0.00    -0.261 N 
ATOM     38  H32 UNL     1      -9.324  11.461  45.694  1.00  0.00     0.193 HD
ATOM     39  H31 UNL     1      -8.545  10.075  45.877  1.00  0.00     0.193 HD
ENDBRANCH  36  37
ENDBRANCH  34  36
ENDBRANCH  27  34
BRANCH  31  40
HETATM   40  C23 UNL     1     -15.757  11.405  46.810  1.00  0.00     0.127 C 
HETATM   41 CL1  UNL     1     -16.859  12.134  47.978  1.00  0.00    -0.130 Cl
ENDBRANCH  31  40
ENDBRANCH  24  27
ENDBRANCH   1  24
TORSDOF 18
ENDMDL
