MODEL 1
REMARK VINA RESULT: -7.308068064      0.000      0.000
REMARK  14 active torsions:
REMARK  status: ('A' for Active; 'I' for Inactive)
REMARK    1  A    between atoms: C2_2  and  C3_3 
REMARK    2  A    between atoms: C3_3  and  C4_4 
REMARK    3  A    between atoms: C4_4  and  C5_5 
REMARK    4  A    between atoms: C6_8  and  C7_9 
REMARK    5  A    between atoms: C7_9  and  O1_10 
REMARK    6  A    between atoms: C7_9  and  C8_12 
REMARK    7  A    between atoms: C8_12  and  N2_13 
REMARK    8  A    between atoms: N2_13  and  C9_16 
REMARK    9  A    between atoms: C14_21  and  C15_22 
REMARK   10  A    between atoms: C15_22  and  N3_23 
REMARK   11  A    between atoms: N3_23  and  C16_25 
REMARK   12  A    between atoms: C16_25  and  C17_26 
REMARK   13  A    between atoms: C17_26  and  C18_27 
REMARK   14  A    between atoms: C18_27  and  N4_28 
ROOT
HETATM    1  C9  UNL     1      79.324  10.743  -5.565  1.00  0.00     0.190 C 
HETATM    2  C10 UNL     1      78.037  10.392  -6.297  1.00  0.00     0.058 C 
HETATM    3  C11 UNL     1      77.812   8.989  -5.866  1.00  0.00     0.085 C 
HETATM    4  C12 UNL     1      76.595   8.243  -6.039  1.00  0.00     0.026 C 
HETATM    5  C13 UNL     1      76.766   6.971  -5.169  1.00  0.00     0.012 C 
HETATM    6  C14 UNL     1      78.115   6.457  -5.035  1.00  0.00     0.025 C 
HETATM    7  C23 UNL     1      79.156   7.348  -4.397  1.00  0.00     0.035 C 
HETATM    8  C24 UNL     1      79.884   8.228  -5.439  1.00  0.00     0.086 C 
HETATM    9  C25 UNL     1      80.096   9.632  -4.994  1.00  0.00     0.058 C 
HETATM   10  N5  UNL     1      78.902   8.257  -6.457  1.00  0.00    -0.390 N 
HETATM   11  C26 UNL     1      79.198   8.296  -7.764  1.00  0.00     0.116 C 
ENDROOT
BRANCH   1  12
HETATM   12  N2  UNL     1      80.101  11.778  -6.269  1.00  0.00    -0.065 N 
ATOM     13  H22 UNL     1      80.793  11.402  -6.918  1.00  0.00     0.278 HD
ATOM     14  H21 UNL     1      80.758  12.277  -5.671  1.00  0.00     0.278 HD
BRANCH  12  15
HETATM   15  C8  UNL     1      79.120  12.631  -6.895  1.00  0.00     0.299 C 
BRANCH  15  16
HETATM   16  C7  UNL     1      79.442  14.045  -7.069  1.00  0.00     0.095 C 
BRANCH  16  17
HETATM   17  C6  UNL     1      80.529  14.452  -7.957  1.00  0.00     0.065 A 
HETATM   18  N1  UNL     1      81.289  15.552  -7.995  1.00  0.00    -0.356 N 
HETATM   19  C5  UNL     1      82.190  15.509  -8.977  1.00  0.00     0.031 A 
ATOM     20  H1  UNL     1      81.191  16.334  -7.346  1.00  0.00     0.166 HD
HETATM   21  C28 UNL     1      82.016  14.298  -9.634  1.00  0.00     0.058 A 
HETATM   22  C27 UNL     1      80.990  13.654  -8.997  1.00  0.00     0.058 A 
HETATM   23 CL1  UNL     1      82.936  13.717 -11.001  1.00  0.00    -0.082 Cl
BRANCH  19  24
HETATM   24  C4  UNL     1      83.221  16.482  -9.422  1.00  0.00     0.059 C 
BRANCH  24  25
HETATM   25  C3  UNL     1      82.624  17.467 -10.381  1.00  0.00     0.006 C 
BRANCH  25  26
HETATM   26  C2  UNL     1      83.362  18.781 -10.410  1.00  0.00    -0.004 C 
HETATM   27  C1  UNL     1      84.686  18.696  -9.665  1.00  0.00     0.005 C 
ENDBRANCH  25  26
ENDBRANCH  24  25
ENDBRANCH  19  24
ENDBRANCH  16  17
BRANCH  16  28
HETATM   28  O1  UNL     1      79.444  14.789  -5.876  1.00  0.00    -0.361 OA
ATOM     29  H1  UNL     1      78.632  14.678  -5.394  1.00  0.00     0.217 HD
ENDBRANCH  16  28
ENDBRANCH  15  16
ENDBRANCH  12  15
ENDBRANCH   1  12
BRANCH   6  30
HETATM   30  C15 UNL     1      78.152   5.145  -4.292  1.00  0.00     0.060 C 
BRANCH  30  31
HETATM   31  N3  UNL     1      79.300   4.814  -3.576  1.00  0.00    -0.402 N 
ATOM     32  H3  UNL     1      80.179   4.716  -4.083  1.00  0.00     0.158 HD
BRANCH  31  33
HETATM   33  C16 UNL     1      79.302   4.610  -2.194  1.00  0.00     0.120 C 
BRANCH  33  34
HETATM   34  C17 UNL     1      79.377   5.935  -1.389  1.00  0.00     0.039 C 
BRANCH  34  35
HETATM   35  C18 UNL     1      78.489   5.799  -0.170  1.00  0.00     0.123 C 
BRANCH  35  36
HETATM   36  N4  UNL     1      77.109   5.944  -0.470  1.00  0.00    -0.389 N 
HETATM   37  C19 UNL     1      76.703   6.903  -1.418  1.00  0.00     0.084 C 
HETATM   38  C20 UNL     1      75.319   7.426  -1.040  1.00  0.00     0.212 C 
HETATM   39  O2  UNL     1      75.346   7.914   0.270  1.00  0.00    -0.385 OA
HETATM   40  C21 UNL     1      75.714   6.973   1.207  1.00  0.00     0.187 C 
HETATM   41  C22 UNL     1      76.209   5.686   0.617  1.00  0.00     0.148 C 
ENDBRANCH  35  36
ENDBRANCH  34  35
ENDBRANCH  33  34
ENDBRANCH  31  33
ENDBRANCH  30  31
ENDBRANCH   6  30
TORSDOF 14
ENDMDL
MODEL 2
REMARK VINA RESULT: -7.288876466      3.185      4.566
REMARK  14 active torsions:
REMARK  status: ('A' for Active; 'I' for Inactive)
REMARK    1  A    between atoms: C2_2  and  C3_3 
REMARK    2  A    between atoms: C3_3  and  C4_4 
REMARK    3  A    between atoms: C4_4  and  C5_5 
REMARK    4  A    between atoms: C6_8  and  C7_9 
REMARK    5  A    between atoms: C7_9  and  O1_10 
REMARK    6  A    between atoms: C7_9  and  C8_12 
REMARK    7  A    between atoms: C8_12  and  N2_13 
REMARK    8  A    between atoms: N2_13  and  C9_16 
REMARK    9  A    between atoms: C14_21  and  C15_22 
REMARK   10  A    between atoms: C15_22  and  N3_23 
REMARK   11  A    between atoms: N3_23  and  C16_25 
REMARK   12  A    between atoms: C16_25  and  C17_26 
REMARK   13  A    between atoms: C17_26  and  C18_27 
REMARK   14  A    between atoms: C18_27  and  N4_28 
ROOT
HETATM    1  C9  UNL     1      79.477  10.641  -5.219  1.00  0.00     0.190 C 
HETATM    2  C10 UNL     1      78.503   9.767  -5.994  1.00  0.00     0.058 C 
HETATM    3  C11 UNL     1      78.463   8.538  -5.161  1.00  0.00     0.085 C 
HETATM    4  C12 UNL     1      77.498   7.478  -5.275  1.00  0.00     0.026 C 
HETATM    5  C13 UNL     1      77.702   6.601  -4.012  1.00  0.00     0.012 C 
HETATM    6  C14 UNL     1      79.053   6.524  -3.491  1.00  0.00     0.025 C 
HETATM    7  C23 UNL     1      79.709   7.803  -3.025  1.00  0.00     0.035 C 
HETATM    8  C24 UNL     1      80.478   8.511  -4.164  1.00  0.00     0.086 C 
HETATM    9  C25 UNL     1      80.293   9.987  -4.187  1.00  0.00     0.058 C 
HETATM   10  N5  UNL     1      79.787   7.986  -5.282  1.00  0.00    -0.390 N 
HETATM   11  C26 UNL     1      80.377   7.727  -6.457  1.00  0.00     0.116 C 
ENDROOT
BRANCH   1  12
HETATM   12  N2  UNL     1      80.180  11.600  -6.089  1.00  0.00    -0.065 N 
ATOM     13  H22 UNL     1      80.818  11.161  -6.752  1.00  0.00     0.278 HD
ATOM     14  H21 UNL     1      80.880  12.159  -5.603  1.00  0.00     0.278 HD
BRANCH  12  15
HETATM   15  C8  UNL     1      79.140  12.382  -6.712  1.00  0.00     0.299 C 
BRANCH  15  16
HETATM   16  C7  UNL     1      79.409  13.789  -6.999  1.00  0.00     0.095 C 
BRANCH  16  17
HETATM   17  C6  UNL     1      80.499  14.165  -7.896  1.00  0.00     0.065 A 
HETATM   18  N1  UNL     1      81.188  15.302  -8.039  1.00  0.00    -0.356 N 
HETATM   19  C5  UNL     1      82.125  15.208  -8.984  1.00  0.00     0.031 A 
ATOM     20  H1  UNL     1      81.017  16.144  -7.488  1.00  0.00     0.166 HD
HETATM   21  C28 UNL     1      82.053  13.922  -9.501  1.00  0.00     0.058 A 
HETATM   22  C27 UNL     1      81.047  13.286  -8.824  1.00  0.00     0.058 A 
HETATM   23 CL1  UNL     1      83.057  13.253 -10.764  1.00  0.00    -0.082 Cl
BRANCH  19  24
HETATM   24  C4  UNL     1      83.108  16.193  -9.508  1.00  0.00     0.059 C 
BRANCH  24  25
HETATM   25  C3  UNL     1      82.401  17.277 -10.265  1.00  0.00     0.006 C 
BRANCH  25  26
HETATM   26  C2  UNL     1      83.230  18.527 -10.412  1.00  0.00    -0.004 C 
HETATM   27  C1  UNL     1      84.567  18.400  -9.696  1.00  0.00     0.005 C 
ENDBRANCH  25  26
ENDBRANCH  24  25
ENDBRANCH  19  24
ENDBRANCH  16  17
BRANCH  16  28
HETATM   28  O1  UNL     1      79.352  14.630  -5.873  1.00  0.00    -0.361 OA
ATOM     29  H1  UNL     1      78.511  15.063  -5.803  1.00  0.00     0.217 HD
ENDBRANCH  16  28
ENDBRANCH  15  16
ENDBRANCH  12  15
ENDBRANCH   1  12
BRANCH   6  30
HETATM   30  C15 UNL     1      79.169   5.537  -2.356  1.00  0.00     0.060 C 
BRANCH  30  31
HETATM   31  N3  UNL     1      79.799   4.318  -2.591  1.00  0.00    -0.402 N 
ATOM     32  H3  UNL     1      80.798   4.241  -2.399  1.00  0.00     0.158 HD
BRANCH  31  33
HETATM   33  C16 UNL     1      79.127   3.195  -3.079  1.00  0.00     0.120 C 
BRANCH  33  34
HETATM   34  C17 UNL     1      80.081   2.010  -3.391  1.00  0.00     0.039 C 
BRANCH  34  35
HETATM   35  C18 UNL     1      80.008   1.722  -4.876  1.00  0.00     0.123 C 
BRANCH  35  36
HETATM   36  N4  UNL     1      81.248   1.915  -5.539  1.00  0.00    -0.389 N 
HETATM   37  C19 UNL     1      81.301   2.735  -6.684  1.00  0.00     0.084 C 
HETATM   38  C20 UNL     1      82.392   2.217  -7.620  1.00  0.00     0.212 C 
HETATM   39  O2  UNL     1      82.157   0.869  -7.909  1.00  0.00    -0.385 OA
HETATM   40  C21 UNL     1      82.133   0.057  -6.797  1.00  0.00     0.187 C 
HETATM   41  C22 UNL     1      82.154   0.804  -5.496  1.00  0.00     0.148 C 
ENDBRANCH  35  36
ENDBRANCH  34  35
ENDBRANCH  33  34
ENDBRANCH  31  33
ENDBRANCH  30  31
ENDBRANCH   6  30
TORSDOF 14
ENDMDL
MODEL 3
REMARK VINA RESULT: -7.248396258      4.983      9.407
REMARK  14 active torsions:
REMARK  status: ('A' for Active; 'I' for Inactive)
REMARK    1  A    between atoms: C2_2  and  C3_3 
REMARK    2  A    between atoms: C3_3  and  C4_4 
REMARK    3  A    between atoms: C4_4  and  C5_5 
REMARK    4  A    between atoms: C6_8  and  C7_9 
REMARK    5  A    between atoms: C7_9  and  O1_10 
REMARK    6  A    between atoms: C7_9  and  C8_12 
REMARK    7  A    between atoms: C8_12  and  N2_13 
REMARK    8  A    between atoms: N2_13  and  C9_16 
REMARK    9  A    between atoms: C14_21  and  C15_22 
REMARK   10  A    between atoms: C15_22  and  N3_23 
REMARK   11  A    between atoms: N3_23  and  C16_25 
REMARK   12  A    between atoms: C16_25  and  C17_26 
REMARK   13  A    between atoms: C17_26  and  C18_27 
REMARK   14  A    between atoms: C18_27  and  N4_28 
ROOT
HETATM    1  C9  UNL     1      79.598   8.090  -3.482  1.00  0.00     0.190 C 
HETATM    2  C10 UNL     1      80.529   9.189  -3.970  1.00  0.00     0.058 C 
HETATM    3  C11 UNL     1      79.704   9.849  -5.014  1.00  0.00     0.085 C 
HETATM    4  C12 UNL     1      79.981  11.123  -5.622  1.00  0.00     0.026 C 
HETATM    5  C13 UNL     1      78.693  11.493  -6.402  1.00  0.00     0.012 C 
HETATM    6  C14 UNL     1      77.933  10.390  -6.954  1.00  0.00     0.025 C 
HETATM    7  C23 UNL     1      77.368   9.366  -5.996  1.00  0.00     0.035 C 
HETATM    8  C24 UNL     1      78.355   8.204  -5.739  1.00  0.00     0.086 C 
HETATM    9  C25 UNL     1      78.428   7.782  -4.314  1.00  0.00     0.058 C 
HETATM   10  N5  UNL     1      79.574   8.853  -6.045  1.00  0.00    -0.390 N 
HETATM   11  C26 UNL     1      80.619   8.229  -6.608  1.00  0.00     0.116 C 
ENDROOT
BRANCH   1  12
HETATM   12  N2  UNL     1      80.335   6.932  -2.947  1.00  0.00    -0.065 N 
ATOM     13  H22 UNL     1      81.335   7.098  -2.832  1.00  0.00     0.278 HD
ATOM     14  H21 UNL     1      80.418   6.157  -3.605  1.00  0.00     0.278 HD
BRANCH  12  15
HETATM   15  C8  UNL     1      79.658   6.584  -1.720  1.00  0.00     0.299 C 
BRANCH  15  16
HETATM   16  C7  UNL     1      79.145   5.224  -1.574  1.00  0.00     0.095 C 
BRANCH  16  17
HETATM   17  C6  UNL     1      79.010   4.356  -2.742  1.00  0.00     0.065 A 
HETATM   18  N1  UNL     1      79.856   3.496  -3.319  1.00  0.00    -0.356 N 
HETATM   19  C5  UNL     1      79.314   2.887  -4.375  1.00  0.00     0.031 A 
ATOM     20  H1  UNL     1      80.806   3.325  -2.990  1.00  0.00     0.166 HD
HETATM   21  C28 UNL     1      78.021   3.376  -4.505  1.00  0.00     0.058 A 
HETATM   22  C27 UNL     1      77.843   4.281  -3.494  1.00  0.00     0.058 A 
HETATM   23 CL1  UNL     1      76.854   2.916  -5.722  1.00  0.00    -0.082 Cl
BRANCH  19  24
HETATM   24  C4  UNL     1      79.856   1.886  -5.331  1.00  0.00     0.059 C 
BRANCH  24  25
HETATM   25  C3  UNL     1      81.247   1.492  -4.933  1.00  0.00     0.006 C 
BRANCH  25  26
HETATM   26  C2  UNL     1      82.270   1.795  -5.997  1.00  0.00    -0.004 C 
HETATM   27  C1  UNL     1      83.590   1.091  -5.721  1.00  0.00     0.005 C 
ENDBRANCH  25  26
ENDBRANCH  24  25
ENDBRANCH  19  24
ENDBRANCH  16  17
BRANCH  16  28
HETATM   28  O1  UNL     1      78.037   5.114  -0.717  1.00  0.00    -0.361 OA
ATOM     29  H1  UNL     1      78.181   5.572   0.102  1.00  0.00     0.217 HD
ENDBRANCH  16  28
ENDBRANCH  15  16
ENDBRANCH  12  15
ENDBRANCH   1  12
BRANCH   6  30
HETATM   30  C15 UNL     1      76.785  10.862  -7.810  1.00  0.00     0.060 C 
BRANCH  30  31
HETATM   31  N3  UNL     1      75.541  10.254  -7.657  1.00  0.00    -0.402 N 
ATOM     32  H3  UNL     1      75.498   9.235  -7.632  1.00  0.00     0.158 HD
BRANCH  31  33
HETATM   33  C16 UNL     1      74.351  10.974  -7.538  1.00  0.00     0.120 C 
BRANCH  33  34
HETATM   34  C17 UNL     1      73.304  10.264  -6.637  1.00  0.00     0.039 C 
BRANCH  34  35
HETATM   35  C18 UNL     1      73.999   9.137  -5.903  1.00  0.00     0.123 C 
BRANCH  35  36
HETATM   36  N4  UNL     1      73.381   7.876  -6.112  1.00  0.00    -0.389 N 
HETATM   37  C19 UNL     1      72.681   7.264  -5.054  1.00  0.00     0.084 C 
HETATM   38  C20 UNL     1      72.793   5.746  -5.192  1.00  0.00     0.212 C 
HETATM   39  O2  UNL     1      74.141   5.381  -5.255  1.00  0.00    -0.385 OA
HETATM   40  C21 UNL     1      74.825   5.954  -6.304  1.00  0.00     0.187 C 
HETATM   41  C22 UNL     1      74.047   7.006  -7.038  1.00  0.00     0.148 C 
ENDBRANCH  35  36
ENDBRANCH  34  35
ENDBRANCH  33  34
ENDBRANCH  31  33
ENDBRANCH  30  31
ENDBRANCH   6  30
TORSDOF 14
ENDMDL
MODEL 4
REMARK VINA RESULT: -7.225663489      1.372      1.629
REMARK  14 active torsions:
REMARK  status: ('A' for Active; 'I' for Inactive)
REMARK    1  A    between atoms: C2_2  and  C3_3 
REMARK    2  A    between atoms: C3_3  and  C4_4 
REMARK    3  A    between atoms: C4_4  and  C5_5 
REMARK    4  A    between atoms: C6_8  and  C7_9 
REMARK    5  A    between atoms: C7_9  and  O1_10 
REMARK    6  A    between atoms: C7_9  and  C8_12 
REMARK    7  A    between atoms: C8_12  and  N2_13 
REMARK    8  A    between atoms: N2_13  and  C9_16 
REMARK    9  A    between atoms: C14_21  and  C15_22 
REMARK   10  A    between atoms: C15_22  and  N3_23 
REMARK   11  A    between atoms: N3_23  and  C16_25 
REMARK   12  A    between atoms: C16_25  and  C17_26 
REMARK   13  A    between atoms: C17_26  and  C18_27 
REMARK   14  A    between atoms: C18_27  and  N4_28 
ROOT
HETATM    1  C9  UNL     1      79.306  10.575  -5.424  1.00  0.00     0.190 C 
HETATM    2  C10 UNL     1      78.106  10.209  -6.284  1.00  0.00     0.058 C 
HETATM    3  C11 UNL     1      77.964   8.756  -6.011  1.00  0.00     0.085 C 
HETATM    4  C12 UNL     1      76.825   7.946  -6.350  1.00  0.00     0.026 C 
HETATM    5  C13 UNL     1      77.036   6.607  -5.596  1.00  0.00     0.012 C 
HETATM    6  C14 UNL     1      78.408   6.181  -5.409  1.00  0.00     0.025 C 
HETATM    7  C23 UNL     1      79.328   7.074  -4.608  1.00  0.00     0.035 C 
HETATM    8  C24 UNL     1      80.055   8.108  -5.499  1.00  0.00     0.086 C 
HETATM    9  C25 UNL     1      80.123   9.470  -4.905  1.00  0.00     0.058 C 
HETATM   10  N5  UNL     1      79.147   8.170  -6.583  1.00  0.00    -0.390 N 
HETATM   11  C26 UNL     1      79.530   8.365  -7.853  1.00  0.00     0.116 C 
ENDROOT
BRANCH   1  12
HETATM   12  N2  UNL     1      80.046  11.730  -5.961  1.00  0.00    -0.065 N 
ATOM     13  H22 UNL     1      80.870  11.474  -6.506  1.00  0.00     0.278 HD
ATOM     14  H21 UNL     1      80.537  12.271  -5.250  1.00  0.00     0.278 HD
BRANCH  12  15
HETATM   15  C8  UNL     1      79.072  12.494  -6.704  1.00  0.00     0.299 C 
BRANCH  15  16
HETATM   16  C7  UNL     1      79.395  13.876  -7.052  1.00  0.00     0.095 C 
BRANCH  16  17
HETATM   17  C6  UNL     1      80.492  14.169  -7.971  1.00  0.00     0.065 A 
HETATM   18  N1  UNL     1      81.095  13.430  -8.909  1.00  0.00    -0.356 N 
HETATM   19  C5  UNL     1      82.057  14.104  -9.540  1.00  0.00     0.031 A 
ATOM     20  H1  UNL     1      80.846  12.463  -9.118  1.00  0.00     0.166 HD
HETATM   21  C28 UNL     1      82.094  15.376  -8.984  1.00  0.00     0.058 A 
HETATM   22  C27 UNL     1      81.125  15.406  -8.018  1.00  0.00     0.058 A 
HETATM   23 CL1  UNL     1      83.167  16.677  -9.439  1.00  0.00    -0.082 Cl
BRANCH  19  24
HETATM   24  C4  UNL     1      82.999  13.711 -10.621  1.00  0.00     0.059 C 
BRANCH  24  25
HETATM   25  C3  UNL     1      82.379  13.960 -11.963  1.00  0.00     0.006 C 
BRANCH  25  26
HETATM   26  C2  UNL     1      83.083  15.040 -12.744  1.00  0.00    -0.004 C 
HETATM   27  C1  UNL     1      84.571  15.082 -12.426  1.00  0.00     0.005 C 
ENDBRANCH  25  26
ENDBRANCH  24  25
ENDBRANCH  19  24
ENDBRANCH  16  17
BRANCH  16  28
HETATM   28  O1  UNL     1      79.381  14.764  -5.963  1.00  0.00    -0.361 OA
ATOM     29  H1  UNL     1      79.207  15.656  -6.241  1.00  0.00     0.217 HD
ENDBRANCH  16  28
ENDBRANCH  15  16
ENDBRANCH  12  15
ENDBRANCH   1  12
BRANCH   6  30
HETATM   30  C15 UNL     1      78.498   4.805  -4.797  1.00  0.00     0.060 C 
BRANCH  30  31
HETATM   31  N3  UNL     1      79.284   4.629  -3.661  1.00  0.00    -0.402 N 
ATOM     32  H3  UNL     1      80.291   4.772  -3.738  1.00  0.00     0.158 HD
BRANCH  31  33
HETATM   33  C16 UNL     1      78.758   4.264  -2.419  1.00  0.00     0.120 C 
BRANCH  33  34
HETATM   34  C17 UNL     1      79.371   5.072  -1.244  1.00  0.00     0.039 C 
BRANCH  34  35
HETATM   35  C18 UNL     1      78.625   6.385  -1.132  1.00  0.00     0.123 C 
BRANCH  35  36
HETATM   36  N4  UNL     1      77.216   6.225  -1.134  1.00  0.00    -0.389 N 
HETATM   37  C19 UNL     1      76.425   7.056  -1.952  1.00  0.00     0.084 C 
HETATM   38  C20 UNL     1      75.070   7.276  -1.280  1.00  0.00     0.212 C 
HETATM   39  O2  UNL     1      75.265   7.783   0.008  1.00  0.00    -0.385 OA
HETATM   40  C21 UNL     1      76.014   6.962   0.823  1.00  0.00     0.187 C 
HETATM   41  C22 UNL     1      76.638   5.800   0.108  1.00  0.00     0.148 C 
ENDBRANCH  35  36
ENDBRANCH  34  35
ENDBRANCH  33  34
ENDBRANCH  31  33
ENDBRANCH  30  31
ENDBRANCH   6  30
TORSDOF 14
ENDMDL
MODEL 5
REMARK VINA RESULT: -7.187574756      3.719     11.052
REMARK  14 active torsions:
REMARK  status: ('A' for Active; 'I' for Inactive)
REMARK    1  A    between atoms: C2_2  and  C3_3 
REMARK    2  A    between atoms: C3_3  and  C4_4 
REMARK    3  A    between atoms: C4_4  and  C5_5 
REMARK    4  A    between atoms: C6_8  and  C7_9 
REMARK    5  A    between atoms: C7_9  and  O1_10 
REMARK    6  A    between atoms: C7_9  and  C8_12 
REMARK    7  A    between atoms: C8_12  and  N2_13 
REMARK    8  A    between atoms: N2_13  and  C9_16 
REMARK    9  A    between atoms: C14_21  and  C15_22 
REMARK   10  A    between atoms: C15_22  and  N3_23 
REMARK   11  A    between atoms: N3_23  and  C16_25 
REMARK   12  A    between atoms: C16_25  and  C17_26 
REMARK   13  A    between atoms: C17_26  and  C18_27 
REMARK   14  A    between atoms: C18_27  and  N4_28 
ROOT
HETATM    1  C9  UNL     1      79.065   6.773  -3.387  1.00  0.00     0.190 C 
HETATM    2  C10 UNL     1      80.280   7.584  -2.964  1.00  0.00     0.058 C 
HETATM    3  C11 UNL     1      80.110   8.828  -3.759  1.00  0.00     0.085 C 
HETATM    4  C12 UNL     1      80.826  10.058  -3.555  1.00  0.00     0.026 C 
HETATM    5  C13 UNL     1      80.084  11.111  -4.418  1.00  0.00     0.012 C 
HETATM    6  C14 UNL     1      79.472  10.630  -5.640  1.00  0.00     0.025 C 
HETATM    7  C23 UNL     1      78.389   9.581  -5.527  1.00  0.00     0.035 C 
HETATM    8  C24 UNL     1      78.963   8.146  -5.568  1.00  0.00     0.086 C 
HETATM    9  C25 UNL     1      78.339   7.221  -4.583  1.00  0.00     0.058 C 
HETATM   10  N5  UNL     1      80.281   8.403  -5.123  1.00  0.00    -0.390 N 
HETATM   11  C26 UNL     1      81.350   7.720  -5.558  1.00  0.00     0.116 C 
ENDROOT
BRANCH   1  12
HETATM   12  N2  UNL     1      79.297   5.322  -3.277  1.00  0.00    -0.065 N 
ATOM     13  H22 UNL     1      79.531   5.013  -2.334  1.00  0.00     0.278 HD
ATOM     14  H21 UNL     1      80.159   5.009  -3.722  1.00  0.00     0.278 HD
BRANCH  12  15
HETATM   15  C8  UNL     1      78.108   4.705  -3.814  1.00  0.00     0.299 C 
BRANCH  15  16
HETATM   16  C7  UNL     1      78.252   3.458  -4.562  1.00  0.00     0.095 C 
BRANCH  16  17
HETATM   17  C6  UNL     1      79.410   3.245  -5.426  1.00  0.00     0.065 A 
HETATM   18  N1  UNL     1      80.387   2.331  -5.405  1.00  0.00    -0.356 N 
HETATM   19  C5  UNL     1      81.252   2.494  -6.407  1.00  0.00     0.031 A 
ATOM     20  H1  UNL     1      80.461   1.594  -4.703  1.00  0.00     0.166 HD
HETATM   21  C28 UNL     1      80.819   3.588  -7.143  1.00  0.00     0.058 A 
HETATM   22  C27 UNL     1      79.683   4.044  -6.531  1.00  0.00     0.058 A 
HETATM   23 CL1  UNL     1      81.578   4.244  -8.574  1.00  0.00    -0.082 Cl
BRANCH  19  24
HETATM   24  C4  UNL     1      82.486   1.755  -6.784  1.00  0.00     0.059 C 
BRANCH  24  25
HETATM   25  C3  UNL     1      83.235   1.340  -5.554  1.00  0.00     0.006 C 
BRANCH  25  26
HETATM   26  C2  UNL     1      84.072   0.104  -5.765  1.00  0.00    -0.004 C 
HETATM   27  C1  UNL     1      85.512   0.320  -5.322  1.00  0.00     0.005 C 
ENDBRANCH  25  26
ENDBRANCH  24  25
ENDBRANCH  19  24
ENDBRANCH  16  17
BRANCH  16  28
HETATM   28  O1  UNL     1      77.066   3.004  -5.164  1.00  0.00    -0.361 OA
ATOM     29  H1  UNL     1      76.508   3.727  -5.426  1.00  0.00     0.217 HD
ENDBRANCH  16  28
ENDBRANCH  15  16
ENDBRANCH  12  15
ENDBRANCH   1  12
BRANCH   6  30
HETATM   30  C15 UNL     1      78.904  11.752  -6.472  1.00  0.00     0.060 C 
BRANCH  30  31
HETATM   31  N3  UNL     1      79.435  13.031  -6.324  1.00  0.00    -0.402 N 
ATOM     32  H3  UNL     1      80.090  13.200  -5.560  1.00  0.00     0.158 HD
BRANCH  31  33
HETATM   33  C16 UNL     1      79.112  14.093  -7.171  1.00  0.00     0.120 C 
BRANCH  33  34
HETATM   34  C17 UNL     1      80.363  14.763  -7.801  1.00  0.00     0.039 C 
BRANCH  34  35
HETATM   35  C18 UNL     1      81.092  13.724  -8.626  1.00  0.00     0.123 C 
BRANCH  35  36
HETATM   36  N4  UNL     1      82.343  14.182  -9.116  1.00  0.00    -0.389 N 
HETATM   37  C19 UNL     1      82.631  15.561  -9.098  1.00  0.00     0.084 C 
HETATM   38  C20 UNL     1      83.545  15.897 -10.276  1.00  0.00     0.212 C 
HETATM   39  O2  UNL     1      82.949  15.466 -11.465  1.00  0.00    -0.385 OA
HETATM   40  C21 UNL     1      82.691  14.114 -11.501  1.00  0.00     0.187 C 
HETATM   41  C22 UNL     1      82.906  13.417 -10.190  1.00  0.00     0.148 C 
ENDBRANCH  35  36
ENDBRANCH  34  35
ENDBRANCH  33  34
ENDBRANCH  31  33
ENDBRANCH  30  31
ENDBRANCH   6  30
TORSDOF 14
ENDMDL
