MODEL 1
REMARK VINA RESULT: -6.017158195      0.000      0.000
REMARK  18 active torsions:
REMARK  status: ('A' for Active; 'I' for Inactive)
REMARK    1  A    between atoms: C2_2  and  O1_3 
REMARK    2  A    between atoms: O1_3  and  C3_4 
REMARK    3  A    between atoms: C7_12  and  N3_13 
REMARK    4  A    between atoms: N3_13  and  C8_15 
REMARK    5  A    between atoms: C8_15  and  C9_16 
REMARK    6  A    between atoms: C9_16  and  C10_17 
REMARK    7  A    between atoms: C10_17  and  N4_18 
REMARK    8  A    between atoms: N4_18  and  C11_21 
REMARK    9  A    between atoms: C11_21  and  C12_22 
REMARK   10  A    between atoms: C12_22  and  C13_23 
REMARK   11  A    between atoms: C13_23  and  S1_24 
REMARK   12  A    between atoms: S1_24  and  C14_25 
REMARK   13  A    between atoms: C14_25  and  N6_29 
REMARK   14  A    between atoms: N6_29  and  C16_31 
REMARK   15  A    between atoms: C22_37  and  N7_38 
REMARK       I    between atoms: N7_38  and  C23_39 
REMARK   16  A    between atoms: C23_39  and  C24_41 
REMARK   17  A    between atoms: C24_41  and  C25_42 
REMARK   18  A    between atoms: C25_42  and  N8_43 
ROOT
HETATM    1  C3  UNL     1      76.604   5.820  -5.401  1.00  0.00     0.111 A 
HETATM    2  C4  UNL     1      77.008   5.686  -6.666  1.00  0.00     0.070 A 
HETATM    3  C5  UNL     1      78.295   6.080  -7.065  1.00  0.00     0.050 A 
HETATM    4  N1  UNL     1      78.647   5.892  -8.341  1.00  0.00    -0.351 N 
ATOM      5  H1  UNL     1      78.004   5.501  -9.030  1.00  0.00     0.166 HD
HETATM    6  C6  UNL     1      79.907   6.254  -8.659  1.00  0.00     0.182 A 
HETATM    7  N2  UNL     1      80.710   6.759  -7.729  1.00  0.00    -0.338 N 
ATOM      8  H2  UNL     1      81.652   7.009  -8.031  1.00  0.00     0.168 HD
HETATM    9  C7  UNL     1      80.426   6.973  -6.464  1.00  0.00     0.118 A 
HETATM   10  C20 UNL     1      79.083   6.596  -6.080  1.00  0.00     0.038 A 
HETATM   11  C21 UNL     1      78.701   6.748  -4.782  1.00  0.00     0.065 A 
HETATM   12  C22 UNL     1      77.422   6.358  -4.367  1.00  0.00     0.145 A 
ENDROOT
BRANCH   9  13
HETATM   13  N3  UNL     1      81.131   7.366  -5.512  1.00  0.00    -0.355 N 
ATOM     14  H3  UNL     1      80.809   6.940  -4.643  1.00  0.00     0.166 HD
BRANCH  13  15
HETATM   15  C8  UNL     1      82.200   8.187  -5.261  1.00  0.00     0.064 C 
BRANCH  15  16
HETATM   16  C9  UNL     1      82.247   9.177  -4.153  1.00  0.00     0.072 C 
BRANCH  16  17
HETATM   17  C10 UNL     1      80.908   9.510  -3.608  1.00  0.00     0.237 C 
BRANCH  17  18
HETATM   18  N4  UNL     1      80.522  10.878  -3.898  1.00  0.00    -0.075 N 
ATOM     19  H42 UNL     1      80.035  11.307  -3.112  1.00  0.00     0.277 HD
ATOM     20  H41 UNL     1      81.331  11.498  -3.936  1.00  0.00     0.277 HD
BRANCH  18  21
HETATM   21  C11 UNL     1      79.754  10.941  -5.090  1.00  0.00     0.233 C 
BRANCH  21  22
HETATM   22  C12 UNL     1      78.979  12.252  -5.264  1.00  0.00     0.038 C 
BRANCH  22  23
HETATM   23  C13 UNL     1      79.211  12.643  -6.718  1.00  0.00     0.084 C 
BRANCH  23  24
HETATM   24  S1  UNL     1      80.064  11.398  -7.658  1.00  0.00    -0.095 SA
BRANCH  24  25
HETATM   25  C14 UNL     1      79.012  10.489  -8.705  1.00  0.00     0.136 C 
HETATM   26  N5  UNL     1      79.045  10.797  -9.993  1.00  0.00    -0.375 N 
HETATM   27  C15 UNL     1      79.920  11.848 -10.475  1.00  0.00     0.148 C 
ATOM     28  H5  UNL     1      78.451  10.292 -10.650  1.00  0.00     0.161 HD
BRANCH  25  29
HETATM   29  N6  UNL     1      78.123   9.463  -8.328  1.00  0.00    -0.363 N 
ATOM     30  H6  UNL     1      78.450   8.497  -8.382  1.00  0.00     0.162 HD
BRANCH  29  31
HETATM   31  C16 UNL     1      76.773   9.703  -7.868  1.00  0.00     0.021 C 
HETATM   32  C17 UNL     1      76.256  11.075  -8.253  1.00  0.00     0.037 C 
HETATM   33  C18 UNL     1      76.719   9.461  -6.391  1.00  0.00     0.037 C 
HETATM   34  C19 UNL     1      75.850   8.710  -8.564  1.00  0.00     0.037 C 
ENDBRANCH  29  31
ENDBRANCH  25  29
ENDBRANCH  24  25
ENDBRANCH  23  24
ENDBRANCH  22  23
ENDBRANCH  21  22
ENDBRANCH  18  21
ENDBRANCH  17  18
ENDBRANCH  16  17
ENDBRANCH  15  16
ENDBRANCH  13  15
ENDBRANCH   9  13
BRANCH  12  35
HETATM   35  N7  UNL     1      76.941   6.325  -3.103  1.00  0.00    -0.368 NA
HETATM   36  C23 UNL     1      76.457   6.292  -1.838  1.00  0.00     0.293 C 
HETATM   37  O2  UNL     1      75.293   6.278  -1.446  1.00  0.00    -0.257 OA
BRANCH  36  38
HETATM   38  C24 UNL     1      77.488   6.272  -0.691  1.00  0.00     0.146 C 
BRANCH  38  39
HETATM   39  C25 UNL     1      76.933   6.178   0.665  1.00  0.00     0.240 C 
BRANCH  39  40
HETATM   40  N8  UNL     1      76.188   7.245   1.218  1.00  0.00    -0.079 N 
ATOM     41  H83 UNL     1      76.830   8.012   1.418  1.00  0.00     0.274 HD
ATOM     42  H82 UNL     1      75.610   7.646   0.480  1.00  0.00     0.274 HD
ATOM     43  H81 UNL     1      75.600   7.101   2.039  1.00  0.00     0.274 HD
ENDBRANCH  39  40
ENDBRANCH  38  39
ENDBRANCH  36  38
ENDBRANCH  12  35
BRANCH   1  44
HETATM   44  O1  UNL     1      75.302   5.427  -5.007  1.00  0.00    -0.348 OA
BRANCH  44  45
HETATM   45  C2  UNL     1      74.187   6.153  -5.500  1.00  0.00     0.171 C 
HETATM   46  C1  UNL     1      73.236   6.547  -4.404  1.00  0.00     0.034 C 
ENDBRANCH  44  45
ENDBRANCH   1  44
TORSDOF 18
ENDMDL
MODEL 2
REMARK VINA RESULT: -5.937893507      2.295      5.043
REMARK  18 active torsions:
REMARK  status: ('A' for Active; 'I' for Inactive)
REMARK    1  A    between atoms: C2_2  and  O1_3 
REMARK    2  A    between atoms: O1_3  and  C3_4 
REMARK    3  A    between atoms: C7_12  and  N3_13 
REMARK    4  A    between atoms: N3_13  and  C8_15 
REMARK    5  A    between atoms: C8_15  and  C9_16 
REMARK    6  A    between atoms: C9_16  and  C10_17 
REMARK    7  A    between atoms: C10_17  and  N4_18 
REMARK    8  A    between atoms: N4_18  and  C11_21 
REMARK    9  A    between atoms: C11_21  and  C12_22 
REMARK   10  A    between atoms: C12_22  and  C13_23 
REMARK   11  A    between atoms: C13_23  and  S1_24 
REMARK   12  A    between atoms: S1_24  and  C14_25 
REMARK   13  A    between atoms: C14_25  and  N6_29 
REMARK   14  A    between atoms: N6_29  and  C16_31 
REMARK   15  A    between atoms: C22_37  and  N7_38 
REMARK       I    between atoms: N7_38  and  C23_39 
REMARK   16  A    between atoms: C23_39  and  C24_41 
REMARK   17  A    between atoms: C24_41  and  C25_42 
REMARK   18  A    between atoms: C25_42  and  N8_43 
ROOT
HETATM    1  C3  UNL     1      76.994   5.904  -3.444  1.00  0.00     0.111 A 
HETATM    2  C4  UNL     1      77.240   5.719  -4.743  1.00  0.00     0.070 A 
HETATM    3  C5  UNL     1      76.337   6.155  -5.725  1.00  0.00     0.050 A 
HETATM    4  N1  UNL     1      76.657   5.965  -7.009  1.00  0.00    -0.351 N 
ATOM      5  H1  UNL     1      77.516   5.493  -7.289  1.00  0.00     0.166 HD
HETATM    6  C6  UNL     1      75.770   6.438  -7.909  1.00  0.00     0.182 A 
HETATM    7  N2  UNL     1      74.664   7.046  -7.497  1.00  0.00    -0.338 N 
ATOM      8  H2  UNL     1      74.035   7.385  -8.226  1.00  0.00     0.168 HD
HETATM    9  C7  UNL     1      74.289   7.261  -6.256  1.00  0.00     0.118 A 
HETATM   10  C20 UNL     1      75.213   6.771  -5.257  1.00  0.00     0.038 A 
HETATM   11  C21 UNL     1      74.932   6.974  -3.941  1.00  0.00     0.065 A 
HETATM   12  C22 UNL     1      75.823   6.546  -2.949  1.00  0.00     0.145 A 
ENDROOT
BRANCH   9  13
HETATM   13  N3  UNL     1      73.318   7.885  -5.780  1.00  0.00    -0.355 N 
ATOM     14  H3  UNL     1      73.213   7.661  -4.791  1.00  0.00     0.166 HD
BRANCH  13  15
HETATM   15  C8  UNL     1      72.348   8.775  -6.163  1.00  0.00     0.064 C 
BRANCH  15  16
HETATM   16  C9  UNL     1      72.538  10.249  -6.199  1.00  0.00     0.072 C 
BRANCH  16  17
HETATM   17  C10 UNL     1      73.963  10.656  -6.154  1.00  0.00     0.237 C 
BRANCH  17  18
HETATM   18  N4  UNL     1      74.523  10.843  -7.479  1.00  0.00    -0.075 N 
ATOM     19  H42 UNL     1      73.978  10.356  -8.191  1.00  0.00     0.277 HD
ATOM     20  H41 UNL     1      74.394  11.798  -7.813  1.00  0.00     0.277 HD
BRANCH  18  21
HETATM   21  C11 UNL     1      75.888  10.456  -7.506  1.00  0.00     0.233 C 
BRANCH  21  22
HETATM   22  C12 UNL     1      76.485  10.175  -6.122  1.00  0.00     0.038 C 
BRANCH  22  23
HETATM   23  C13 UNL     1      77.984  10.376  -6.304  1.00  0.00     0.084 C 
BRANCH  23  24
HETATM   24  S1  UNL     1      78.763   9.078  -7.237  1.00  0.00    -0.095 SA
BRANCH  24  25
HETATM   25  C14 UNL     1      80.338   8.649  -6.630  1.00  0.00     0.136 C 
HETATM   26  N5  UNL     1      80.875   7.536  -7.106  1.00  0.00    -0.375 N 
HETATM   27  C15 UNL     1      80.160   6.733  -8.078  1.00  0.00     0.148 C 
ATOM     28  H5  UNL     1      81.798   7.242  -6.786  1.00  0.00     0.161 HD
BRANCH  25  29
HETATM   29  N6  UNL     1      81.101   9.359  -5.681  1.00  0.00    -0.363 N 
ATOM     30  H6  UNL     1      81.802  10.018  -6.021  1.00  0.00     0.162 HD
BRANCH  29  31
HETATM   31  C16 UNL     1      80.945   9.203  -4.251  1.00  0.00     0.021 C 
HETATM   32  C17 UNL     1      79.806   8.273  -3.882  1.00  0.00     0.037 C 
HETATM   33  C18 UNL     1      80.804  10.560  -3.634  1.00  0.00     0.037 C 
HETATM   34  C19 UNL     1      82.204   8.541  -3.705  1.00  0.00     0.037 C 
ENDBRANCH  29  31
ENDBRANCH  25  29
ENDBRANCH  24  25
ENDBRANCH  23  24
ENDBRANCH  22  23
ENDBRANCH  21  22
ENDBRANCH  18  21
ENDBRANCH  17  18
ENDBRANCH  16  17
ENDBRANCH  15  16
ENDBRANCH  13  15
ENDBRANCH   9  13
BRANCH  12  35
HETATM   35  N7  UNL     1      75.750   6.784  -1.619  1.00  0.00    -0.368 NA
HETATM   36  C23 UNL     1      75.676   7.023  -0.288  1.00  0.00     0.293 C 
HETATM   37  O2  UNL     1      75.222   7.996   0.307  1.00  0.00    -0.257 OA
BRANCH  36  38
HETATM   38  C24 UNL     1      76.237   5.937   0.654  1.00  0.00     0.146 C 
BRANCH  38  39
HETATM   39  C25 UNL     1      77.688   5.970   0.872  1.00  0.00     0.240 C 
BRANCH  39  40
HETATM   40  N8  UNL     1      78.276   5.254   1.942  1.00  0.00    -0.079 N 
ATOM     41  H83 UNL     1      78.138   5.791   2.798  1.00  0.00     0.274 HD
ATOM     42  H82 UNL     1      77.706   4.428   2.122  1.00  0.00     0.274 HD
ATOM     43  H81 UNL     1      79.253   4.964   1.902  1.00  0.00     0.274 HD
ENDBRANCH  39  40
ENDBRANCH  38  39
ENDBRANCH  36  38
ENDBRANCH  12  35
BRANCH   1  44
HETATM   44  O1  UNL     1      77.906   5.456  -2.458  1.00  0.00    -0.348 OA
BRANCH  44  45
HETATM   45  C2  UNL     1      79.114   4.835  -2.872  1.00  0.00     0.171 C 
HETATM   46  C1  UNL     1      79.036   3.336  -2.797  1.00  0.00     0.034 C 
ENDBRANCH  44  45
ENDBRANCH   1  44
TORSDOF 18
ENDMDL
MODEL 3
REMARK VINA RESULT: -5.908904918      1.886      2.505
REMARK  18 active torsions:
REMARK  status: ('A' for Active; 'I' for Inactive)
REMARK    1  A    between atoms: C2_2  and  O1_3 
REMARK    2  A    between atoms: O1_3  and  C3_4 
REMARK    3  A    between atoms: C7_12  and  N3_13 
REMARK    4  A    between atoms: N3_13  and  C8_15 
REMARK    5  A    between atoms: C8_15  and  C9_16 
REMARK    6  A    between atoms: C9_16  and  C10_17 
REMARK    7  A    between atoms: C10_17  and  N4_18 
REMARK    8  A    between atoms: N4_18  and  C11_21 
REMARK    9  A    between atoms: C11_21  and  C12_22 
REMARK   10  A    between atoms: C12_22  and  C13_23 
REMARK   11  A    between atoms: C13_23  and  S1_24 
REMARK   12  A    between atoms: S1_24  and  C14_25 
REMARK   13  A    between atoms: C14_25  and  N6_29 
REMARK   14  A    between atoms: N6_29  and  C16_31 
REMARK   15  A    between atoms: C22_37  and  N7_38 
REMARK       I    between atoms: N7_38  and  C23_39 
REMARK   16  A    between atoms: C23_39  and  C24_41 
REMARK   17  A    between atoms: C24_41  and  C25_42 
REMARK   18  A    between atoms: C25_42  and  N8_43 
ROOT
HETATM    1  C3  UNL     1      76.681   5.818  -5.277  1.00  0.00     0.111 A 
HETATM    2  C4  UNL     1      77.121   5.660  -6.527  1.00  0.00     0.070 A 
HETATM    3  C5  UNL     1      78.419   6.042  -6.897  1.00  0.00     0.050 A 
HETATM    4  N1  UNL     1      78.808   5.831  -8.159  1.00  0.00    -0.351 N 
ATOM      5  H1  UNL     1      78.183   5.428  -8.858  1.00  0.00     0.166 HD
HETATM    6  C6  UNL     1      80.077   6.183  -8.448  1.00  0.00     0.182 A 
HETATM    7  N2  UNL     1      80.854   6.704  -7.505  1.00  0.00    -0.338 N 
ATOM      8  H2  UNL     1      81.805   6.946  -7.784  1.00  0.00     0.168 HD
HETATM    9  C7  UNL     1      80.535   6.942  -6.253  1.00  0.00     0.118 A 
HETATM   10  C20 UNL     1      79.181   6.576  -5.899  1.00  0.00     0.038 A 
HETATM   11  C21 UNL     1      78.763   6.752  -4.616  1.00  0.00     0.065 A 
HETATM   12  C22 UNL     1      77.471   6.374  -4.231  1.00  0.00     0.145 A 
ENDROOT
BRANCH   9  13
HETATM   13  N3  UNL     1      81.214   7.351  -5.288  1.00  0.00    -0.355 N 
ATOM     14  H3  UNL     1      81.009   6.794  -4.459  1.00  0.00     0.166 HD
BRANCH  13  15
HETATM   15  C8  UNL     1      82.146   8.310  -4.988  1.00  0.00     0.064 C 
BRANCH  15  16
HETATM   16  C9  UNL     1      81.850   9.765  -4.914  1.00  0.00     0.072 C 
BRANCH  16  17
HETATM   17  C10 UNL     1      80.547  10.065  -4.272  1.00  0.00     0.237 C 
BRANCH  17  18
HETATM   18  N4  UNL     1      79.832  11.128  -4.953  1.00  0.00    -0.075 N 
ATOM     19  H42 UNL     1      78.865  11.196  -4.635  1.00  0.00     0.277 HD
ATOM     20  H41 UNL     1      80.156  12.049  -4.659  1.00  0.00     0.277 HD
BRANCH  18  21
HETATM   21  C11 UNL     1      79.912  10.965  -6.360  1.00  0.00     0.233 C 
BRANCH  21  22
HETATM   22  C12 UNL     1      78.829  10.051  -6.946  1.00  0.00     0.038 C 
BRANCH  22  23
HETATM   23  C13 UNL     1      77.518  10.644  -6.450  1.00  0.00     0.084 C 
BRANCH  23  24
HETATM   24  S1  UNL     1      76.255  10.714  -7.699  1.00  0.00    -0.095 SA
BRANCH  24  25
HETATM   25  C14 UNL     1      75.042   9.478  -7.518  1.00  0.00     0.136 C 
HETATM   26  N5  UNL     1      75.198   8.382  -8.245  1.00  0.00    -0.375 N 
HETATM   27  C15 UNL     1      76.329   8.251  -9.143  1.00  0.00     0.148 C 
ATOM     28  H5  UNL     1      74.517   7.626  -8.174  1.00  0.00     0.161 HD
BRANCH  25  29
HETATM   29  N6  UNL     1      73.908   9.521  -6.683  1.00  0.00    -0.363 N 
ATOM     30  H6  UNL     1      74.044   9.409  -5.678  1.00  0.00     0.162 HD
BRANCH  29  31
HETATM   31  C16 UNL     1      72.561   9.716  -7.174  1.00  0.00     0.021 C 
HETATM   32  C17 UNL     1      71.854   8.412  -7.485  1.00  0.00     0.037 C 
HETATM   33  C18 UNL     1      72.609  10.641  -8.351  1.00  0.00     0.037 C 
HETATM   34  C19 UNL     1      71.742  10.370  -6.067  1.00  0.00     0.037 C 
ENDBRANCH  29  31
ENDBRANCH  25  29
ENDBRANCH  24  25
ENDBRANCH  23  24
ENDBRANCH  22  23
ENDBRANCH  21  22
ENDBRANCH  18  21
ENDBRANCH  17  18
ENDBRANCH  16  17
ENDBRANCH  15  16
ENDBRANCH  13  15
ENDBRANCH   9  13
BRANCH  12  35
HETATM   35  N7  UNL     1      76.954   6.366  -2.980  1.00  0.00    -0.368 NA
HETATM   36  C23 UNL     1      76.434   6.358  -1.729  1.00  0.00     0.293 C 
HETATM   37  O2  UNL     1      75.261   6.315  -1.371  1.00  0.00    -0.257 OA
BRANCH  36  38
HETATM   38  C24 UNL     1      77.431   6.412  -0.554  1.00  0.00     0.146 C 
BRANCH  38  39
HETATM   39  C25 UNL     1      76.977   5.794   0.698  1.00  0.00     0.240 C 
BRANCH  39  40
HETATM   40  N8  UNL     1      77.908   5.325   1.654  1.00  0.00    -0.079 N 
ATOM     41  H83 UNL     1      77.552   4.453   2.044  1.00  0.00     0.274 HD
ATOM     42  H82 UNL     1      78.740   5.006   1.158  1.00  0.00     0.274 HD
ATOM     43  H81 UNL     1      78.207   5.920   2.427  1.00  0.00     0.274 HD
ENDBRANCH  39  40
ENDBRANCH  38  39
ENDBRANCH  36  38
ENDBRANCH  12  35
BRANCH   1  44
HETATM   44  O1  UNL     1      75.367   5.436  -4.913  1.00  0.00    -0.348 OA
BRANCH  44  45
HETATM   45  C2  UNL     1      74.267   6.113  -5.500  1.00  0.00     0.171 C 
HETATM   46  C1  UNL     1      73.299   6.623  -4.469  1.00  0.00     0.034 C 
ENDBRANCH  44  45
ENDBRANCH   1  44
TORSDOF 18
ENDMDL
MODEL 4
REMARK VINA RESULT: -5.893895868      4.140      7.429
REMARK  18 active torsions:
REMARK  status: ('A' for Active; 'I' for Inactive)
REMARK    1  A    between atoms: C2_2  and  O1_3 
REMARK    2  A    between atoms: O1_3  and  C3_4 
REMARK    3  A    between atoms: C7_12  and  N3_13 
REMARK    4  A    between atoms: N3_13  and  C8_15 
REMARK    5  A    between atoms: C8_15  and  C9_16 
REMARK    6  A    between atoms: C9_16  and  C10_17 
REMARK    7  A    between atoms: C10_17  and  N4_18 
REMARK    8  A    between atoms: N4_18  and  C11_21 
REMARK    9  A    between atoms: C11_21  and  C12_22 
REMARK   10  A    between atoms: C12_22  and  C13_23 
REMARK   11  A    between atoms: C13_23  and  S1_24 
REMARK   12  A    between atoms: S1_24  and  C14_25 
REMARK   13  A    between atoms: C14_25  and  N6_29 
REMARK   14  A    between atoms: N6_29  and  C16_31 
REMARK   15  A    between atoms: C22_37  and  N7_38 
REMARK       I    between atoms: N7_38  and  C23_39 
REMARK   16  A    between atoms: C23_39  and  C24_41 
REMARK   17  A    between atoms: C24_41  and  C25_42 
REMARK   18  A    between atoms: C25_42  and  N8_43 
ROOT
HETATM    1  C3  UNL     1      76.985   6.502  -2.741  1.00  0.00     0.111 A 
HETATM    2  C4  UNL     1      78.269   6.669  -2.419  1.00  0.00     0.070 A 
HETATM    3  C5  UNL     1      79.169   7.284  -3.303  1.00  0.00     0.050 A 
HETATM    4  N1  UNL     1      80.435   7.446  -2.908  1.00  0.00    -0.351 N 
ATOM      5  H1  UNL     1      80.768   7.113  -2.002  1.00  0.00     0.166 HD
HETATM    6  C6  UNL     1      81.245   8.077  -3.782  1.00  0.00     0.182 A 
HETATM    7  N2  UNL     1      80.769   8.492  -4.950  1.00  0.00    -0.338 N 
ATOM      8  H2  UNL     1      81.430   8.966  -5.566  1.00  0.00     0.168 HD
HETATM    9  C7  UNL     1      79.542   8.362  -5.401  1.00  0.00     0.118 A 
HETATM   10  C20 UNL     1      78.638   7.691  -4.491  1.00  0.00     0.038 A 
HETATM   11  C21 UNL     1      77.335   7.535  -4.851  1.00  0.00     0.065 A 
HETATM   12  C22 UNL     1      76.424   6.925  -3.980  1.00  0.00     0.145 A 
ENDROOT
BRANCH   9  13
HETATM   13  N3  UNL     1      78.991   8.783  -6.438  1.00  0.00    -0.355 N 
ATOM     14  H3  UNL     1      78.075   9.171  -6.212  1.00  0.00     0.166 HD
BRANCH  13  15
HETATM   15  C8  UNL     1      79.223   8.891  -7.785  1.00  0.00     0.064 C 
BRANCH  15  16
HETATM   16  C9  UNL     1      79.401   7.729  -8.695  1.00  0.00     0.072 C 
BRANCH  16  17
HETATM   17  C10 UNL     1      78.251   6.792  -8.678  1.00  0.00     0.237 C 
BRANCH  17  18
HETATM   18  N4  UNL     1      78.667   5.418  -8.463  1.00  0.00    -0.075 N 
ATOM     19  H42 UNL     1      78.011   4.915  -7.865  1.00  0.00     0.277 HD
ATOM     20  H41 UNL     1      78.566   4.857  -9.308  1.00  0.00     0.277 HD
BRANCH  18  21
HETATM   21  C11 UNL     1      79.989   5.368  -7.952  1.00  0.00     0.233 C 
BRANCH  21  22
HETATM   22  C12 UNL     1      80.176   4.376  -6.798  1.00  0.00     0.038 C 
BRANCH  22  23
HETATM   23  C13 UNL     1      81.344   3.500  -7.232  1.00  0.00     0.084 C 
BRANCH  23  24
HETATM   24  S1  UNL     1      81.253   1.839  -6.605  1.00  0.00    -0.095 SA
BRANCH  24  25
HETATM   25  C14 UNL     1      82.172   1.606  -5.145  1.00  0.00     0.136 C 
HETATM   26  N5  UNL     1      81.501   1.665  -4.005  1.00  0.00    -0.375 N 
HETATM   27  C15 UNL     1      80.073   1.919  -4.005  1.00  0.00     0.148 C 
ATOM     28  H5  UNL     1      81.991   1.531  -3.121  1.00  0.00     0.161 HD
BRANCH  25  29
HETATM   29  N6  UNL     1      83.557   1.366  -5.046  1.00  0.00    -0.363 N 
ATOM     30  H6  UNL     1      84.090   1.892  -4.353  1.00  0.00     0.162 HD
BRANCH  29  31
HETATM   31  C16 UNL     1      84.264   0.413  -5.875  1.00  0.00     0.021 C 
HETATM   32  C17 UNL     1      85.612   0.023  -5.302  1.00  0.00     0.037 C 
HETATM   33  C18 UNL     1      84.366   0.968  -7.262  1.00  0.00     0.037 C 
HETATM   34  C19 UNL     1      83.451  -0.875  -5.917  1.00  0.00     0.037 C 
ENDBRANCH  29  31
ENDBRANCH  25  29
ENDBRANCH  24  25
ENDBRANCH  23  24
ENDBRANCH  22  23
ENDBRANCH  21  22
ENDBRANCH  18  21
ENDBRANCH  17  18
ENDBRANCH  16  17
ENDBRANCH  15  16
ENDBRANCH  13  15
ENDBRANCH   9  13
BRANCH  12  35
HETATM   35  N7  UNL     1      75.085   6.811  -4.136  1.00  0.00    -0.368 NA
HETATM   36  C23 UNL     1      73.744   6.697  -4.290  1.00  0.00     0.293 C 
HETATM   37  O2  UNL     1      72.914   6.172  -3.552  1.00  0.00    -0.257 OA
BRANCH  36  38
HETATM   38  C24 UNL     1      73.129   7.299  -5.570  1.00  0.00     0.146 C 
BRANCH  38  39
HETATM   39  C25 UNL     1      72.989   6.378  -6.705  1.00  0.00     0.240 C 
BRANCH  39  40
HETATM   40  N8  UNL     1      71.741   6.210  -7.351  1.00  0.00    -0.079 N 
ATOM     41  H83 UNL     1      71.045   5.977  -6.643  1.00  0.00     0.274 HD
ATOM     42  H82 UNL     1      71.420   7.126  -7.664  1.00  0.00     0.274 HD
ATOM     43  H81 UNL     1      71.639   5.554  -8.125  1.00  0.00     0.274 HD
ENDBRANCH  39  40
ENDBRANCH  38  39
ENDBRANCH  36  38
ENDBRANCH  12  35
BRANCH   1  44
HETATM   44  O1  UNL     1      76.084   5.874  -1.847  1.00  0.00    -0.348 OA
BRANCH  44  45
HETATM   45  C2  UNL     1      75.870   6.453  -0.569  1.00  0.00     0.171 C 
HETATM   46  C1  UNL     1      75.177   7.784  -0.657  1.00  0.00     0.034 C 
ENDBRANCH  44  45
ENDBRANCH   1  44
TORSDOF 18
ENDMDL
MODEL 5
REMARK VINA RESULT: -5.825749291      2.633      5.495
REMARK  18 active torsions:
REMARK  status: ('A' for Active; 'I' for Inactive)
REMARK    1  A    between atoms: C2_2  and  O1_3 
REMARK    2  A    between atoms: O1_3  and  C3_4 
REMARK    3  A    between atoms: C7_12  and  N3_13 
REMARK    4  A    between atoms: N3_13  and  C8_15 
REMARK    5  A    between atoms: C8_15  and  C9_16 
REMARK    6  A    between atoms: C9_16  and  C10_17 
REMARK    7  A    between atoms: C10_17  and  N4_18 
REMARK    8  A    between atoms: N4_18  and  C11_21 
REMARK    9  A    between atoms: C11_21  and  C12_22 
REMARK   10  A    between atoms: C12_22  and  C13_23 
REMARK   11  A    between atoms: C13_23  and  S1_24 
REMARK   12  A    between atoms: S1_24  and  C14_25 
REMARK   13  A    between atoms: C14_25  and  N6_29 
REMARK   14  A    between atoms: N6_29  and  C16_31 
REMARK   15  A    between atoms: C22_37  and  N7_38 
REMARK       I    between atoms: N7_38  and  C23_39 
REMARK   16  A    between atoms: C23_39  and  C24_41 
REMARK   17  A    between atoms: C24_41  and  C25_42 
REMARK   18  A    between atoms: C25_42  and  N8_43 
ROOT
HETATM    1  C3  UNL     1      76.445   5.213  -5.394  1.00  0.00     0.111 A 
HETATM    2  C4  UNL     1      76.317   4.755  -6.641  1.00  0.00     0.070 A 
HETATM    3  C5  UNL     1      75.202   5.082  -7.427  1.00  0.00     0.050 A 
HETATM    4  N1  UNL     1      75.149   4.613  -8.678  1.00  0.00    -0.351 N 
ATOM      5  H1  UNL     1      75.876   4.009  -9.062  1.00  0.00     0.166 HD
HETATM    6  C6  UNL     1      74.074   4.990  -9.399  1.00  0.00     0.182 A 
HETATM    7  N2  UNL     1      73.151   5.777  -8.857  1.00  0.00    -0.338 N 
ATOM      8  H2  UNL     1      72.364   6.031  -9.454  1.00  0.00     0.168 HD
HETATM    9  C7  UNL     1      73.140   6.267  -7.638  1.00  0.00     0.118 A 
HETATM   10  C20 UNL     1      74.279   5.889  -6.829  1.00  0.00     0.038 A 
HETATM   11  C21 UNL     1      74.378   6.371  -5.561  1.00  0.00     0.065 A 
HETATM   12  C22 UNL     1      75.485   6.056  -4.764  1.00  0.00     0.145 A 
ENDROOT
BRANCH   9  13
HETATM   13  N3  UNL     1      72.366   7.068  -7.073  1.00  0.00    -0.355 N 
ATOM     14  H3  UNL     1      72.045   6.675  -6.189  1.00  0.00     0.166 HD
BRANCH  13  15
HETATM   15  C8  UNL     1      71.811   8.307  -7.263  1.00  0.00     0.064 C 
BRANCH  15  16
HETATM   16  C9  UNL     1      71.974   9.445  -6.320  1.00  0.00     0.072 C 
BRANCH  16  17
HETATM   17  C10 UNL     1      72.894  10.494  -6.823  1.00  0.00     0.237 C 
BRANCH  17  18
HETATM   18  N4  UNL     1      74.113  10.577  -6.041  1.00  0.00    -0.075 N 
ATOM     19  H42 UNL     1      74.385  11.544  -5.866  1.00  0.00     0.277 HD
ATOM     20  H41 UNL     1      73.963  10.283  -5.076  1.00  0.00     0.277 HD
BRANCH  18  21
HETATM   21  C11 UNL     1      75.157   9.841  -6.658  1.00  0.00     0.233 C 
BRANCH  21  22
HETATM   22  C12 UNL     1      76.288   9.441  -5.704  1.00  0.00     0.038 C 
BRANCH  22  23
HETATM   23  C13 UNL     1      77.562   9.641  -6.515  1.00  0.00     0.084 C 
BRANCH  23  24
HETATM   24  S1  UNL     1      78.386   8.121  -6.925  1.00  0.00    -0.095 SA
BRANCH  24  25
HETATM   25  C14 UNL     1      79.499   7.591  -5.695  1.00  0.00     0.136 C 
HETATM   26  N5  UNL     1      80.105   6.432  -5.900  1.00  0.00    -0.375 N 
HETATM   27  C15 UNL     1      79.829   5.661  -7.098  1.00  0.00     0.148 C 
ATOM     28  H5  UNL     1      80.769   6.078  -5.212  1.00  0.00     0.161 HD
BRANCH  25  29
HETATM   29  N6  UNL     1      79.821   8.264  -4.499  1.00  0.00    -0.363 N 
ATOM     30  H6  UNL     1      79.197   8.152  -3.699  1.00  0.00     0.162 HD
BRANCH  29  31
HETATM   31  C16 UNL     1      80.988   9.106  -4.344  1.00  0.00     0.021 C 
HETATM   32  C17 UNL     1      82.172   8.367  -3.753  1.00  0.00     0.037 C 
HETATM   33  C18 UNL     1      80.605  10.314  -3.546  1.00  0.00     0.037 C 
HETATM   34  C19 UNL     1      81.438   9.553  -5.730  1.00  0.00     0.037 C 
ENDBRANCH  29  31
ENDBRANCH  25  29
ENDBRANCH  24  25
ENDBRANCH  23  24
ENDBRANCH  22  23
ENDBRANCH  21  22
ENDBRANCH  18  21
ENDBRANCH  17  18
ENDBRANCH  16  17
ENDBRANCH  15  16
ENDBRANCH  13  15
ENDBRANCH   9  13
BRANCH  12  35
HETATM   35  N7  UNL     1      75.790   6.554  -3.543  1.00  0.00    -0.368 NA
HETATM   36  C23 UNL     1      76.093   7.053  -2.321  1.00  0.00     0.293 C 
HETATM   37  O2  UNL     1      75.355   7.551  -1.475  1.00  0.00    -0.257 OA
BRANCH  36  38
HETATM   38  C24 UNL     1      77.573   7.011  -1.892  1.00  0.00     0.146 C 
BRANCH  38  39
HETATM   39  C25 UNL     1      77.952   5.898  -1.012  1.00  0.00     0.240 C 
BRANCH  39  40
HETATM   40  N8  UNL     1      77.060   4.825  -0.777  1.00  0.00    -0.079 N 
ATOM     41  H83 UNL     1      76.759   4.870   0.196  1.00  0.00     0.274 HD
ATOM     42  H82 UNL     1      76.190   5.021  -1.272  1.00  0.00     0.274 HD
ATOM     43  H81 UNL     1      77.334   3.864  -0.982  1.00  0.00     0.274 HD
ENDBRANCH  39  40
ENDBRANCH  38  39
ENDBRANCH  36  38
ENDBRANCH  12  35
BRANCH   1  44
HETATM   44  O1  UNL     1      77.570   4.874  -4.603  1.00  0.00    -0.348 OA
BRANCH  44  45
HETATM   45  C2  UNL     1      77.987   3.518  -4.548  1.00  0.00     0.171 C 
HETATM   46  C1  UNL     1      78.995   3.279  -3.460  1.00  0.00     0.034 C 
ENDBRANCH  44  45
ENDBRANCH   1  44
TORSDOF 18
ENDMDL
