MODEL 1
REMARK VINA RESULT: -7.278326363      0.000      0.000
REMARK  12 active torsions:
REMARK  status: ('A' for Active; 'I' for Inactive)
REMARK    1  A    between atoms: C4_4  and  C5_5 
REMARK       I    between atoms: C5_5  and  N1_7 
REMARK    2  A    between atoms: N1_7  and  C6_9 
REMARK    3  A    between atoms: C6_9  and  C7_12 
REMARK       I    between atoms: C7_12  and  N2_14 
REMARK    4  A    between atoms: N2_14  and  C8_16 
REMARK    5  A    between atoms: C8_16  and  C9_17 
REMARK    6  A    between atoms: C8_16  and  C14_26 
REMARK    7  A    between atoms: C9_17  and  C10_18 
REMARK    8  A    between atoms: C10_18  and  C11_19 
REMARK    9  A    between atoms: C14_26  and  S1_27 
REMARK   10  A    between atoms: S1_27  and  C15_28 
REMARK   11  A    between atoms: C15_28  and  C16_29 
REMARK   12  A    between atoms: C16_29  and  C17_30 
ROOT
HETATM    1  C8  UNL     1     -14.323  11.128  43.634  1.00  0.00     0.094 C 
ENDROOT
BRANCH   1   2
HETATM    2  N2  UNL     1     -13.825   9.812  43.711  1.00  0.00    -0.351 N 
HETATM    3  C7  UNL     1     -12.558   9.343  43.338  1.00  0.00     0.278 C 
HETATM    4  O2  UNL     1     -11.689  10.077  42.838  1.00  0.00    -0.268 OA
ATOM      5  H2  UNL     1     -14.466   9.113  44.086  1.00  0.00     0.163 HD
BRANCH   3   6
HETATM    6  C6  UNL     1     -12.183   7.894  43.527  1.00  0.00     0.271 C 
HETATM    7 CL1  UNL     1     -11.713   7.146  41.980  1.00  0.00    -0.068 Cl
HETATM    8 CL2  UNL     1     -10.838   7.798  44.667  1.00  0.00    -0.068 Cl
BRANCH   6   9
HETATM    9  N1  UNL     1     -13.364   7.211  44.010  1.00  0.00    -0.315 N 
HETATM   10  C5  UNL     1     -14.331   6.800  43.030  1.00  0.00     0.244 C 
HETATM   11  O1  UNL     1     -14.055   7.078  41.832  1.00  0.00    -0.269 OA
ATOM     12  H1  UNL     1     -13.504   7.029  45.004  1.00  0.00     0.166 HD
BRANCH  10  13
HETATM   13  C4  UNL     1     -15.515   6.123  43.481  1.00  0.00     0.076 C 
HETATM   14  C2  UNL     1     -15.494   4.935  43.998  1.00  0.00    -0.082 C 
HETATM   15  C1  UNL     1     -14.239   4.182  44.160  1.00  0.00     0.043 C 
HETATM   16  C3  UNL     1     -16.787   4.298  44.439  1.00  0.00     0.043 C 
ENDBRANCH  10  13
ENDBRANCH   6   9
ENDBRANCH   3   6
ENDBRANCH   1   2
BRANCH   1  17
HETATM   17  C9  UNL     1     -14.120  11.888  42.389  1.00  0.00     0.032 C 
BRANCH  17  18
HETATM   18  C10 UNL     1     -14.896  11.407  41.202  1.00  0.00     0.060 C 
BRANCH  18  19
HETATM   19  C11 UNL     1     -13.996  10.678  40.260  1.00  0.00     0.025 A 
HETATM   20  C12 UNL     1     -13.003  11.180  39.453  1.00  0.00     0.114 A 
HETATM   21  N3  UNL     1     -12.461  10.154  38.762  1.00  0.00    -0.360 N 
HETATM   22  C13 UNL     1     -13.069   9.027  39.098  1.00  0.00     0.180 A 
ATOM     23  H3  UNL     1     -11.701  10.235  38.086  1.00  0.00     0.166 HD
HETATM   24  N4  UNL     1     -14.004   9.340  40.009  1.00  0.00    -0.355 N 
ATOM     25  H4  UNL     1     -14.633   8.670  40.452  1.00  0.00     0.166 HD
ENDBRANCH  18  19
ENDBRANCH  17  18
ENDBRANCH   1  17
BRANCH   1  26
HETATM   26  C14 UNL     1     -13.932  11.979  44.838  1.00  0.00     0.099 C 
BRANCH  26  27
HETATM   27  S1  UNL     1     -13.939  11.115  46.357  1.00  0.00    -0.166 SA
BRANCH  27  28
HETATM   28  C15 UNL     1     -15.328  10.286  46.924  1.00  0.00     0.084 C 
BRANCH  28  29
HETATM   29  C16 UNL     1     -15.265   9.130  47.818  1.00  0.00    -0.023 C 
HETATM   30  C18 UNL     1     -16.689   8.891  48.357  1.00  0.00     0.011 C 
HETATM   31  C19 UNL     1     -17.564   8.250  47.305  1.00  0.00     0.001 C 
HETATM   32  C20 UNL     1     -17.067   6.840  47.048  1.00  0.00     0.000 C 
HETATM   33  C21 UNL     1     -15.600   6.732  47.483  1.00  0.00     0.001 C 
HETATM   34  C22 UNL     1     -14.871   7.916  46.951  1.00  0.00     0.011 C 
BRANCH  29  35
HETATM   35  C17 UNL     1     -14.363   9.143  48.985  1.00  0.00     0.096 C 
HETATM   36  S2  UNL     1     -15.248   9.648  50.512  1.00  0.00    -0.097 SA
ENDBRANCH  29  35
ENDBRANCH  28  29
ENDBRANCH  27  28
ENDBRANCH  26  27
ENDBRANCH   1  26
TORSDOF 12
ENDMDL
MODEL 2
REMARK VINA RESULT: -7.114989922      3.383      5.343
REMARK  12 active torsions:
REMARK  status: ('A' for Active; 'I' for Inactive)
REMARK    1  A    between atoms: C4_4  and  C5_5 
REMARK       I    between atoms: C5_5  and  N1_7 
REMARK    2  A    between atoms: N1_7  and  C6_9 
REMARK    3  A    between atoms: C6_9  and  C7_12 
REMARK       I    between atoms: C7_12  and  N2_14 
REMARK    4  A    between atoms: N2_14  and  C8_16 
REMARK    5  A    between atoms: C8_16  and  C9_17 
REMARK    6  A    between atoms: C8_16  and  C14_26 
REMARK    7  A    between atoms: C9_17  and  C10_18 
REMARK    8  A    between atoms: C10_18  and  C11_19 
REMARK    9  A    between atoms: C14_26  and  S1_27 
REMARK   10  A    between atoms: S1_27  and  C15_28 
REMARK   11  A    between atoms: C15_28  and  C16_29 
REMARK   12  A    between atoms: C16_29  and  C17_30 
ROOT
HETATM    1  C8  UNL     1     -10.303   7.379  46.342  1.00  0.00     0.094 C 
ENDROOT
BRANCH   1   2
HETATM    2  N2  UNL     1     -11.174   7.403  45.235  1.00  0.00    -0.351 N 
HETATM    3  C7  UNL     1     -11.369   8.436  44.308  1.00  0.00     0.278 C 
HETATM    4  O2  UNL     1     -10.778   9.526  44.382  1.00  0.00    -0.268 OA
ATOM      5  H2  UNL     1     -11.734   6.562  45.089  1.00  0.00     0.163 HD
BRANCH   3   6
HETATM    6  C6  UNL     1     -12.326   8.270  43.155  1.00  0.00     0.271 C 
HETATM    7 CL1  UNL     1     -12.776   9.848  42.463  1.00  0.00    -0.068 Cl
HETATM    8 CL2  UNL     1     -11.557   7.275  41.915  1.00  0.00    -0.068 Cl
BRANCH   6   9
HETATM    9  N1  UNL     1     -13.526   7.658  43.684  1.00  0.00    -0.315 N 
HETATM   10  C5  UNL     1     -14.341   6.910  42.767  1.00  0.00     0.244 C 
HETATM   11  O1  UNL     1     -13.929   6.859  41.578  1.00  0.00    -0.269 OA
ATOM     12  H1  UNL     1     -13.783   7.754  44.667  1.00  0.00     0.166 HD
BRANCH  10  13
HETATM   13  C4  UNL     1     -15.541   6.296  43.264  1.00  0.00     0.076 C 
HETATM   14  C2  UNL     1     -15.547   5.150  43.869  1.00  0.00    -0.082 C 
HETATM   15  C1  UNL     1     -14.309   4.384  44.092  1.00  0.00     0.043 C 
HETATM   16  C3  UNL     1     -16.855   4.577  44.353  1.00  0.00     0.043 C 
ENDBRANCH  10  13
ENDBRANCH   6   9
ENDBRANCH   3   6
ENDBRANCH   1   2
BRANCH   1  17
HETATM   17  C9  UNL     1      -8.936   6.863  46.154  1.00  0.00     0.032 C 
BRANCH  17  18
HETATM   18  C10 UNL     1      -8.616   5.596  46.884  1.00  0.00     0.060 C 
BRANCH  18  19
HETATM   19  C11 UNL     1      -7.902   4.647  45.977  1.00  0.00     0.025 A 
HETATM   20  C12 UNL     1      -7.414   4.865  44.712  1.00  0.00     0.114 A 
HETATM   21  N3  UNL     1      -6.857   3.717  44.271  1.00  0.00    -0.360 N 
HETATM   22  C13 UNL     1      -6.972   2.784  45.203  1.00  0.00     0.180 A 
ATOM     23  H3  UNL     1      -6.415   3.588  43.360  1.00  0.00     0.166 HD
HETATM   24  N4  UNL     1      -7.609   3.345  46.244  1.00  0.00    -0.355 N 
ATOM     25  H4  UNL     1      -7.839   2.863  47.113  1.00  0.00     0.166 HD
ENDBRANCH  18  19
ENDBRANCH  17  18
ENDBRANCH   1  17
BRANCH   1  26
HETATM   26  C14 UNL     1     -10.936   6.749  47.578  1.00  0.00     0.099 C 
BRANCH  26  27
HETATM   27  S1  UNL     1     -12.667   6.530  47.464  1.00  0.00    -0.166 SA
BRANCH  27  28
HETATM   28  C15 UNL     1     -13.769   7.588  48.240  1.00  0.00     0.084 C 
BRANCH  28  29
HETATM   29  C16 UNL     1     -14.604   8.549  47.521  1.00  0.00    -0.023 C 
HETATM   30  C18 UNL     1     -15.515   7.743  46.573  1.00  0.00     0.011 C 
HETATM   31  C19 UNL     1     -16.636   7.077  47.337  1.00  0.00     0.001 C 
HETATM   32  C20 UNL     1     -17.572   8.148  47.865  1.00  0.00     0.000 C 
HETATM   33  C21 UNL     1     -16.824   9.484  47.939  1.00  0.00     0.001 C 
HETATM   34  C22 UNL     1     -15.499   9.238  48.573  1.00  0.00     0.011 C 
BRANCH  29  35
HETATM   35  C17 UNL     1     -13.981   9.613  46.712  1.00  0.00     0.096 C 
HETATM   36  S2  UNL     1     -12.533  10.347  47.568  1.00  0.00    -0.097 SA
ENDBRANCH  29  35
ENDBRANCH  28  29
ENDBRANCH  27  28
ENDBRANCH  26  27
ENDBRANCH   1  26
TORSDOF 12
ENDMDL
MODEL 3
REMARK VINA RESULT: -7.047004616      2.625      4.759
REMARK  12 active torsions:
REMARK  status: ('A' for Active; 'I' for Inactive)
REMARK    1  A    between atoms: C4_4  and  C5_5 
REMARK       I    between atoms: C5_5  and  N1_7 
REMARK    2  A    between atoms: N1_7  and  C6_9 
REMARK    3  A    between atoms: C6_9  and  C7_12 
REMARK       I    between atoms: C7_12  and  N2_14 
REMARK    4  A    between atoms: N2_14  and  C8_16 
REMARK    5  A    between atoms: C8_16  and  C9_17 
REMARK    6  A    between atoms: C8_16  and  C14_26 
REMARK    7  A    between atoms: C9_17  and  C10_18 
REMARK    8  A    between atoms: C10_18  and  C11_19 
REMARK    9  A    between atoms: C14_26  and  S1_27 
REMARK   10  A    between atoms: S1_27  and  C15_28 
REMARK   11  A    between atoms: C15_28  and  C16_29 
REMARK   12  A    between atoms: C16_29  and  C17_30 
ROOT
HETATM    1  C8  UNL     1     -13.156  11.687  45.684  1.00  0.00     0.094 C 
ENDROOT
BRANCH   1   2
HETATM    2  N2  UNL     1     -13.073  10.462  44.993  1.00  0.00    -0.351 N 
HETATM    3  C7  UNL     1     -13.015  10.251  43.608  1.00  0.00     0.278 C 
HETATM    4  O2  UNL     1     -13.062  11.179  42.784  1.00  0.00    -0.268 OA
ATOM      5  H2  UNL     1     -13.052   9.622  45.573  1.00  0.00     0.163 HD
BRANCH   3   6
HETATM    6  C6  UNL     1     -12.891   8.859  43.043  1.00  0.00     0.271 C 
HETATM    7 CL1  UNL     1     -12.709   8.900  41.271  1.00  0.00    -0.068 Cl
HETATM    8 CL2  UNL     1     -11.484   8.073  43.767  1.00  0.00    -0.068 Cl
BRANCH   6   9
HETATM    9  N1  UNL     1     -14.125   8.166  43.347  1.00  0.00    -0.315 N 
HETATM   10  C5  UNL     1     -14.202   6.777  42.990  1.00  0.00     0.244 C 
HETATM   11  O1  UNL     1     -13.178   6.290  42.440  1.00  0.00    -0.269 OA
ATOM     12  H1  UNL     1     -14.906   8.644  43.795  1.00  0.00     0.166 HD
BRANCH  10  13
HETATM   13  C4  UNL     1     -15.417   6.065  43.275  1.00  0.00     0.076 C 
HETATM   14  C2  UNL     1     -15.488   5.118  44.157  1.00  0.00    -0.082 C 
HETATM   15  C1  UNL     1     -14.313   4.696  44.938  1.00  0.00     0.043 C 
HETATM   16  C3  UNL     1     -16.804   4.420  44.387  1.00  0.00     0.043 C 
ENDBRANCH  10  13
ENDBRANCH   6   9
ENDBRANCH   3   6
ENDBRANCH   1   2
BRANCH   1  17
HETATM   17  C9  UNL     1     -12.187  11.958  46.759  1.00  0.00     0.032 C 
BRANCH  17  18
HETATM   18  C10 UNL     1     -11.370  10.786  47.206  1.00  0.00     0.060 C 
BRANCH  18  19
HETATM   19  C11 UNL     1     -11.168  10.834  48.686  1.00  0.00     0.025 A 
HETATM   20  C12 UNL     1     -11.970  10.334  49.683  1.00  0.00     0.114 A 
HETATM   21  N3  UNL     1     -11.397  10.622  50.871  1.00  0.00    -0.360 N 
HETATM   22  C13 UNL     1     -10.267  11.281  50.667  1.00  0.00     0.180 A 
ATOM     23  H3  UNL     1     -11.775  10.370  51.784  1.00  0.00     0.166 HD
HETATM   24  N4  UNL     1     -10.123  11.413  49.338  1.00  0.00    -0.355 N 
ATOM     25  H4  UNL     1      -9.341  11.881  48.881  1.00  0.00     0.166 HD
ENDBRANCH  18  19
ENDBRANCH  17  18
ENDBRANCH   1  17
BRANCH   1  26
HETATM   26  C14 UNL     1     -14.570  12.000  46.161  1.00  0.00     0.099 C 
BRANCH  26  27
HETATM   27  S1  UNL     1     -15.497  10.594  46.627  1.00  0.00    -0.166 SA
BRANCH  27  28
HETATM   28  C15 UNL     1     -15.121   9.682  48.029  1.00  0.00     0.084 C 
BRANCH  28  29
HETATM   29  C16 UNL     1     -15.354   8.242  48.138  1.00  0.00    -0.023 C 
HETATM   30  C18 UNL     1     -16.411   8.033  49.241  1.00  0.00     0.011 C 
HETATM   31  C19 UNL     1     -17.791   8.395  48.744  1.00  0.00     0.001 C 
HETATM   32  C20 UNL     1     -18.210   7.389  47.688  1.00  0.00     0.000 C 
HETATM   33  C21 UNL     1     -16.962   6.721  47.099  1.00  0.00     0.001 C 
HETATM   34  C22 UNL     1     -15.966   7.786  46.796  1.00  0.00     0.011 C 
BRANCH  29  35
HETATM   35  C17 UNL     1     -14.235   7.330  48.439  1.00  0.00     0.096 C 
HETATM   36  S2  UNL     1     -12.925   7.427  47.158  1.00  0.00    -0.097 SA
ENDBRANCH  29  35
ENDBRANCH  28  29
ENDBRANCH  27  28
ENDBRANCH  26  27
ENDBRANCH   1  26
TORSDOF 12
ENDMDL
MODEL 4
REMARK VINA RESULT: -6.929517928      2.407      4.185
REMARK  12 active torsions:
REMARK  status: ('A' for Active; 'I' for Inactive)
REMARK    1  A    between atoms: C4_4  and  C5_5 
REMARK       I    between atoms: C5_5  and  N1_7 
REMARK    2  A    between atoms: N1_7  and  C6_9 
REMARK    3  A    between atoms: C6_9  and  C7_12 
REMARK       I    between atoms: C7_12  and  N2_14 
REMARK    4  A    between atoms: N2_14  and  C8_16 
REMARK    5  A    between atoms: C8_16  and  C9_17 
REMARK    6  A    between atoms: C8_16  and  C14_26 
REMARK    7  A    between atoms: C9_17  and  C10_18 
REMARK    8  A    between atoms: C10_18  and  C11_19 
REMARK    9  A    between atoms: C14_26  and  S1_27 
REMARK   10  A    between atoms: S1_27  and  C15_28 
REMARK   11  A    between atoms: C15_28  and  C16_29 
REMARK   12  A    between atoms: C16_29  and  C17_30 
ROOT
HETATM    1  C8  UNL     1     -12.950   8.307  42.672  1.00  0.00     0.094 C 
ENDROOT
BRANCH   1   2
HETATM    2  N2  UNL     1     -13.641   7.485  43.585  1.00  0.00    -0.351 N 
HETATM    3  C7  UNL     1     -14.630   6.530  43.314  1.00  0.00     0.278 C 
HETATM    4  O2  UNL     1     -15.056   6.309  42.167  1.00  0.00    -0.268 OA
ATOM      5  H2  UNL     1     -13.389   7.599  44.567  1.00  0.00     0.163 HD
BRANCH   3   6
HETATM    6  C6  UNL     1     -15.239   5.710  44.424  1.00  0.00     0.271 C 
HETATM    7 CL1  UNL     1     -16.989   5.490  44.173  1.00  0.00    -0.068 Cl
HETATM    8 CL2  UNL     1     -14.442   4.135  44.470  1.00  0.00    -0.068 Cl
BRANCH   6   9
HETATM    9  N1  UNL     1     -15.055   6.456  45.651  1.00  0.00    -0.315 N 
HETATM   10  C5  UNL     1     -15.675   5.931  46.835  1.00  0.00     0.244 C 
HETATM   11  O1  UNL     1     -16.326   4.862  46.691  1.00  0.00    -0.269 OA
ATOM     12  H1  UNL     1     -14.509   7.317  45.673  1.00  0.00     0.166 HD
BRANCH  10  13
HETATM   13  C4  UNL     1     -15.514   6.653  48.067  1.00  0.00     0.076 C 
HETATM   14  C2  UNL     1     -16.336   7.576  48.456  1.00  0.00    -0.082 C 
HETATM   15  C1  UNL     1     -17.510   7.958  47.652  1.00  0.00     0.043 C 
HETATM   16  C3  UNL     1     -16.086   8.286  49.761  1.00  0.00     0.043 C 
ENDBRANCH  10  13
ENDBRANCH   6   9
ENDBRANCH   3   6
ENDBRANCH   1   2
BRANCH   1  17
HETATM   17  C9  UNL     1     -12.388   7.694  41.456  1.00  0.00     0.032 C 
BRANCH  17  18
HETATM   18  C10 UNL     1     -13.162   7.927  40.196  1.00  0.00     0.060 C 
BRANCH  18  19
HETATM   19  C11 UNL     1     -13.255   9.391  39.912  1.00  0.00     0.025 A 
HETATM   20  C12 UNL     1     -14.146  10.310  40.409  1.00  0.00     0.114 A 
HETATM   21  N3  UNL     1     -13.860  11.512  39.863  1.00  0.00    -0.360 N 
HETATM   22  C13 UNL     1     -12.827  11.391  39.045  1.00  0.00     0.180 A 
ATOM     23  H3  UNL     1     -14.362  12.380  40.053  1.00  0.00     0.166 HD
HETATM   24  N4  UNL     1     -12.454  10.101  39.070  1.00  0.00    -0.355 N 
ATOM     25  H4  UNL     1     -11.681   9.708  38.535  1.00  0.00     0.166 HD
ENDBRANCH  18  19
ENDBRANCH  17  18
ENDBRANCH   1  17
BRANCH   1  26
HETATM   26  C14 UNL     1     -11.906   9.190  43.346  1.00  0.00     0.099 C 
BRANCH  26  27
HETATM   27  S1  UNL     1     -11.499   8.703  44.974  1.00  0.00    -0.166 SA
BRANCH  27  28
HETATM   28  C15 UNL     1     -11.248   9.844  46.228  1.00  0.00     0.084 C 
BRANCH  28  29
HETATM   29  C16 UNL     1     -12.316  10.324  47.104  1.00  0.00    -0.023 C 
HETATM   30  C18 UNL     1     -12.563  11.805  46.754  1.00  0.00     0.011 C 
HETATM   31  C19 UNL     1     -13.330  11.934  45.459  1.00  0.00     0.001 C 
HETATM   32  C20 UNL     1     -14.736  11.404  45.669  1.00  0.00     0.000 C 
HETATM   33  C21 UNL     1     -14.746  10.452  46.870  1.00  0.00     0.001 C 
HETATM   34  C22 UNL     1     -13.586   9.528  46.738  1.00  0.00     0.011 C 
BRANCH  29  35
HETATM   35  C17 UNL     1     -12.162  10.251  48.569  1.00  0.00     0.096 C 
HETATM   36  S2  UNL     1     -12.266   8.521  49.171  1.00  0.00    -0.097 SA
ENDBRANCH  29  35
ENDBRANCH  28  29
ENDBRANCH  27  28
ENDBRANCH  26  27
ENDBRANCH   1  26
TORSDOF 12
ENDMDL
MODEL 5
REMARK VINA RESULT: -6.909007877      3.338      5.164
REMARK  12 active torsions:
REMARK  status: ('A' for Active; 'I' for Inactive)
REMARK    1  A    between atoms: C4_4  and  C5_5 
REMARK       I    between atoms: C5_5  and  N1_7 
REMARK    2  A    between atoms: N1_7  and  C6_9 
REMARK    3  A    between atoms: C6_9  and  C7_12 
REMARK       I    between atoms: C7_12  and  N2_14 
REMARK    4  A    between atoms: N2_14  and  C8_16 
REMARK    5  A    between atoms: C8_16  and  C9_17 
REMARK    6  A    between atoms: C8_16  and  C14_26 
REMARK    7  A    between atoms: C9_17  and  C10_18 
REMARK    8  A    between atoms: C10_18  and  C11_19 
REMARK    9  A    between atoms: C14_26  and  S1_27 
REMARK   10  A    between atoms: S1_27  and  C15_28 
REMARK   11  A    between atoms: C15_28  and  C16_29 
REMARK   12  A    between atoms: C16_29  and  C17_30 
ROOT
HETATM    1  C8  UNL     1     -10.602   7.339  46.696  1.00  0.00     0.094 C 
ENDROOT
BRANCH   1   2
HETATM    2  N2  UNL     1     -11.413   7.367  45.544  1.00  0.00    -0.351 N 
HETATM    3  C7  UNL     1     -11.547   8.398  44.604  1.00  0.00     0.278 C 
HETATM    4  O2  UNL     1     -10.948   9.482  44.705  1.00  0.00    -0.268 OA
ATOM      5  H2  UNL     1     -11.974   6.532  45.372  1.00  0.00     0.163 HD
BRANCH   3   6
HETATM    6  C6  UNL     1     -12.443   8.237  43.402  1.00  0.00     0.271 C 
HETATM    7 CL1  UNL     1     -12.914   9.822  42.736  1.00  0.00    -0.068 Cl
HETATM    8 CL2  UNL     1     -11.584   7.306  42.172  1.00  0.00    -0.068 Cl
BRANCH   6   9
HETATM    9  N1  UNL     1     -13.646   7.572  43.856  1.00  0.00    -0.315 N 
HETATM   10  C5  UNL     1     -14.418   6.868  42.870  1.00  0.00     0.244 C 
HETATM   11  O1  UNL     1     -13.970   6.900  41.693  1.00  0.00    -0.269 OA
ATOM     12  H1  UNL     1     -13.932   7.601  44.835  1.00  0.00     0.166 HD
BRANCH  10  13
HETATM   13  C4  UNL     1     -15.619   6.202  43.292  1.00  0.00     0.076 C 
HETATM   14  C2  UNL     1     -15.617   5.036  43.857  1.00  0.00    -0.082 C 
HETATM   15  C1  UNL     1     -14.367   4.299  44.109  1.00  0.00     0.043 C 
HETATM   16  C3  UNL     1     -16.926   4.408  44.261  1.00  0.00     0.043 C 
ENDBRANCH  10  13
ENDBRANCH   6   9
ENDBRANCH   3   6
ENDBRANCH   1   2
BRANCH   1  17
HETATM   17  C9  UNL     1      -9.444   6.430  46.722  1.00  0.00     0.032 C 
BRANCH  17  18
HETATM   18  C10 UNL     1      -8.419   6.655  45.654  1.00  0.00     0.060 C 
BRANCH  18  19
HETATM   19  C11 UNL     1      -7.546   5.450  45.517  1.00  0.00     0.025 A 
HETATM   20  C12 UNL     1      -6.486   5.060  46.299  1.00  0.00     0.114 A 
HETATM   21  N3  UNL     1      -5.986   3.913  45.791  1.00  0.00    -0.360 N 
HETATM   22  C13 UNL     1      -6.686   3.562  44.723  1.00  0.00     0.180 A 
ATOM     23  H3  UNL     1      -5.193   3.396  46.171  1.00  0.00     0.166 HD
HETATM   24  N4  UNL     1      -7.636   4.495  44.552  1.00  0.00    -0.355 N 
ATOM     25  H4  UNL     1      -8.330   4.488  43.804  1.00  0.00     0.166 HD
ENDBRANCH  18  19
ENDBRANCH  17  18
ENDBRANCH   1  17
BRANCH   1  26
HETATM   26  C14 UNL     1     -11.409   7.198  47.983  1.00  0.00     0.099 C 
BRANCH  26  27
HETATM   27  S1  UNL     1     -12.615   8.442  48.211  1.00  0.00    -0.166 SA
BRANCH  27  28
HETATM   28  C15 UNL     1     -14.232   8.249  47.676  1.00  0.00     0.084 C 
BRANCH  28  29
HETATM   29  C16 UNL     1     -15.199   7.375  48.339  1.00  0.00    -0.023 C 
HETATM   30  C18 UNL     1     -16.481   8.200  48.564  1.00  0.00     0.011 C 
HETATM   31  C19 UNL     1     -17.251   8.366  47.275  1.00  0.00     0.001 C 
HETATM   32  C20 UNL     1     -17.798   7.014  46.855  1.00  0.00     0.000 C 
HETATM   33  C21 UNL     1     -16.970   5.905  47.515  1.00  0.00     0.001 C 
HETATM   34  C22 UNL     1     -15.529   6.240  47.346  1.00  0.00     0.011 C 
BRANCH  29  35
HETATM   35  C17 UNL     1     -14.865   6.743  49.629  1.00  0.00     0.096 C 
HETATM   36  S2  UNL     1     -15.982   7.318  50.967  1.00  0.00    -0.097 SA
ENDBRANCH  29  35
ENDBRANCH  28  29
ENDBRANCH  27  28
ENDBRANCH  26  27
ENDBRANCH   1  26
TORSDOF 12
ENDMDL
