MODEL 1
REMARK VINA RESULT: -6.129496627      0.000      0.000
REMARK  16 active torsions:
REMARK  status: ('A' for Active; 'I' for Inactive)
REMARK    1  A    between atoms: C2_2  and  N1_3 
REMARK    2  A    between atoms: C3_5  and  N2_6 
REMARK    3  A    between atoms: C3_5  and  O2_36 
REMARK    4  A    between atoms: N2_6  and  C4_8 
REMARK    5  A    between atoms: C4_8  and  C5_9 
REMARK    6  A    between atoms: N4_16  and  C9_17 
REMARK    7  A    between atoms: C9_17  and  C10_18 
REMARK    8  A    between atoms: C10_18  and  C11_19 
REMARK    9  A    between atoms: C11_19  and  C12_20 
REMARK   10  A    between atoms: C12_20  and  C13_21 
REMARK   11  A    between atoms: C13_21  and  N5_22 
REMARK   12  A    between atoms: N5_22  and  C14_25 
REMARK   13  A    between atoms: C14_25  and  C15_26 
REMARK   14  A    between atoms: C15_26  and  O1_27 
REMARK   15  A    between atoms: O1_27  and  C16_28 
REMARK   16  A    between atoms: O2_36  and  C22_37 
ROOT
HETATM    1  C5  UNL     1     -11.999   8.913  43.759  1.00  0.00     0.266 C 
HETATM    2  C6  UNL     1     -12.115   9.848  42.595  1.00  0.00     0.269 C 
HETATM    3  N3  UNL     1     -13.352   9.558  41.883  1.00  0.00    -0.071 N 
ATOM      4  H31 UNL     1     -13.633  10.315  41.261  1.00  0.00     0.277 HD
ATOM      5  H32 UNL     1     -14.168   9.570  42.495  1.00  0.00     0.277 HD
HETATM    6  C7  UNL     1     -13.196   8.309  41.197  1.00  0.00     0.262 C 
HETATM    7  C8  UNL     1     -12.439   7.334  42.066  1.00  0.00     0.300 C 
HETATM    8  N4  UNL     1     -12.541   7.608  43.464  1.00  0.00     0.098 N 
ENDROOT
BRANCH   8   9
HETATM    9  C9  UNL     1     -13.829   7.389  44.035  1.00  0.00     0.273 C 
BRANCH   9  10
HETATM   10  C10 UNL     1     -14.264   5.953  43.863  1.00  0.00     0.030 C 
BRANCH  10  11
HETATM   11  C11 UNL     1     -15.771   5.829  43.774  1.00  0.00     0.003 C 
BRANCH  11  12
HETATM   12  C12 UNL     1     -16.208   4.752  44.727  1.00  0.00     0.027 C 
BRANCH  12  13
HETATM   13  C13 UNL     1     -16.462   5.249  46.111  1.00  0.00     0.232 C 
BRANCH  13  14
HETATM   14  N5  UNL     1     -17.518   6.229  46.138  1.00  0.00    -0.073 N 
ATOM     15  H52 UNL     1     -17.609   6.721  45.248  1.00  0.00     0.277 HD
ATOM     16  H51 UNL     1     -18.442   5.798  46.162  1.00  0.00     0.277 HD
BRANCH  14  17
HETATM   17  C14 UNL     1     -17.306   7.152  47.265  1.00  0.00     0.258 C 
BRANCH  17  18
HETATM   18  C15 UNL     1     -15.938   7.740  47.093  1.00  0.00     0.203 C 
BRANCH  18  19
HETATM   19  O1  UNL     1     -15.865   9.084  46.835  1.00  0.00    -0.349 OA
BRANCH  19  20
HETATM   20  C16 UNL     1     -14.833   9.939  46.640  1.00  0.00     0.072 A 
HETATM   21  C17 UNL     1     -13.759   9.970  47.496  1.00  0.00     0.060 A 
HETATM   22  C18 UNL     1     -12.678  10.846  47.321  1.00  0.00     0.038 A 
HETATM   23 CL1  UNL     1     -11.352  10.826  48.451  1.00  0.00    -0.084 Cl
HETATM   24  C19 UNL     1     -12.694  11.710  46.247  1.00  0.00     0.048 A 
HETATM   25  C20 UNL     1     -13.780  11.664  45.398  1.00  0.00     0.038 A 
HETATM   26 CL2  UNL     1     -13.776  12.775  44.033  1.00  0.00    -0.084 Cl
HETATM   27  C21 UNL     1     -14.832  10.822  45.555  1.00  0.00     0.060 A 
ENDBRANCH  19  20
ENDBRANCH  18  19
ENDBRANCH  17  18
ENDBRANCH  14  17
ENDBRANCH  13  14
ENDBRANCH  12  13
ENDBRANCH  11  12
ENDBRANCH  10  11
ENDBRANCH   9  10
ENDBRANCH   8   9
BRANCH   1  28
HETATM   28  C4  UNL     1     -10.573   8.680  44.212  1.00  0.00     0.161 C 
BRANCH  28  29
HETATM   29  N2  UNL     1     -10.337   7.436  44.856  1.00  0.00    -0.354 N 
ATOM     30  H2  UNL     1     -10.653   6.605  44.357  1.00  0.00     0.163 HD
BRANCH  29  31
HETATM   31  C3  UNL     1      -9.717   7.216  46.102  1.00  0.00     0.215 C 
HETATM   32  N1  UNL     1     -10.335   7.109  47.210  1.00  0.00    -0.357 N 
ATOM     33  H1  UNL     1      -9.791   6.950  48.058  1.00  0.00     0.163 HD
BRANCH  32  34
HETATM   34  C2  UNL     1     -11.753   7.200  47.317  1.00  0.00     0.118 C 
HETATM   35  C1  UNL     1     -12.431   5.834  47.232  1.00  0.00     0.026 C 
ENDBRANCH  32  34
BRANCH  31  36
HETATM   36  O2  UNL     1      -8.338   7.112  46.124  1.00  0.00    -0.312 OA
BRANCH  36  37
HETATM   37  C22 UNL     1      -7.635   5.904  45.967  1.00  0.00     0.060 C 
HETATM   38  C23 UNL     1      -7.582   5.412  44.554  1.00  0.00     0.046 C 
HETATM   39  C24 UNL     1      -6.214   6.154  46.431  1.00  0.00     0.046 C 
HETATM   40  C25 UNL     1      -8.196   4.795  46.823  1.00  0.00     0.046 C 
ENDBRANCH  36  37
ENDBRANCH  31  36
ENDBRANCH  29  31
ENDBRANCH  28  29
ENDBRANCH   1  28
TORSDOF 16
ENDMDL
MODEL 2
REMARK VINA RESULT: -6.128911041      3.502      7.253
REMARK  16 active torsions:
REMARK  status: ('A' for Active; 'I' for Inactive)
REMARK    1  A    between atoms: C2_2  and  N1_3 
REMARK    2  A    between atoms: C3_5  and  N2_6 
REMARK    3  A    between atoms: C3_5  and  O2_36 
REMARK    4  A    between atoms: N2_6  and  C4_8 
REMARK    5  A    between atoms: C4_8  and  C5_9 
REMARK    6  A    between atoms: N4_16  and  C9_17 
REMARK    7  A    between atoms: C9_17  and  C10_18 
REMARK    8  A    between atoms: C10_18  and  C11_19 
REMARK    9  A    between atoms: C11_19  and  C12_20 
REMARK   10  A    between atoms: C12_20  and  C13_21 
REMARK   11  A    between atoms: C13_21  and  N5_22 
REMARK   12  A    between atoms: N5_22  and  C14_25 
REMARK   13  A    between atoms: C14_25  and  C15_26 
REMARK   14  A    between atoms: C15_26  and  O1_27 
REMARK   15  A    between atoms: O1_27  and  C16_28 
REMARK   16  A    between atoms: O2_36  and  C22_37 
ROOT
HETATM    1  C5  UNL     1     -16.162   6.160  45.703  1.00  0.00     0.266 C 
HETATM    2  C6  UNL     1     -15.775   4.976  46.534  1.00  0.00     0.269 C 
HETATM    3  N3  UNL     1     -14.399   4.615  46.220  1.00  0.00    -0.071 N 
ATOM      4  H31 UNL     1     -13.980   4.011  46.928  1.00  0.00     0.277 HD
ATOM      5  H32 UNL     1     -13.756   5.402  46.311  1.00  0.00     0.277 HD
HETATM    6  C7  UNL     1     -14.373   4.031  44.911  1.00  0.00     0.262 C 
HETATM    7  C8  UNL     1     -15.310   4.778  43.994  1.00  0.00     0.300 C 
HETATM    8  N4  UNL     1     -15.555   6.127  44.394  1.00  0.00     0.098 N 
ENDROOT
BRANCH   8   9
HETATM    9  C9  UNL     1     -14.442   7.011  44.265  1.00  0.00     0.273 C 
BRANCH   9  10
HETATM   10  C10 UNL     1     -13.646   6.706  43.020  1.00  0.00     0.030 C 
BRANCH  10  11
HETATM   11  C11 UNL     1     -14.041   7.604  41.866  1.00  0.00     0.003 C 
BRANCH  11  12
HETATM   12  C12 UNL     1     -12.821   7.844  41.022  1.00  0.00     0.027 C 
BRANCH  12  13
HETATM   13  C13 UNL     1     -13.101   8.624  39.780  1.00  0.00     0.232 C 
BRANCH  13  14
HETATM   14  N5  UNL     1     -12.606   9.973  39.877  1.00  0.00    -0.073 N 
ATOM     15  H52 UNL     1     -12.095  10.134  40.745  1.00  0.00     0.277 HD
ATOM     16  H51 UNL     1     -11.844  10.152  39.223  1.00  0.00     0.277 HD
BRANCH  14  17
HETATM   17  C14 UNL     1     -13.720  10.921  39.704  1.00  0.00     0.258 C 
BRANCH  17  18
HETATM   18  C15 UNL     1     -14.195  11.287  41.078  1.00  0.00     0.203 C 
BRANCH  18  19
HETATM   19  O1  UNL     1     -13.281  11.199  42.097  1.00  0.00    -0.349 OA
BRANCH  19  20
HETATM   20  C16 UNL     1     -13.377  10.860  43.405  1.00  0.00     0.072 A 
HETATM   21  C17 UNL     1     -12.393  10.131  44.027  1.00  0.00     0.060 A 
HETATM   22  C18 UNL     1     -12.466   9.763  45.379  1.00  0.00     0.038 A 
HETATM   23 CL1  UNL     1     -11.178   8.835  46.098  1.00  0.00    -0.084 Cl
HETATM   24  C19 UNL     1     -13.568  10.150  46.111  1.00  0.00     0.048 A 
HETATM   25  C20 UNL     1     -14.544  10.883  45.469  1.00  0.00     0.038 A 
HETATM   26 CL2  UNL     1     -15.940  11.367  46.426  1.00  0.00    -0.084 Cl
HETATM   27  C21 UNL     1     -14.487  11.245  44.163  1.00  0.00     0.060 A 
ENDBRANCH  19  20
ENDBRANCH  18  19
ENDBRANCH  17  18
ENDBRANCH  14  17
ENDBRANCH  13  14
ENDBRANCH  12  13
ENDBRANCH  11  12
ENDBRANCH  10  11
ENDBRANCH   9  10
ENDBRANCH   8   9
BRANCH   1  28
HETATM   28  C4  UNL     1     -17.654   6.274  45.467  1.00  0.00     0.161 C 
BRANCH  28  29
HETATM   29  N2  UNL     1     -18.364   7.038  46.432  1.00  0.00    -0.354 N 
ATOM     30  H2  UNL     1     -18.902   7.826  46.073  1.00  0.00     0.163 HD
BRANCH  29  31
HETATM   31  C3  UNL     1     -18.410   6.835  47.826  1.00  0.00     0.215 C 
HETATM   32  N1  UNL     1     -17.752   7.512  48.680  1.00  0.00    -0.357 N 
ATOM     33  H1  UNL     1     -17.857   7.284  49.668  1.00  0.00     0.163 HD
BRANCH  32  34
HETATM   34  C2  UNL     1     -16.876   8.576  48.314  1.00  0.00     0.118 C 
HETATM   35  C1  UNL     1     -15.424   8.286  48.689  1.00  0.00     0.026 C 
ENDBRANCH  32  34
BRANCH  31  36
HETATM   36  O2  UNL     1     -19.227   5.825  48.300  1.00  0.00    -0.312 OA
BRANCH  36  37
HETATM   37  C22 UNL     1     -20.155   5.985  49.345  1.00  0.00     0.060 C 
HETATM   38  C23 UNL     1     -20.689   7.378  49.473  1.00  0.00     0.046 C 
HETATM   39  C24 UNL     1     -21.319   5.060  49.051  1.00  0.00     0.046 C 
HETATM   40  C25 UNL     1     -19.590   5.581  50.685  1.00  0.00     0.046 C 
ENDBRANCH  36  37
ENDBRANCH  31  36
ENDBRANCH  29  31
ENDBRANCH  28  29
ENDBRANCH   1  28
TORSDOF 16
ENDMDL
MODEL 3
REMARK VINA RESULT: -6.051065013      3.408      6.949
REMARK  16 active torsions:
REMARK  status: ('A' for Active; 'I' for Inactive)
REMARK    1  A    between atoms: C2_2  and  N1_3 
REMARK    2  A    between atoms: C3_5  and  N2_6 
REMARK    3  A    between atoms: C3_5  and  O2_36 
REMARK    4  A    between atoms: N2_6  and  C4_8 
REMARK    5  A    between atoms: C4_8  and  C5_9 
REMARK    6  A    between atoms: N4_16  and  C9_17 
REMARK    7  A    between atoms: C9_17  and  C10_18 
REMARK    8  A    between atoms: C10_18  and  C11_19 
REMARK    9  A    between atoms: C11_19  and  C12_20 
REMARK   10  A    between atoms: C12_20  and  C13_21 
REMARK   11  A    between atoms: C13_21  and  N5_22 
REMARK   12  A    between atoms: N5_22  and  C14_25 
REMARK   13  A    between atoms: C14_25  and  C15_26 
REMARK   14  A    between atoms: C15_26  and  O1_27 
REMARK   15  A    between atoms: O1_27  and  C16_28 
REMARK   16  A    between atoms: O2_36  and  C22_37 
ROOT
HETATM    1  C5  UNL     1     -14.904   6.583  46.077  1.00  0.00     0.266 C 
HETATM    2  C6  UNL     1     -14.756   5.189  46.603  1.00  0.00     0.269 C 
HETATM    3  N3  UNL     1     -13.928   4.426  45.679  1.00  0.00    -0.071 N 
ATOM      4  H31 UNL     1     -13.558   3.573  46.096  1.00  0.00     0.277 HD
ATOM      5  H32 UNL     1     -13.037   4.882  45.482  1.00  0.00     0.277 HD
HETATM    6  C7  UNL     1     -14.691   4.174  44.492  1.00  0.00     0.262 C 
HETATM    7  C8  UNL     1     -15.505   5.394  44.133  1.00  0.00     0.300 C 
HETATM    8  N4  UNL     1     -14.964   6.617  44.635  1.00  0.00     0.098 N 
ENDROOT
BRANCH   8   9
HETATM    9  C9  UNL     1     -13.742   7.036  44.029  1.00  0.00     0.273 C 
BRANCH   9  10
HETATM   10  C10 UNL     1     -13.947   7.381  42.574  1.00  0.00     0.030 C 
BRANCH  10  11
HETATM   11  C11 UNL     1     -12.652   7.798  41.908  1.00  0.00     0.003 C 
BRANCH  11  12
HETATM   12  C12 UNL     1     -12.799   7.588  40.427  1.00  0.00     0.027 C 
BRANCH  12  13
HETATM   13  C13 UNL     1     -13.063   8.848  39.671  1.00  0.00     0.232 C 
BRANCH  13  14
HETATM   14  N5  UNL     1     -12.647  10.010  40.414  1.00  0.00    -0.073 N 
ATOM     15  H52 UNL     1     -12.460   9.794  41.393  1.00  0.00     0.277 HD
ATOM     16  H51 UNL     1     -11.711  10.321  40.151  1.00  0.00     0.277 HD
BRANCH  14  17
HETATM   17  C14 UNL     1     -13.649  11.078  40.262  1.00  0.00     0.258 C 
BRANCH  17  18
HETATM   18  C15 UNL     1     -14.131  11.419  41.640  1.00  0.00     0.203 C 
BRANCH  18  19
HETATM   19  O1  UNL     1     -13.283  11.146  42.682  1.00  0.00    -0.349 OA
BRANCH  19  20
HETATM   20  C16 UNL     1     -13.481  10.854  43.990  1.00  0.00     0.072 A 
HETATM   21  C17 UNL     1     -14.685  11.102  44.602  1.00  0.00     0.060 A 
HETATM   22  C18 UNL     1     -14.918  10.813  45.955  1.00  0.00     0.038 A 
HETATM   23 CL1  UNL     1     -16.474  11.158  46.661  1.00  0.00    -0.084 Cl
HETATM   24  C19 UNL     1     -13.898  10.259  46.698  1.00  0.00     0.048 A 
HETATM   25  C20 UNL     1     -12.697  10.017  46.065  1.00  0.00     0.038 A 
HETATM   26 CL2  UNL     1     -11.411   9.306  47.035  1.00  0.00    -0.084 Cl
HETATM   27  C21 UNL     1     -12.458  10.291  44.759  1.00  0.00     0.060 A 
ENDBRANCH  19  20
ENDBRANCH  18  19
ENDBRANCH  17  18
ENDBRANCH  14  17
ENDBRANCH  13  14
ENDBRANCH  12  13
ENDBRANCH  11  12
ENDBRANCH  10  11
ENDBRANCH   9  10
ENDBRANCH   8   9
BRANCH   1  28
HETATM   28  C4  UNL     1     -16.156   7.285  46.562  1.00  0.00     0.161 C 
BRANCH  28  29
HETATM   29  N2  UNL     1     -16.163   7.627  47.941  1.00  0.00    -0.354 N 
ATOM     30  H2  UNL     1     -15.328   7.380  48.470  1.00  0.00     0.163 HD
BRANCH  29  31
HETATM   31  C3  UNL     1     -17.191   8.268  48.662  1.00  0.00     0.215 C 
HETATM   32  N1  UNL     1     -17.005   9.163  49.548  1.00  0.00    -0.357 N 
ATOM     33  H1  UNL     1     -17.819   9.565  50.013  1.00  0.00     0.163 HD
BRANCH  32  34
HETATM   34  C2  UNL     1     -15.710   9.628  49.918  1.00  0.00     0.118 C 
HETATM   35  C1  UNL     1     -15.657  10.106  51.368  1.00  0.00     0.026 C 
ENDBRANCH  32  34
BRANCH  31  36
HETATM   36  O2  UNL     1     -18.495   7.897  48.389  1.00  0.00    -0.312 OA
BRANCH  36  37
HETATM   37  C22 UNL     1     -19.232   6.977  49.158  1.00  0.00     0.060 C 
HETATM   38  C23 UNL     1     -19.766   7.546  50.435  1.00  0.00     0.046 C 
HETATM   39  C24 UNL     1     -20.409   6.534  48.312  1.00  0.00     0.046 C 
HETATM   40  C25 UNL     1     -18.435   5.741  49.499  1.00  0.00     0.046 C 
ENDBRANCH  36  37
ENDBRANCH  31  36
ENDBRANCH  29  31
ENDBRANCH  28  29
ENDBRANCH   1  28
TORSDOF 16
ENDMDL
MODEL 4
REMARK VINA RESULT: -6.048066463      3.403      6.801
REMARK  16 active torsions:
REMARK  status: ('A' for Active; 'I' for Inactive)
REMARK    1  A    between atoms: C2_2  and  N1_3 
REMARK    2  A    between atoms: C3_5  and  N2_6 
REMARK    3  A    between atoms: C3_5  and  O2_36 
REMARK    4  A    between atoms: N2_6  and  C4_8 
REMARK    5  A    between atoms: C4_8  and  C5_9 
REMARK    6  A    between atoms: N4_16  and  C9_17 
REMARK    7  A    between atoms: C9_17  and  C10_18 
REMARK    8  A    between atoms: C10_18  and  C11_19 
REMARK    9  A    between atoms: C11_19  and  C12_20 
REMARK   10  A    between atoms: C12_20  and  C13_21 
REMARK   11  A    between atoms: C13_21  and  N5_22 
REMARK   12  A    between atoms: N5_22  and  C14_25 
REMARK   13  A    between atoms: C14_25  and  C15_26 
REMARK   14  A    between atoms: C15_26  and  O1_27 
REMARK   15  A    between atoms: O1_27  and  C16_28 
REMARK   16  A    between atoms: O2_36  and  C22_37 
ROOT
HETATM    1  C5  UNL     1     -15.948   6.320  45.952  1.00  0.00     0.266 C 
HETATM    2  C6  UNL     1     -15.547   5.144  46.786  1.00  0.00     0.269 C 
HETATM    3  N3  UNL     1     -14.248   4.668  46.331  1.00  0.00    -0.071 N 
ATOM      4  H31 UNL     1     -13.791   4.062  47.012  1.00  0.00     0.277 HD
ATOM      5  H32 UNL     1     -13.546   5.407  46.310  1.00  0.00     0.277 HD
HETATM    6  C7  UNL     1     -14.421   4.034  45.057  1.00  0.00     0.262 C 
HETATM    7  C8  UNL     1     -15.407   4.814  44.222  1.00  0.00     0.300 C 
HETATM    8  N4  UNL     1     -15.506   6.192  44.584  1.00  0.00     0.098 N 
ENDROOT
BRANCH   8   9
HETATM    9  C9  UNL     1     -14.358   6.984  44.285  1.00  0.00     0.273 C 
BRANCH   9  10
HETATM   10  C10 UNL     1     -13.778   6.616  42.941  1.00  0.00     0.030 C 
BRANCH  10  11
HETATM   11  C11 UNL     1     -14.018   7.699  41.909  1.00  0.00     0.003 C 
BRANCH  11  12
HETATM   12  C12 UNL     1     -12.746   7.896  41.133  1.00  0.00     0.027 C 
BRANCH  12  13
HETATM   13  C13 UNL     1     -12.945   8.610  39.838  1.00  0.00     0.232 C 
BRANCH  13  14
HETATM   14  N5  UNL     1     -14.097   9.473  39.878  1.00  0.00    -0.073 N 
ATOM     15  H52 UNL     1     -14.715   9.328  39.080  1.00  0.00     0.277 HD
ATOM     16  H51 UNL     1     -14.749   9.211  40.618  1.00  0.00     0.277 HD
BRANCH  14  17
HETATM   17  C14 UNL     1     -13.660  10.875  39.995  1.00  0.00     0.258 C 
BRANCH  17  18
HETATM   18  C15 UNL     1     -14.113  11.360  41.339  1.00  0.00     0.203 C 
BRANCH  18  19
HETATM   19  O1  UNL     1     -13.228  11.233  42.378  1.00  0.00    -0.349 OA
BRANCH  19  20
HETATM   20  C16 UNL     1     -13.354  10.822  43.662  1.00  0.00     0.072 A 
HETATM   21  C17 UNL     1     -14.486  11.094  44.391  1.00  0.00     0.060 A 
HETATM   22  C18 UNL     1     -14.644  10.684  45.723  1.00  0.00     0.038 A 
HETATM   23 CL1  UNL     1     -16.110  11.069  46.583  1.00  0.00    -0.084 Cl
HETATM   24  C19 UNL     1     -13.623   9.979  46.323  1.00  0.00     0.048 A 
HETATM   25  C20 UNL     1     -12.495   9.715  45.575  1.00  0.00     0.038 A 
HETATM   26 CL2  UNL     1     -11.206   8.812  46.364  1.00  0.00    -0.084 Cl
HETATM   27  C21 UNL     1     -12.329  10.105  44.287  1.00  0.00     0.060 A 
ENDBRANCH  19  20
ENDBRANCH  18  19
ENDBRANCH  17  18
ENDBRANCH  14  17
ENDBRANCH  13  14
ENDBRANCH  12  13
ENDBRANCH  11  12
ENDBRANCH  10  11
ENDBRANCH   9  10
ENDBRANCH   8   9
BRANCH   1  28
HETATM   28  C4  UNL     1     -17.445   6.538  45.888  1.00  0.00     0.161 C 
BRANCH  28  29
HETATM   29  N2  UNL     1     -18.146   6.295  47.099  1.00  0.00    -0.354 N 
ATOM     30  H2  UNL     1     -18.442   5.333  47.263  1.00  0.00     0.163 HD
BRANCH  29  31
HETATM   31  C3  UNL     1     -18.481   7.228  48.101  1.00  0.00     0.215 C 
HETATM   32  N1  UNL     1     -19.598   7.267  48.712  1.00  0.00    -0.357 N 
ATOM     33  H1  UNL     1     -19.740   7.984  49.423  1.00  0.00     0.163 HD
BRANCH  32  34
HETATM   34  C2  UNL     1     -20.657   6.352  48.444  1.00  0.00     0.118 C 
HETATM   35  C1  UNL     1     -20.693   5.197  49.444  1.00  0.00     0.026 C 
ENDBRANCH  32  34
BRANCH  31  36
HETATM   36  O2  UNL     1     -17.529   8.170  48.445  1.00  0.00    -0.312 OA
BRANCH  36  37
HETATM   37  C22 UNL     1     -16.617   8.021  49.505  1.00  0.00     0.060 C 
HETATM   38  C23 UNL     1     -15.188   8.224  49.109  1.00  0.00     0.046 C 
HETATM   39  C24 UNL     1     -16.970   9.067  50.544  1.00  0.00     0.046 C 
HETATM   40  C25 UNL     1     -16.726   6.672  50.174  1.00  0.00     0.046 C 
ENDBRANCH  36  37
ENDBRANCH  31  36
ENDBRANCH  29  31
ENDBRANCH  28  29
ENDBRANCH   1  28
TORSDOF 16
ENDMDL
MODEL 5
REMARK VINA RESULT: -6.043565098      2.184      3.682
REMARK  16 active torsions:
REMARK  status: ('A' for Active; 'I' for Inactive)
REMARK    1  A    between atoms: C2_2  and  N1_3 
REMARK    2  A    between atoms: C3_5  and  N2_6 
REMARK    3  A    between atoms: C3_5  and  O2_36 
REMARK    4  A    between atoms: N2_6  and  C4_8 
REMARK    5  A    between atoms: C4_8  and  C5_9 
REMARK    6  A    between atoms: N4_16  and  C9_17 
REMARK    7  A    between atoms: C9_17  and  C10_18 
REMARK    8  A    between atoms: C10_18  and  C11_19 
REMARK    9  A    between atoms: C11_19  and  C12_20 
REMARK   10  A    between atoms: C12_20  and  C13_21 
REMARK   11  A    between atoms: C13_21  and  N5_22 
REMARK   12  A    between atoms: N5_22  and  C14_25 
REMARK   13  A    between atoms: C14_25  and  C15_26 
REMARK   14  A    between atoms: C15_26  and  O1_27 
REMARK   15  A    between atoms: O1_27  and  C16_28 
REMARK   16  A    between atoms: O2_36  and  C22_37 
ROOT
HETATM    1  C5  UNL     1     -12.335   8.995  43.174  1.00  0.00     0.266 C 
HETATM    2  C6  UNL     1     -12.337   9.974  42.041  1.00  0.00     0.269 C 
HETATM    3  N3  UNL     1     -13.539   9.766  41.245  1.00  0.00    -0.071 N 
ATOM      4  H31 UNL     1     -13.749  10.556  40.636  1.00  0.00     0.277 HD
ATOM      5  H32 UNL     1     -14.391   9.794  41.806  1.00  0.00     0.277 HD
HETATM    6  C7  UNL     1     -13.395   8.536  40.524  1.00  0.00     0.262 C 
HETATM    7  C8  UNL     1     -12.738   7.497  41.400  1.00  0.00     0.300 C 
HETATM    8  N4  UNL     1     -12.914   7.727  42.798  1.00  0.00     0.098 N 
ENDROOT
BRANCH   8   9
HETATM    9  C9  UNL     1     -14.244   7.547  43.282  1.00  0.00     0.273 C 
BRANCH   9  10
HETATM   10  C10 UNL     1     -14.746   6.154  42.990  1.00  0.00     0.030 C 
BRANCH  10  11
HETATM   11  C11 UNL     1     -15.988   5.825  43.791  1.00  0.00     0.003 C 
BRANCH  11  12
HETATM   12  C12 UNL     1     -15.735   4.549  44.544  1.00  0.00     0.027 C 
BRANCH  12  13
HETATM   13  C13 UNL     1     -15.530   4.753  46.008  1.00  0.00     0.232 C 
BRANCH  13  14
HETATM   14  N5  UNL     1     -14.185   4.429  46.407  1.00  0.00    -0.073 N 
ATOM     15  H52 UNL     1     -14.159   3.891  47.273  1.00  0.00     0.277 HD
ATOM     16  H51 UNL     1     -13.757   3.737  45.792  1.00  0.00     0.277 HD
BRANCH  14  17
HETATM   17  C14 UNL     1     -13.385   5.663  46.494  1.00  0.00     0.258 C 
BRANCH  17  18
HETATM   18  C15 UNL     1     -13.160   5.931  47.952  1.00  0.00     0.203 C 
BRANCH  18  19
HETATM   19  O1  UNL     1     -13.692   7.088  48.461  1.00  0.00    -0.349 OA
BRANCH  19  20
HETATM   20  C16 UNL     1     -14.827   7.781  48.204  1.00  0.00     0.072 A 
HETATM   21  C17 UNL     1     -16.054   7.319  48.615  1.00  0.00     0.060 A 
HETATM   22  C18 UNL     1     -17.246   8.013  48.361  1.00  0.00     0.038 A 
HETATM   23 CL1  UNL     1     -18.765   7.361  48.913  1.00  0.00    -0.084 Cl
HETATM   24  C19 UNL     1     -17.183   9.206  47.674  1.00  0.00     0.048 A 
HETATM   25  C20 UNL     1     -15.943   9.654  47.271  1.00  0.00     0.038 A 
HETATM   26 CL2  UNL     1     -15.889  11.181  46.396  1.00  0.00    -0.084 Cl
HETATM   27  C21 UNL     1     -14.782   8.993  47.509  1.00  0.00     0.060 A 
ENDBRANCH  19  20
ENDBRANCH  18  19
ENDBRANCH  17  18
ENDBRANCH  14  17
ENDBRANCH  13  14
ENDBRANCH  12  13
ENDBRANCH  11  12
ENDBRANCH  10  11
ENDBRANCH   9  10
ENDBRANCH   8   9
BRANCH   1  28
HETATM   28  C4  UNL     1     -10.952   8.681  43.704  1.00  0.00     0.161 C 
BRANCH  28  29
HETATM   29  N2  UNL     1     -10.911   7.769  44.792  1.00  0.00    -0.354 N 
ATOM     30  H2  UNL     1     -11.206   6.814  44.589  1.00  0.00     0.163 HD
BRANCH  29  31
HETATM   31  C3  UNL     1     -10.511   8.029  46.118  1.00  0.00     0.215 C 
HETATM   32  N1  UNL     1      -9.459   7.562  46.663  1.00  0.00    -0.357 N 
ATOM     33  H1  UNL     1      -9.259   7.813  47.631  1.00  0.00     0.163 HD
BRANCH  32  34
HETATM   34  C2  UNL     1      -8.548   6.706  45.978  1.00  0.00     0.118 C 
HETATM   35  C1  UNL     1      -8.278   5.413  46.746  1.00  0.00     0.026 C 
ENDBRANCH  32  34
BRANCH  31  36
HETATM   36  O2  UNL     1     -11.320   8.849  46.883  1.00  0.00    -0.312 OA
BRANCH  36  37
HETATM   37  C22 UNL     1     -11.156  10.242  46.992  1.00  0.00     0.060 C 
HETATM   38  C23 UNL     1     -12.155  11.033  46.208  1.00  0.00     0.046 C 
HETATM   39  C24 UNL     1     -11.321  10.595  48.457  1.00  0.00     0.046 C 
HETATM   40  C25 UNL     1      -9.777  10.694  46.576  1.00  0.00     0.046 C 
ENDBRANCH  36  37
ENDBRANCH  31  36
ENDBRANCH  29  31
ENDBRANCH  28  29
ENDBRANCH   1  28
TORSDOF 16
ENDMDL
