MODEL 1
REMARK VINA RESULT: -8.439885138      0.000      0.000
REMARK  13 active torsions:
REMARK  status: ('A' for Active; 'I' for Inactive)
REMARK    1  A    between atoms: S1_2  and  C2_3 
REMARK    2  A    between atoms: C8_9  and  O1_10 
REMARK    3  A    between atoms: O1_10  and  C9_11 
REMARK    4  A    between atoms: C12_14  and  O2_15 
REMARK    5  A    between atoms: C15_19  and  C16_20 
REMARK    6  A    between atoms: C16_20  and  C17_21 
REMARK    7  A    between atoms: C17_21  and  C18_22 
REMARK    8  A    between atoms: C22_26  and  C23_27 
REMARK    9  A    between atoms: C23_27  and  C24_28 
REMARK   10  A    between atoms: C24_28  and  O3_29 
REMARK   11  A    between atoms: C25_31  and  N1_32 
REMARK       I    between atoms: N1_32  and  C26_34 
REMARK   12  A    between atoms: C26_34  and  C27_36 
REMARK   13  A    between atoms: C27_36  and  N2_37 
ROOT
HETATM    1  C9  UNL     1      17.399   8.086  49.607  1.00  0.00     0.132 C 
HETATM    2  C10 UNL     1      17.716   6.900  50.442  1.00  0.00     0.040 C 
HETATM    3  C11 UNL     1      18.958   6.170  50.212  1.00  0.00     0.015 C 
HETATM    4  C12 UNL     1      16.502   5.998  50.429  1.00  0.00     0.128 C 
HETATM    5  C13 UNL     1      16.010   5.665  49.052  1.00  0.00     0.015 C 
HETATM    6  C14 UNL     1      16.729   4.464  48.514  1.00  0.00     0.013 C 
HETATM    7  C15 UNL     1      15.904   6.832  48.133  1.00  0.00    -0.002 C 
HETATM    8  C28 UNL     1      16.989   7.849  48.198  1.00  0.00     0.015 C 
HETATM    9  C29 UNL     1      18.067   7.614  47.207  1.00  0.00     0.013 C 
ENDROOT
BRANCH   7  10
HETATM   10  C16 UNL     1      15.676   6.407  46.699  1.00  0.00     0.006 C 
BRANCH  10  11
HETATM   11  C17 UNL     1      14.222   6.158  46.463  1.00  0.00     0.007 C 
BRANCH  11  12
HETATM   12  C18 UNL     1      13.920   5.026  45.536  1.00  0.00     0.009 C 
HETATM   13  C19 UNL     1      14.515   3.714  45.949  1.00  0.00     0.007 C 
HETATM   14  C20 UNL     1      13.717   3.049  47.053  1.00  0.00     0.001 C 
HETATM   15  C21 UNL     1      12.357   2.752  46.452  1.00  0.00     0.007 C 
HETATM   16  C22 UNL     1      11.662   4.002  46.057  1.00  0.00     0.011 C 
HETATM   17  C25 UNL     1      12.466   4.951  45.209  1.00  0.00     0.092 C 
BRANCH  16  18
HETATM   18  C23 UNL     1      10.969   4.667  47.207  1.00  0.00     0.032 C 
BRANCH  18  19
HETATM   19  C24 UNL     1       9.657   4.014  47.566  1.00  0.00     0.164 C 
BRANCH  19  20
HETATM   20  O3  UNL     1       9.016   3.571  46.405  1.00  0.00    -0.401 OA
ATOM     21  H3  UNL     1       8.101   3.827  46.426  1.00  0.00     0.209 HD
ENDBRANCH  19  20
ENDBRANCH  18  19
ENDBRANCH  16  18
BRANCH  17  22
HETATM   22  N1  UNL     1      12.308   4.634  43.782  1.00  0.00    -0.354 N 
HETATM   23  C26 UNL     1      12.159   5.578  42.768  1.00  0.00     0.243 C 
HETATM   24  O4  UNL     1      12.152   6.806  43.042  1.00  0.00    -0.272 OA
ATOM     25  H1  UNL     1      12.309   3.649  43.514  1.00  0.00     0.162 HD
BRANCH  23  26
HETATM   26  C27 UNL     1      12.007   5.145  41.363  1.00  0.00     0.332 C 
BRANCH  26  27
HETATM   27  N2  UNL     1      11.646   6.206  40.475  1.00  0.00    -0.071 N 
ATOM     28  H23 UNL     1      12.024   7.095  40.802  1.00  0.00     0.274 HD
ATOM     29  H22 UNL     1      12.147   6.124  39.591  1.00  0.00     0.274 HD
ATOM     30  H21 UNL     1      10.641   6.279  40.316  1.00  0.00     0.274 HD
ENDBRANCH  26  27
ENDBRANCH  23  26
ENDBRANCH  17  22
ENDBRANCH  11  12
ENDBRANCH  10  11
ENDBRANCH   7  10
BRANCH   4  31
HETATM   31  O2  UNL     1      16.719   4.801  51.110  1.00  0.00    -0.395 OA
ATOM     32  H2  UNL     1      17.008   4.939  52.004  1.00  0.00     0.210 HD
ENDBRANCH   4  31
BRANCH   1  33
HETATM   33  O1  UNL     1      18.125   9.218  49.832  1.00  0.00    -0.379 OA
BRANCH  33  34
HETATM   34  C8  UNL     1      18.313   9.715  51.040  1.00  0.00     0.136 C 
HETATM   35  C2  UNL     1      19.808   9.641  51.340  1.00  0.00     0.076 C 
HETATM   36  C3  UNL     1      20.316  10.621  52.316  1.00  0.00     0.018 C 
HETATM   37  C4  UNL     1      19.671  11.954  52.349  1.00  0.00     0.005 C 
HETATM   38  C5  UNL     1      18.173  11.738  52.376  1.00  0.00    -0.016 C 
HETATM   39  C6  UNL     1      17.423  13.005  52.681  1.00  0.00     0.010 C 
HETATM   40  C7  UNL     1      17.818  11.171  51.020  1.00  0.00     0.037 C 
BRANCH  35  41
HETATM   41  S1  UNL     1      20.779   9.541  49.818  1.00  0.00    -0.166 SA
HETATM   42  C1  UNL     1      21.886  10.913  49.554  1.00  0.00     0.090 C 
ENDBRANCH  35  41
ENDBRANCH  33  34
ENDBRANCH   1  33
TORSDOF 13
ENDMDL
MODEL 2
REMARK VINA RESULT: -8.195070741      1.418      1.604
REMARK  13 active torsions:
REMARK  status: ('A' for Active; 'I' for Inactive)
REMARK    1  A    between atoms: S1_2  and  C2_3 
REMARK    2  A    between atoms: C8_9  and  O1_10 
REMARK    3  A    between atoms: O1_10  and  C9_11 
REMARK    4  A    between atoms: C12_14  and  O2_15 
REMARK    5  A    between atoms: C15_19  and  C16_20 
REMARK    6  A    between atoms: C16_20  and  C17_21 
REMARK    7  A    between atoms: C17_21  and  C18_22 
REMARK    8  A    between atoms: C22_26  and  C23_27 
REMARK    9  A    between atoms: C23_27  and  C24_28 
REMARK   10  A    between atoms: C24_28  and  O3_29 
REMARK   11  A    between atoms: C25_31  and  N1_32 
REMARK       I    between atoms: N1_32  and  C26_34 
REMARK   12  A    between atoms: C26_34  and  C27_36 
REMARK   13  A    between atoms: C27_36  and  N2_37 
ROOT
HETATM    1  C9  UNL     1      17.406   8.101  49.554  1.00  0.00     0.132 C 
HETATM    2  C10 UNL     1      17.684   6.887  50.362  1.00  0.00     0.040 C 
HETATM    3  C11 UNL     1      18.901   6.122  50.117  1.00  0.00     0.015 C 
HETATM    4  C12 UNL     1      16.441   6.025  50.328  1.00  0.00     0.128 C 
HETATM    5  C13 UNL     1      15.940   5.740  48.944  1.00  0.00     0.015 C 
HETATM    6  C14 UNL     1      16.621   4.529  48.380  1.00  0.00     0.013 C 
HETATM    7  C15 UNL     1      15.874   6.930  48.051  1.00  0.00    -0.002 C 
HETATM    8  C28 UNL     1      16.992   7.909  48.140  1.00  0.00     0.015 C 
HETATM    9  C29 UNL     1      18.063   7.662  47.145  1.00  0.00     0.013 C 
ENDROOT
BRANCH   7  10
HETATM   10  C16 UNL     1      15.635   6.545  46.607  1.00  0.00     0.006 C 
BRANCH  10  11
HETATM   11  C17 UNL     1      14.180   6.292  46.379  1.00  0.00     0.007 C 
BRANCH  11  12
HETATM   12  C18 UNL     1      13.848   4.913  45.909  1.00  0.00     0.009 C 
HETATM   13  C19 UNL     1      13.238   4.034  46.959  1.00  0.00     0.007 C 
HETATM   14  C20 UNL     1      11.768   4.337  47.171  1.00  0.00     0.001 C 
HETATM   15  C21 UNL     1      11.088   4.003  45.859  1.00  0.00     0.007 C 
HETATM   16  C22 UNL     1      11.591   4.864  44.760  1.00  0.00     0.011 C 
HETATM   17  C25 UNL     1      13.089   4.934  44.625  1.00  0.00     0.092 C 
BRANCH  16  18
HETATM   18  C23 UNL     1      10.923   6.204  44.723  1.00  0.00     0.032 C 
BRANCH  18  19
HETATM   19  C24 UNL     1       9.450   6.141  45.041  1.00  0.00     0.164 C 
BRANCH  19  20
HETATM   20  O3  UNL     1       8.840   7.351  44.697  1.00  0.00    -0.401 OA
ATOM     21  H3  UNL     1       9.275   8.069  45.141  1.00  0.00     0.209 HD
ENDBRANCH  19  20
ENDBRANCH  18  19
ENDBRANCH  16  18
BRANCH  17  22
HETATM   22  N1  UNL     1      13.583   3.856  43.755  1.00  0.00    -0.354 N 
HETATM   23  C26 UNL     1      13.651   3.922  42.365  1.00  0.00     0.243 C 
HETATM   24  O4  UNL     1      13.274   4.959  41.761  1.00  0.00    -0.272 OA
ATOM     25  H1  UNL     1      13.900   2.995  44.204  1.00  0.00     0.162 HD
BRANCH  23  26
HETATM   26  C27 UNL     1      14.166   2.775  41.588  1.00  0.00     0.332 C 
BRANCH  26  27
HETATM   27  N2  UNL     1      14.092   2.965  40.173  1.00  0.00    -0.071 N 
ATOM     28  H23 UNL     1      13.335   3.607  39.934  1.00  0.00     0.274 HD
ATOM     29  H22 UNL     1      14.887   3.510  39.841  1.00  0.00     0.274 HD
ATOM     30  H21 UNL     1      14.006   2.094  39.649  1.00  0.00     0.274 HD
ENDBRANCH  26  27
ENDBRANCH  23  26
ENDBRANCH  17  22
ENDBRANCH  11  12
ENDBRANCH  10  11
ENDBRANCH   7  10
BRANCH   4  31
HETATM   31  O2  UNL     1      16.618   4.807  50.982  1.00  0.00    -0.395 OA
ATOM     32  H2  UNL     1      17.521   4.659  51.236  1.00  0.00     0.210 HD
ENDBRANCH   4  31
BRANCH   1  33
HETATM   33  O1  UNL     1      18.169   9.203  49.805  1.00  0.00    -0.379 OA
BRANCH  33  34
HETATM   34  C8  UNL     1      18.323   9.701  51.018  1.00  0.00     0.136 C 
HETATM   35  C2  UNL     1      19.808   9.625  51.360  1.00  0.00     0.076 C 
HETATM   36  C3  UNL     1      20.290  10.605  52.350  1.00  0.00     0.018 C 
HETATM   37  C4  UNL     1      19.647  11.939  52.364  1.00  0.00     0.005 C 
HETATM   38  C5  UNL     1      18.148  11.726  52.348  1.00  0.00    -0.016 C 
HETATM   39  C6  UNL     1      17.392  12.995  52.629  1.00  0.00     0.010 C 
HETATM   40  C7  UNL     1      17.832  11.158  50.983  1.00  0.00     0.037 C 
BRANCH  35  41
HETATM   41  S1  UNL     1      20.822   9.521  49.867  1.00  0.00    -0.166 SA
HETATM   42  C1  UNL     1      21.872  10.934  49.586  1.00  0.00     0.090 C 
ENDBRANCH  35  41
ENDBRANCH  33  34
ENDBRANCH   1  33
TORSDOF 13
ENDMDL
MODEL 3
REMARK VINA RESULT: -8.018508786      1.607      3.161
REMARK  13 active torsions:
REMARK  status: ('A' for Active; 'I' for Inactive)
REMARK    1  A    between atoms: S1_2  and  C2_3 
REMARK    2  A    between atoms: C8_9  and  O1_10 
REMARK    3  A    between atoms: O1_10  and  C9_11 
REMARK    4  A    between atoms: C12_14  and  O2_15 
REMARK    5  A    between atoms: C15_19  and  C16_20 
REMARK    6  A    between atoms: C16_20  and  C17_21 
REMARK    7  A    between atoms: C17_21  and  C18_22 
REMARK    8  A    between atoms: C22_26  and  C23_27 
REMARK    9  A    between atoms: C23_27  and  C24_28 
REMARK   10  A    between atoms: C24_28  and  O3_29 
REMARK   11  A    between atoms: C25_31  and  N1_32 
REMARK       I    between atoms: N1_32  and  C26_34 
REMARK   12  A    between atoms: C26_34  and  C27_36 
REMARK   13  A    between atoms: C27_36  and  N2_37 
ROOT
HETATM    1  C9  UNL     1      17.535   8.122  49.637  1.00  0.00     0.132 C 
HETATM    2  C10 UNL     1      17.748   6.925  50.488  1.00  0.00     0.040 C 
HETATM    3  C11 UNL     1      18.979   6.154  50.352  1.00  0.00     0.015 C 
HETATM    4  C12 UNL     1      16.509   6.063  50.377  1.00  0.00     0.128 C 
HETATM    5  C13 UNL     1      16.115   5.750  48.965  1.00  0.00     0.015 C 
HETATM    6  C14 UNL     1      16.833   4.527  48.479  1.00  0.00     0.013 C 
HETATM    7  C15 UNL     1      16.119   6.922  48.046  1.00  0.00    -0.002 C 
HETATM    8  C28 UNL     1      17.229   7.902  48.200  1.00  0.00     0.015 C 
HETATM    9  C29 UNL     1      18.373   7.633  47.294  1.00  0.00     0.013 C 
ENDROOT
BRANCH   7  10
HETATM   10  C16 UNL     1      15.990   6.507  46.596  1.00  0.00     0.006 C 
BRANCH  10  11
HETATM   11  C17 UNL     1      14.946   5.448  46.458  1.00  0.00     0.007 C 
BRANCH  11  12
HETATM   12  C18 UNL     1      13.571   5.954  46.168  1.00  0.00     0.009 C 
HETATM   13  C19 UNL     1      13.535   7.264  45.441  1.00  0.00     0.007 C 
HETATM   14  C20 UNL     1      13.808   7.099  43.958  1.00  0.00     0.001 C 
HETATM   15  C21 UNL     1      12.664   6.261  43.424  1.00  0.00     0.007 C 
HETATM   16  C22 UNL     1      12.647   4.916  44.050  1.00  0.00     0.011 C 
HETATM   17  C25 UNL     1      12.711   4.900  45.554  1.00  0.00     0.092 C 
BRANCH  16  18
HETATM   18  C23 UNL     1      13.602   3.962  43.400  1.00  0.00     0.032 C 
BRANCH  18  19
HETATM   19  C24 UNL     1      13.503   3.957  41.896  1.00  0.00     0.164 C 
BRANCH  19  20
HETATM   20  O3  UNL     1      13.773   2.675  41.408  1.00  0.00    -0.401 OA
ATOM     21  H3  UNL     1      14.596   2.679  40.932  1.00  0.00     0.209 HD
ENDBRANCH  19  20
ENDBRANCH  18  19
ENDBRANCH  16  18
BRANCH  17  22
HETATM   22  N1  UNL     1      11.361   4.982  46.132  1.00  0.00    -0.354 N 
HETATM   23  C26 UNL     1      10.587   3.884  46.505  1.00  0.00     0.243 C 
HETATM   24  O4  UNL     1      11.030   2.717  46.356  1.00  0.00    -0.272 OA
ATOM     25  H1  UNL     1      10.962   5.911  46.271  1.00  0.00     0.162 HD
BRANCH  23  26
HETATM   26  C27 UNL     1       9.238   4.083  47.077  1.00  0.00     0.332 C 
BRANCH  26  27
HETATM   27  N2  UNL     1       9.202   3.975  48.502  1.00  0.00    -0.071 N 
ATOM     28  H23 UNL     1       9.854   4.632  48.931  1.00  0.00     0.274 HD
ATOM     29  H22 UNL     1       8.325   4.343  48.869  1.00  0.00     0.274 HD
ATOM     30  H21 UNL     1       9.368   3.028  48.842  1.00  0.00     0.274 HD
ENDBRANCH  26  27
ENDBRANCH  23  26
ENDBRANCH  17  22
ENDBRANCH  11  12
ENDBRANCH  10  11
ENDBRANCH   7  10
BRANCH   4  31
HETATM   31  O2  UNL     1      16.633   4.859  51.067  1.00  0.00    -0.395 OA
ATOM     32  H2  UNL     1      15.829   4.606  51.505  1.00  0.00     0.210 HD
ENDBRANCH   4  31
BRANCH   1  33
HETATM   33  O1  UNL     1      18.279   9.229  49.923  1.00  0.00    -0.379 OA
BRANCH  33  34
HETATM   34  C8  UNL     1      18.345   9.749  51.135  1.00  0.00     0.136 C 
HETATM   35  C2  UNL     1      19.796   9.654  51.596  1.00  0.00     0.076 C 
HETATM   36  C3  UNL     1      20.216  10.646  52.602  1.00  0.00     0.018 C 
HETATM   37  C4  UNL     1      19.599  11.990  52.539  1.00  0.00     0.005 C 
HETATM   38  C5  UNL     1      18.103  11.803  52.408  1.00  0.00    -0.016 C 
HETATM   39  C6  UNL     1      17.350  13.090  52.604  1.00  0.00     0.010 C 
HETATM   40  C7  UNL     1      17.885  11.213  51.032  1.00  0.00     0.037 C 
BRANCH  35  41
HETATM   41  S1  UNL     1      20.925   9.503  50.191  1.00  0.00    -0.166 SA
HETATM   42  C1  UNL     1      21.745  11.018  49.734  1.00  0.00     0.090 C 
ENDBRANCH  35  41
ENDBRANCH  33  34
ENDBRANCH   1  33
TORSDOF 13
ENDMDL
MODEL 4
REMARK VINA RESULT: -7.963429409      1.694      2.955
REMARK  13 active torsions:
REMARK  status: ('A' for Active; 'I' for Inactive)
REMARK    1  A    between atoms: S1_2  and  C2_3 
REMARK    2  A    between atoms: C8_9  and  O1_10 
REMARK    3  A    between atoms: O1_10  and  C9_11 
REMARK    4  A    between atoms: C12_14  and  O2_15 
REMARK    5  A    between atoms: C15_19  and  C16_20 
REMARK    6  A    between atoms: C16_20  and  C17_21 
REMARK    7  A    between atoms: C17_21  and  C18_22 
REMARK    8  A    between atoms: C22_26  and  C23_27 
REMARK    9  A    between atoms: C23_27  and  C24_28 
REMARK   10  A    between atoms: C24_28  and  O3_29 
REMARK   11  A    between atoms: C25_31  and  N1_32 
REMARK       I    between atoms: N1_32  and  C26_34 
REMARK   12  A    between atoms: C26_34  and  C27_36 
REMARK   13  A    between atoms: C27_36  and  N2_37 
ROOT
HETATM    1  C9  UNL     1      17.287   7.949  49.299  1.00  0.00     0.132 C 
HETATM    2  C10 UNL     1      17.556   6.722  50.090  1.00  0.00     0.040 C 
HETATM    3  C11 UNL     1      18.761   5.944  49.825  1.00  0.00     0.015 C 
HETATM    4  C12 UNL     1      16.302   5.877  50.058  1.00  0.00     0.128 C 
HETATM    5  C13 UNL     1      15.785   5.614  48.675  1.00  0.00     0.015 C 
HETATM    6  C14 UNL     1      16.444   4.401  48.091  1.00  0.00     0.013 C 
HETATM    7  C15 UNL     1      15.725   6.815  47.797  1.00  0.00    -0.002 C 
HETATM    8  C28 UNL     1      16.857   7.778  47.886  1.00  0.00     0.015 C 
HETATM    9  C29 UNL     1      17.915   7.529  46.878  1.00  0.00     0.013 C 
ENDROOT
BRANCH   7  10
HETATM   10  C16 UNL     1      15.468   6.449  46.351  1.00  0.00     0.006 C 
BRANCH  10  11
HETATM   11  C17 UNL     1      14.067   5.956  46.190  1.00  0.00     0.007 C 
BRANCH  11  12
HETATM   12  C18 UNL     1      13.160   6.874  45.435  1.00  0.00     0.009 C 
HETATM   13  C19 UNL     1      13.854   8.038  44.795  1.00  0.00     0.007 C 
HETATM   14  C20 UNL     1      14.558   7.645  43.510  1.00  0.00     0.001 C 
HETATM   15  C21 UNL     1      13.461   7.203  42.563  1.00  0.00     0.007 C 
HETATM   16  C22 UNL     1      12.745   6.014  43.089  1.00  0.00     0.011 C 
HETATM   17  C25 UNL     1      12.261   6.125  44.510  1.00  0.00     0.092 C 
BRANCH  16  18
HETATM   18  C23 UNL     1      13.462   4.731  42.799  1.00  0.00     0.032 C 
BRANCH  18  19
HETATM   19  C24 UNL     1      13.223   4.221  41.400  1.00  0.00     0.164 C 
BRANCH  19  20
HETATM   20  O3  UNL     1      11.858   4.274  41.105  1.00  0.00    -0.401 OA
ATOM     21  H3  UNL     1      11.490   3.398  41.130  1.00  0.00     0.209 HD
ENDBRANCH  19  20
ENDBRANCH  18  19
ENDBRANCH  16  18
BRANCH  17  22
HETATM   22  N1  UNL     1      10.917   6.722  44.556  1.00  0.00    -0.354 N 
HETATM   23  C26 UNL     1       9.788   6.101  45.085  1.00  0.00     0.243 C 
HETATM   24  O4  UNL     1       9.871   4.944  45.572  1.00  0.00    -0.272 OA
ATOM     25  H1  UNL     1      10.804   7.661  44.172  1.00  0.00     0.162 HD
BRANCH  23  26
HETATM   26  C27 UNL     1       8.483   6.796  45.079  1.00  0.00     0.332 C 
BRANCH  26  27
HETATM   27  N2  UNL     1       8.194   7.454  43.843  1.00  0.00    -0.071 N 
ATOM     28  H23 UNL     1       8.997   7.995  43.525  1.00  0.00     0.274 HD
ATOM     29  H22 UNL     1       8.133   6.779  43.081  1.00  0.00     0.274 HD
ATOM     30  H21 UNL     1       7.357   8.036  43.878  1.00  0.00     0.274 HD
ENDBRANCH  26  27
ENDBRANCH  23  26
ENDBRANCH  17  22
ENDBRANCH  11  12
ENDBRANCH  10  11
ENDBRANCH   7  10
BRANCH   4  31
HETATM   31  O2  UNL     1      16.469   4.649  50.696  1.00  0.00    -0.395 OA
ATOM     32  H2  UNL     1      16.976   4.036  50.178  1.00  0.00     0.210 HD
ENDBRANCH   4  31
BRANCH   1  33
HETATM   33  O1  UNL     1      18.066   9.038  49.555  1.00  0.00    -0.379 OA
BRANCH  33  34
HETATM   34  C8  UNL     1      18.258   9.505  50.775  1.00  0.00     0.136 C 
HETATM   35  C2  UNL     1      19.744   9.359  51.092  1.00  0.00     0.076 C 
HETATM   36  C3  UNL     1      20.281  10.299  52.093  1.00  0.00     0.018 C 
HETATM   37  C4  UNL     1      19.695  11.658  52.143  1.00  0.00     0.005 C 
HETATM   38  C5  UNL     1      18.189  11.508  52.146  1.00  0.00    -0.016 C 
HETATM   39  C6  UNL     1      17.491  12.802  52.464  1.00  0.00     0.010 C 
HETATM   40  C7  UNL     1      17.828  10.981  50.775  1.00  0.00     0.037 C 
BRANCH  35  41
HETATM   41  S1  UNL     1      20.731   9.243  49.582  1.00  0.00    -0.166 SA
HETATM   42  C1  UNL     1      21.760  10.663  49.260  1.00  0.00     0.090 C 
ENDBRANCH  35  41
ENDBRANCH  33  34
ENDBRANCH   1  33
TORSDOF 13
ENDMDL
MODEL 5
REMARK VINA RESULT: -7.587192108      3.952      9.409
REMARK  13 active torsions:
REMARK  status: ('A' for Active; 'I' for Inactive)
REMARK    1  A    between atoms: S1_2  and  C2_3 
REMARK    2  A    between atoms: C8_9  and  O1_10 
REMARK    3  A    between atoms: O1_10  and  C9_11 
REMARK    4  A    between atoms: C12_14  and  O2_15 
REMARK    5  A    between atoms: C15_19  and  C16_20 
REMARK    6  A    between atoms: C16_20  and  C17_21 
REMARK    7  A    between atoms: C17_21  and  C18_22 
REMARK    8  A    between atoms: C22_26  and  C23_27 
REMARK    9  A    between atoms: C23_27  and  C24_28 
REMARK   10  A    between atoms: C24_28  and  O3_29 
REMARK   11  A    between atoms: C25_31  and  N1_32 
REMARK       I    between atoms: N1_32  and  C26_34 
REMARK   12  A    between atoms: C26_34  and  C27_36 
REMARK   13  A    between atoms: C27_36  and  N2_37 
ROOT
HETATM    1  C9  UNL     1      13.583   7.424  45.219  1.00  0.00     0.132 C 
HETATM    2  C10 UNL     1      13.541   8.244  43.983  1.00  0.00     0.040 C 
HETATM    3  C11 UNL     1      14.270   7.800  42.800  1.00  0.00     0.015 C 
HETATM    4  C12 UNL     1      13.876   9.667  44.370  1.00  0.00     0.128 C 
HETATM    5  C13 UNL     1      15.150   9.798  45.150  1.00  0.00     0.015 C 
HETATM    6  C14 UNL     1      16.321   9.928  44.223  1.00  0.00     0.013 C 
HETATM    7  C15 UNL     1      15.299   8.819  46.262  1.00  0.00    -0.002 C 
HETATM    8  C28 UNL     1      14.844   7.425  46.006  1.00  0.00     0.015 C 
HETATM    9  C29 UNL     1      15.935   6.533  45.544  1.00  0.00     0.013 C 
ENDROOT
BRANCH   7  10
HETATM   10  C16 UNL     1      16.702   8.812  46.828  1.00  0.00     0.006 C 
BRANCH  10  11
HETATM   11  C17 UNL     1      16.895   7.619  47.705  1.00  0.00     0.007 C 
BRANCH  11  12
HETATM   12  C18 UNL     1      16.831   7.899  49.172  1.00  0.00     0.009 C 
HETATM   13  C19 UNL     1      16.329   6.754  49.998  1.00  0.00     0.007 C 
HETATM   14  C20 UNL     1      17.400   5.705  50.225  1.00  0.00     0.001 C 
HETATM   15  C21 UNL     1      18.483   6.395  51.030  1.00  0.00     0.007 C 
HETATM   16  C22 UNL     1      19.082   7.519  50.269  1.00  0.00     0.011 C 
HETATM   17  C25 UNL     1      18.102   8.496  49.677  1.00  0.00     0.092 C 
BRANCH  16  18
HETATM   18  C23 UNL     1      20.136   7.069  49.304  1.00  0.00     0.032 C 
BRANCH  18  19
HETATM   19  C24 UNL     1      20.568   8.153  48.350  1.00  0.00     0.164 C 
BRANCH  19  20
HETATM   20  O3  UNL     1      20.375   7.729  47.032  1.00  0.00    -0.401 OA
ATOM     21  H3  UNL     1      21.206   7.723  46.571  1.00  0.00     0.209 HD
ENDBRANCH  19  20
ENDBRANCH  18  19
ENDBRANCH  16  18
BRANCH  17  22
HETATM   22  N1  UNL     1      17.784   9.562  50.640  1.00  0.00    -0.354 N 
HETATM   23  C26 UNL     1      18.228  10.879  50.543  1.00  0.00     0.243 C 
HETATM   24  O4  UNL     1      18.955  11.234  49.580  1.00  0.00    -0.272 OA
ATOM     25  H1  UNL     1      17.196   9.318  51.437  1.00  0.00     0.162 HD
BRANCH  23  26
HETATM   26  C27 UNL     1      17.848  11.871  51.572  1.00  0.00     0.332 C 
BRANCH  26  27
HETATM   27  N2  UNL     1      17.506  11.285  52.830  1.00  0.00    -0.071 N 
ATOM     28  H23 UNL     1      16.710  10.654  52.731  1.00  0.00     0.274 HD
ATOM     29  H22 UNL     1      18.217  10.614  53.120  1.00  0.00     0.274 HD
ATOM     30  H21 UNL     1      17.334  11.971  53.565  1.00  0.00     0.274 HD
ENDBRANCH  26  27
ENDBRANCH  23  26
ENDBRANCH  17  22
ENDBRANCH  11  12
ENDBRANCH  10  11
ENDBRANCH   7  10
BRANCH   4  31
HETATM   31  O2  UNL     1      13.957  10.516  43.267  1.00  0.00    -0.395 OA
ATOM     32  H2  UNL     1      14.854  10.708  43.021  1.00  0.00     0.210 HD
ENDBRANCH   4  31
BRANCH   1  33
HETATM   33  O1  UNL     1      12.889   6.250  45.212  1.00  0.00    -0.379 OA
BRANCH  33  34
HETATM   34  C8  UNL     1      12.891   5.416  46.235  1.00  0.00     0.136 C 
HETATM   35  C2  UNL     1      11.436   5.103  46.574  1.00  0.00     0.076 C 
HETATM   36  C3  UNL     1      11.197   3.812  47.245  1.00  0.00     0.018 C 
HETATM   37  C4  UNL     1      12.082   2.679  46.889  1.00  0.00     0.005 C 
HETATM   38  C5  UNL     1      13.510   3.178  46.945  1.00  0.00    -0.016 C 
HETATM   39  C6  UNL     1      14.507   2.054  46.865  1.00  0.00     0.010 C 
HETATM   40  C7  UNL     1      13.648   4.152  45.796  1.00  0.00     0.037 C 
BRANCH  35  41
HETATM   41  S1  UNL     1      10.350   5.414  45.162  1.00  0.00    -0.166 SA
HETATM   42  C1  UNL     1       8.797   6.184  45.579  1.00  0.00     0.090 C 
ENDBRANCH  35  41
ENDBRANCH  33  34
ENDBRANCH   1  33
TORSDOF 13
ENDMDL
