MODEL 1
REMARK VINA RESULT: -8.473373581      0.000      0.000
REMARK  14 active torsions:
REMARK  status: ('A' for Active; 'I' for Inactive)
REMARK    1  A    between atoms: C2_2  and  C3_3 
REMARK    2  A    between atoms: C3_3  and  C4_4 
REMARK    3  A    between atoms: C4_4  and  C5_5 
REMARK    4  A    between atoms: C5_5  and  C6_6 
REMARK    5  A    between atoms: C6_6  and  C7_7 
REMARK    6  A    between atoms: C7_7  and  C8_8 
REMARK    7  A    between atoms: C8_8  and  O1_9 
REMARK    8  A    between atoms: C8_8  and  C9_11 
REMARK    9  A    between atoms: C9_11  and  C11_13 
REMARK   10  A    between atoms: C20_22  and  O2_23 
REMARK   11  A    between atoms: C22_27  and  O3_28 
REMARK   12  A    between atoms: O3_28  and  C23_29 
REMARK   13  A    between atoms: C23_29  and  C24_30 
REMARK   14  A    between atoms: C24_30  and  N2_31 
ROOT
HETATM    1  C11 UNL     1      14.861   7.299  46.114  1.00  0.00     0.000 C 
HETATM    2  C12 UNL     1      15.827   8.427  45.714  1.00  0.00     0.006 C 
HETATM    3  C13 UNL     1      17.136   7.805  45.535  1.00  0.00     0.006 C 
HETATM    4  C14 UNL     1      17.218   6.908  46.721  1.00  0.00    -0.002 C 
HETATM    5  C15 UNL     1      17.928   7.388  47.904  1.00  0.00    -0.005 C 
HETATM    6  C16 UNL     1      17.765   8.786  48.352  1.00  0.00     0.006 C 
HETATM    7  C17 UNL     1      18.927   9.060  49.331  1.00  0.00     0.006 C 
HETATM    8  C18 UNL     1      18.545   8.259  50.576  1.00  0.00    -0.002 C 
HETATM    9  C19 UNL     1      19.389   8.579  51.753  1.00  0.00     0.061 C 
HETATM   10  C20 UNL     1      20.800   8.125  51.669  1.00  0.00     0.172 C 
HETATM   11  C21 UNL     1      21.642   9.006  50.843  1.00  0.00     0.100 C 
HETATM   12  N1  UNL     1      22.317   9.705  50.208  1.00  0.00    -0.194 NA
HETATM   13  C22 UNL     1      20.887   6.685  51.232  1.00  0.00     0.171 C 
HETATM   14  C25 UNL     1      19.976   6.344  50.088  1.00  0.00     0.046 C 
HETATM   15  C26 UNL     1      18.551   6.779  50.278  1.00  0.00    -0.034 C 
HETATM   16  C27 UNL     1      17.939   6.068  51.462  1.00  0.00     0.016 C 
HETATM   17  C28 UNL     1      17.762   6.425  49.063  1.00  0.00    -0.001 C 
HETATM   18  C29 UNL     1      16.340   6.087  49.341  1.00  0.00     0.006 C 
HETATM   19  C30 UNL     1      15.352   6.582  48.362  1.00  0.00     0.010 C 
HETATM   20  C31 UNL     1      15.792   6.421  46.891  1.00  0.00    -0.036 C 
HETATM   21  C32 UNL     1      15.785   4.950  46.666  1.00  0.00     0.016 C 
ENDROOT
BRANCH  10  22
HETATM   22  O2  UNL     1      21.335   8.179  52.979  1.00  0.00    -0.373 OA
ATOM     23  H2  UNL     1      20.757   7.671  53.538  1.00  0.00     0.212 HD
ENDBRANCH  10  22
BRANCH  13  24
HETATM   24  O3  UNL     1      22.181   6.363  50.827  1.00  0.00    -0.380 OA
BRANCH  24  25
HETATM   25  C23 UNL     1      22.222   5.152  50.138  1.00  0.00     0.195 C 
BRANCH  25  26
HETATM   26  C24 UNL     1      23.425   4.335  50.467  1.00  0.00     0.255 C 
BRANCH  26  27
HETATM   27  N2  UNL     1      23.826   3.519  49.322  1.00  0.00    -0.077 N 
ATOM     28  H23 UNL     1      23.494   2.558  49.408  1.00  0.00     0.274 HD
ATOM     29  H22 UNL     1      23.322   3.781  48.476  1.00  0.00     0.274 HD
ATOM     30  H21 UNL     1      24.837   3.558  49.186  1.00  0.00     0.274 HD
ENDBRANCH  26  27
ENDBRANCH  25  26
ENDBRANCH  24  25
ENDBRANCH  13  24
BRANCH   1  31
HETATM   31  C9  UNL     1      14.145   6.796  44.953  1.00  0.00     0.015 C 
HETATM   32  C10 UNL     1      14.315   7.510  43.634  1.00  0.00     0.013 C 
BRANCH  31  33
HETATM   33  C8  UNL     1      12.763   6.235  45.027  1.00  0.00     0.122 C 
BRANCH  33  34
HETATM   34  C7  UNL     1      12.645   5.037  44.044  1.00  0.00     0.032 C 
BRANCH  34  35
HETATM   35  C6  UNL     1      13.358   3.879  44.653  1.00  0.00     0.002 C 
BRANCH  35  36
HETATM   36  C5  UNL     1      14.105   3.047  43.650  1.00  0.00     0.000 C 
BRANCH  36  37
HETATM   37  C4  UNL     1      13.842   3.555  42.269  1.00  0.00     0.000 C 
BRANCH  37  38
HETATM   38  C3  UNL     1      14.522   2.658  41.260  1.00  0.00    -0.000 C 
BRANCH  38  39
HETATM   39  C2  UNL     1      14.034   3.151  39.888  1.00  0.00    -0.005 C 
HETATM   40  C1  UNL     1      13.224   4.393  40.080  1.00  0.00     0.005 C 
ENDBRANCH  38  39
ENDBRANCH  37  38
ENDBRANCH  36  37
ENDBRANCH  35  36
ENDBRANCH  34  35
ENDBRANCH  33  34
BRANCH  33  41
HETATM   41  O1  UNL     1      11.729   7.034  44.555  1.00  0.00    -0.395 OA
ATOM     42  H1  UNL     1      10.985   6.496  44.796  1.00  0.00     0.210 HD
ENDBRANCH  33  41
ENDBRANCH  31  33
ENDBRANCH   1  31
TORSDOF 14
ENDMDL
MODEL 2
REMARK VINA RESULT: -8.039354997      1.472      2.291
REMARK  14 active torsions:
REMARK  status: ('A' for Active; 'I' for Inactive)
REMARK    1  A    between atoms: C2_2  and  C3_3 
REMARK    2  A    between atoms: C3_3  and  C4_4 
REMARK    3  A    between atoms: C4_4  and  C5_5 
REMARK    4  A    between atoms: C5_5  and  C6_6 
REMARK    5  A    between atoms: C6_6  and  C7_7 
REMARK    6  A    between atoms: C7_7  and  C8_8 
REMARK    7  A    between atoms: C8_8  and  O1_9 
REMARK    8  A    between atoms: C8_8  and  C9_11 
REMARK    9  A    between atoms: C9_11  and  C11_13 
REMARK   10  A    between atoms: C20_22  and  O2_23 
REMARK   11  A    between atoms: C22_27  and  O3_28 
REMARK   12  A    between atoms: O3_28  and  C23_29 
REMARK   13  A    between atoms: C23_29  and  C24_30 
REMARK   14  A    between atoms: C24_30  and  N2_31 
ROOT
HETATM    1  C11 UNL     1      15.017   7.794  45.736  1.00  0.00     0.000 C 
HETATM    2  C12 UNL     1      16.021   8.929  45.469  1.00  0.00     0.006 C 
HETATM    3  C13 UNL     1      17.326   8.295  45.308  1.00  0.00     0.006 C 
HETATM    4  C14 UNL     1      17.334   7.312  46.427  1.00  0.00    -0.002 C 
HETATM    5  C15 UNL     1      17.991   7.689  47.676  1.00  0.00    -0.005 C 
HETATM    6  C16 UNL     1      17.828   9.054  48.218  1.00  0.00     0.006 C 
HETATM    7  C17 UNL     1      18.945   9.232  49.271  1.00  0.00     0.006 C 
HETATM    8  C18 UNL     1      18.487   8.350  50.433  1.00  0.00    -0.002 C 
HETATM    9  C19 UNL     1      19.276   8.566  51.670  1.00  0.00     0.061 C 
HETATM   10  C20 UNL     1      20.682   8.091  51.621  1.00  0.00     0.172 C 
HETATM   11  C21 UNL     1      21.579   9.013  50.905  1.00  0.00     0.100 C 
HETATM   12  N1  UNL     1      22.295   9.743  50.358  1.00  0.00    -0.194 NA
HETATM   13  C22 UNL     1      20.767   6.685  51.084  1.00  0.00     0.171 C 
HETATM   14  C25 UNL     1      19.909   6.447  49.874  1.00  0.00     0.046 C 
HETATM   15  C26 UNL     1      18.484   6.896  50.026  1.00  0.00    -0.034 C 
HETATM   16  C27 UNL     1      17.802   6.113  51.123  1.00  0.00     0.016 C 
HETATM   17  C28 UNL     1      17.751   6.648  48.750  1.00  0.00    -0.001 C 
HETATM   18  C29 UNL     1      16.311   6.319  48.932  1.00  0.00     0.006 C 
HETATM   19  C30 UNL     1      15.383   6.904  47.946  1.00  0.00     0.010 C 
HETATM   20  C31 UNL     1      15.893   6.843  46.491  1.00  0.00    -0.036 C 
HETATM   21  C32 UNL     1      15.874   5.393  46.157  1.00  0.00     0.016 C 
ENDROOT
BRANCH  10  22
HETATM   22  O2  UNL     1      21.150   8.037  52.957  1.00  0.00    -0.373 OA
ATOM     23  H2  UNL     1      22.073   8.265  52.939  1.00  0.00     0.212 HD
ENDBRANCH  10  22
BRANCH  13  24
HETATM   24  O3  UNL     1      22.075   6.368  50.719  1.00  0.00    -0.380 OA
BRANCH  24  25
HETATM   25  C23 UNL     1      22.146   5.139  50.066  1.00  0.00     0.195 C 
BRANCH  25  26
HETATM   26  C24 UNL     1      23.353   4.348  50.443  1.00  0.00     0.255 C 
BRANCH  26  27
HETATM   27  N2  UNL     1      23.790   3.506  49.330  1.00  0.00    -0.077 N 
ATOM     28  H23 UNL     1      24.154   2.611  49.655  1.00  0.00     0.274 HD
ATOM     29  H22 UNL     1      23.000   3.162  48.785  1.00  0.00     0.274 HD
ATOM     30  H21 UNL     1      24.465   4.000  48.747  1.00  0.00     0.274 HD
ENDBRANCH  26  27
ENDBRANCH  25  26
ENDBRANCH  24  25
ENDBRANCH  13  24
BRANCH   1  31
HETATM   31  C9  UNL     1      14.353   7.392  44.507  1.00  0.00     0.015 C 
HETATM   32  C10 UNL     1      14.627   8.176  43.247  1.00  0.00     0.013 C 
BRANCH  31  33
HETATM   33  C8  UNL     1      12.948   6.886  44.468  1.00  0.00     0.122 C 
BRANCH  33  34
HETATM   34  C7  UNL     1      12.951   5.412  43.972  1.00  0.00     0.032 C 
BRANCH  34  35
HETATM   35  C6  UNL     1      12.125   4.614  44.921  1.00  0.00     0.002 C 
BRANCH  35  36
HETATM   36  C5  UNL     1      12.118   5.171  46.316  1.00  0.00     0.000 C 
BRANCH  36  37
HETATM   37  C4  UNL     1      12.777   4.210  47.253  1.00  0.00     0.000 C 
BRANCH  37  38
HETATM   38  C3  UNL     1      12.713   2.814  46.677  1.00  0.00    -0.000 C 
BRANCH  38  39
HETATM   39  C2  UNL     1      14.174   2.349  46.579  1.00  0.00    -0.005 C 
HETATM   40  C1  UNL     1      14.913   2.819  47.792  1.00  0.00     0.005 C 
ENDBRANCH  38  39
ENDBRANCH  37  38
ENDBRANCH  36  37
ENDBRANCH  35  36
ENDBRANCH  34  35
ENDBRANCH  33  34
BRANCH  33  41
HETATM   41  O1  UNL     1      12.097   7.452  43.528  1.00  0.00    -0.395 OA
ATOM     42  H1  UNL     1      12.536   8.283  43.390  1.00  0.00     0.210 HD
ENDBRANCH  33  41
ENDBRANCH  31  33
ENDBRANCH   1  31
TORSDOF 14
ENDMDL
MODEL 3
REMARK VINA RESULT: -7.928298346      1.732      2.703
REMARK  14 active torsions:
REMARK  status: ('A' for Active; 'I' for Inactive)
REMARK    1  A    between atoms: C2_2  and  C3_3 
REMARK    2  A    between atoms: C3_3  and  C4_4 
REMARK    3  A    between atoms: C4_4  and  C5_5 
REMARK    4  A    between atoms: C5_5  and  C6_6 
REMARK    5  A    between atoms: C6_6  and  C7_7 
REMARK    6  A    between atoms: C7_7  and  C8_8 
REMARK    7  A    between atoms: C8_8  and  O1_9 
REMARK    8  A    between atoms: C8_8  and  C9_11 
REMARK    9  A    between atoms: C9_11  and  C11_13 
REMARK   10  A    between atoms: C20_22  and  O2_23 
REMARK   11  A    between atoms: C22_27  and  O3_28 
REMARK   12  A    between atoms: O3_28  and  C23_29 
REMARK   13  A    between atoms: C23_29  and  C24_30 
REMARK   14  A    between atoms: C24_30  and  N2_31 
ROOT
HETATM    1  C11 UNL     1      14.966   7.403  46.277  1.00  0.00     0.000 C 
HETATM    2  C12 UNL     1      15.909   8.546  45.862  1.00  0.00     0.006 C 
HETATM    3  C13 UNL     1      17.229   7.948  45.684  1.00  0.00     0.006 C 
HETATM    4  C14 UNL     1      17.333   7.064  46.878  1.00  0.00    -0.002 C 
HETATM    5  C15 UNL     1      18.037   7.569  48.055  1.00  0.00    -0.005 C 
HETATM    6  C16 UNL     1      17.849   8.968  48.490  1.00  0.00     0.006 C 
HETATM    7  C17 UNL     1      19.009   9.274  49.462  1.00  0.00     0.006 C 
HETATM    8  C18 UNL     1      18.647   8.478  50.716  1.00  0.00    -0.002 C 
HETATM    9  C19 UNL     1      19.489   8.826  51.886  1.00  0.00     0.061 C 
HETATM   10  C20 UNL     1      20.908   8.398  51.801  1.00  0.00     0.172 C 
HETATM   11  C21 UNL     1      21.730   9.287  50.963  1.00  0.00     0.100 C 
HETATM   12  N1  UNL     1      22.388   9.993  50.319  1.00  0.00    -0.194 NA
HETATM   13  C22 UNL     1      21.021   6.955  51.378  1.00  0.00     0.171 C 
HETATM   14  C25 UNL     1      20.113   6.586  50.241  1.00  0.00     0.046 C 
HETATM   15  C26 UNL     1      18.681   6.995  50.431  1.00  0.00    -0.034 C 
HETATM   16  C27 UNL     1      18.087   6.284  51.625  1.00  0.00     0.016 C 
HETATM   17  C28 UNL     1      17.894   6.615  49.223  1.00  0.00    -0.001 C 
HETATM   18  C29 UNL     1      16.480   6.251  49.509  1.00  0.00     0.006 C 
HETATM   19  C30 UNL     1      15.479   6.718  48.529  1.00  0.00     0.010 C 
HETATM   20  C31 UNL     1      15.917   6.551  47.059  1.00  0.00    -0.036 C 
HETATM   21  C32 UNL     1      15.938   5.079  46.848  1.00  0.00     0.016 C 
ENDROOT
BRANCH  10  22
HETATM   22  O2  UNL     1      21.446   8.475  53.109  1.00  0.00    -0.373 OA
ATOM     23  H2  UNL     1      20.936   9.121  53.584  1.00  0.00     0.212 HD
ENDBRANCH  10  22
BRANCH  13  24
HETATM   24  O3  UNL     1      22.320   6.655  50.971  1.00  0.00    -0.380 OA
BRANCH  24  25
HETATM   25  C23 UNL     1      22.780   5.469  51.540  1.00  0.00     0.195 C 
BRANCH  25  26
HETATM   26  C24 UNL     1      23.271   5.646  52.937  1.00  0.00     0.255 C 
BRANCH  26  27
HETATM   27  N2  UNL     1      24.089   6.853  53.050  1.00  0.00    -0.077 N 
ATOM     28  H23 UNL     1      24.833   6.742  53.738  1.00  0.00     0.274 HD
ATOM     29  H22 UNL     1      24.666   6.997  52.222  1.00  0.00     0.274 HD
ATOM     30  H21 UNL     1      23.507   7.667  53.250  1.00  0.00     0.274 HD
ENDBRANCH  26  27
ENDBRANCH  25  26
ENDBRANCH  24  25
ENDBRANCH  13  24
BRANCH   1  31
HETATM   31  C9  UNL     1      14.257   6.875  45.123  1.00  0.00     0.015 C 
HETATM   32  C10 UNL     1      14.409   7.578  43.796  1.00  0.00     0.013 C 
BRANCH  31  33
HETATM   33  C8  UNL     1      12.884   6.291  45.208  1.00  0.00     0.122 C 
BRANCH  33  34
HETATM   34  C7  UNL     1      12.874   4.909  44.496  1.00  0.00     0.032 C 
BRANCH  34  35
HETATM   35  C6  UNL     1      12.846   3.856  45.550  1.00  0.00     0.002 C 
BRANCH  35  36
HETATM   36  C5  UNL     1      12.314   4.348  46.866  1.00  0.00     0.000 C 
BRANCH  36  37
HETATM   37  C4  UNL     1      11.258   3.416  47.369  1.00  0.00     0.000 C 
BRANCH  37  38
HETATM   38  C3  UNL     1      10.002   4.195  47.685  1.00  0.00    -0.000 C 
BRANCH  38  39
HETATM   39  C2  UNL     1       9.202   4.221  46.374  1.00  0.00    -0.005 C 
HETATM   40  C1  UNL     1       9.061   5.639  45.921  1.00  0.00     0.005 C 
ENDBRANCH  38  39
ENDBRANCH  37  38
ENDBRANCH  36  37
ENDBRANCH  35  36
ENDBRANCH  34  35
ENDBRANCH  33  34
BRANCH  33  41
HETATM   41  O1  UNL     1      11.878   6.933  44.498  1.00  0.00    -0.395 OA
ATOM     42  H1  UNL     1      12.319   7.749  44.292  1.00  0.00     0.210 HD
ENDBRANCH  33  41
ENDBRANCH  31  33
ENDBRANCH   1  31
TORSDOF 14
ENDMDL
MODEL 4
REMARK VINA RESULT: -7.635393219      2.462      4.528
REMARK  14 active torsions:
REMARK  status: ('A' for Active; 'I' for Inactive)
REMARK    1  A    between atoms: C2_2  and  C3_3 
REMARK    2  A    between atoms: C3_3  and  C4_4 
REMARK    3  A    between atoms: C4_4  and  C5_5 
REMARK    4  A    between atoms: C5_5  and  C6_6 
REMARK    5  A    between atoms: C6_6  and  C7_7 
REMARK    6  A    between atoms: C7_7  and  C8_8 
REMARK    7  A    between atoms: C8_8  and  O1_9 
REMARK    8  A    between atoms: C8_8  and  C9_11 
REMARK    9  A    between atoms: C9_11  and  C11_13 
REMARK   10  A    between atoms: C20_22  and  O2_23 
REMARK   11  A    between atoms: C22_27  and  O3_28 
REMARK   12  A    between atoms: O3_28  and  C23_29 
REMARK   13  A    between atoms: C23_29  and  C24_30 
REMARK   14  A    between atoms: C24_30  and  N2_31 
ROOT
HETATM    1  C11 UNL     1      15.163   4.527  46.034  1.00  0.00     0.000 C 
HETATM    2  C12 UNL     1      15.648   3.559  47.127  1.00  0.00     0.006 C 
HETATM    3  C13 UNL     1      15.084   4.040  48.385  1.00  0.00     0.006 C 
HETATM    4  C14 UNL     1      15.323   5.507  48.291  1.00  0.00    -0.002 C 
HETATM    5  C15 UNL     1      16.508   6.059  48.944  1.00  0.00    -0.005 C 
HETATM    6  C16 UNL     1      17.798   5.342  48.872  1.00  0.00     0.006 C 
HETATM    7  C17 UNL     1      18.690   5.957  49.972  1.00  0.00     0.006 C 
HETATM    8  C18 UNL     1      19.040   7.339  49.421  1.00  0.00    -0.002 C 
HETATM    9  C19 UNL     1      20.109   8.017  50.193  1.00  0.00     0.061 C 
HETATM   10  C20 UNL     1      19.730   8.455  51.560  1.00  0.00     0.172 C 
HETATM   11  C21 UNL     1      19.736   7.357  52.541  1.00  0.00     0.100 C 
HETATM   12  N1  UNL     1      19.757   6.501  53.324  1.00  0.00    -0.194 NA
HETATM   13  C22 UNL     1      18.419   9.201  51.552  1.00  0.00     0.171 C 
HETATM   14  C25 UNL     1      17.360   8.552  50.708  1.00  0.00     0.046 C 
HETATM   15  C26 UNL     1      17.803   8.198  49.318  1.00  0.00    -0.034 C 
HETATM   16  C27 UNL     1      18.172   9.447  48.552  1.00  0.00     0.016 C 
HETATM   17  C28 UNL     1      16.683   7.524  48.600  1.00  0.00    -0.001 C 
HETATM   18  C29 UNL     1      16.656   7.787  47.136  1.00  0.00     0.006 C 
HETATM   19  C30 UNL     1      16.293   6.642  46.278  1.00  0.00     0.010 C 
HETATM   20  C31 UNL     1      15.116   5.802  46.818  1.00  0.00    -0.036 C 
HETATM   21  C32 UNL     1      13.938   6.703  46.697  1.00  0.00     0.016 C 
ENDROOT
BRANCH  10  22
HETATM   22  O2  UNL     1      20.713   9.379  51.990  1.00  0.00    -0.373 OA
ATOM     23  H2  UNL     1      21.512   8.888  52.142  1.00  0.00     0.212 HD
ENDBRANCH  10  22
BRANCH  13  24
HETATM   24  O3  UNL     1      17.899   9.309  52.841  1.00  0.00    -0.380 OA
BRANCH  24  25
HETATM   25  C23 UNL     1      17.731  10.639  53.220  1.00  0.00     0.195 C 
BRANCH  25  26
HETATM   26  C24 UNL     1      18.605  11.034  54.362  1.00  0.00     0.255 C 
BRANCH  26  27
HETATM   27  N2  UNL     1      19.852  11.627  53.880  1.00  0.00    -0.077 N 
ATOM     28  H23 UNL     1      20.639  11.399  54.488  1.00  0.00     0.274 HD
ATOM     29  H22 UNL     1      20.181  11.174  53.028  1.00  0.00     0.274 HD
ATOM     30  H21 UNL     1      19.749  12.634  53.755  1.00  0.00     0.274 HD
ENDBRANCH  26  27
ENDBRANCH  25  26
ENDBRANCH  24  25
ENDBRANCH  13  24
BRANCH   1  31
HETATM   31  C9  UNL     1      13.978   4.007  45.372  1.00  0.00     0.015 C 
HETATM   32  C10 UNL     1      13.544   2.593  45.673  1.00  0.00     0.013 C 
BRANCH  31  33
HETATM   33  C8  UNL     1      13.626   4.332  43.958  1.00  0.00     0.122 C 
BRANCH  33  34
HETATM   34  C7  UNL     1      12.227   5.008  43.923  1.00  0.00     0.032 C 
BRANCH  34  35
HETATM   35  C6  UNL     1      12.342   6.249  43.107  1.00  0.00     0.002 C 
BRANCH  35  36
HETATM   36  C5  UNL     1      13.755   6.739  42.969  1.00  0.00     0.000 C 
BRANCH  36  37
HETATM   37  C4  UNL     1      13.855   8.150  43.451  1.00  0.00     0.000 C 
BRANCH  37  38
HETATM   38  C3  UNL     1      15.292   8.613  43.372  1.00  0.00    -0.000 C 
BRANCH  38  39
HETATM   39  C2  UNL     1      15.365   9.858  44.270  1.00  0.00    -0.005 C 
HETATM   40  C1  UNL     1      14.052  10.032  44.964  1.00  0.00     0.005 C 
ENDBRANCH  38  39
ENDBRANCH  37  38
ENDBRANCH  36  37
ENDBRANCH  35  36
ENDBRANCH  34  35
ENDBRANCH  33  34
BRANCH  33  41
HETATM   41  O1  UNL     1      13.397   3.264  43.100  1.00  0.00    -0.395 OA
ATOM     42  H1  UNL     1      13.630   3.667  42.272  1.00  0.00     0.210 HD
ENDBRANCH  33  41
ENDBRANCH  31  33
ENDBRANCH   1  31
TORSDOF 14
ENDMDL
MODEL 5
REMARK VINA RESULT: -7.593281840      1.933      2.211
REMARK  14 active torsions:
REMARK  status: ('A' for Active; 'I' for Inactive)
REMARK    1  A    between atoms: C2_2  and  C3_3 
REMARK    2  A    between atoms: C3_3  and  C4_4 
REMARK    3  A    between atoms: C4_4  and  C5_5 
REMARK    4  A    between atoms: C5_5  and  C6_6 
REMARK    5  A    between atoms: C6_6  and  C7_7 
REMARK    6  A    between atoms: C7_7  and  C8_8 
REMARK    7  A    between atoms: C8_8  and  O1_9 
REMARK    8  A    between atoms: C8_8  and  C9_11 
REMARK    9  A    between atoms: C9_11  and  C11_13 
REMARK   10  A    between atoms: C20_22  and  O2_23 
REMARK   11  A    between atoms: C22_27  and  O3_28 
REMARK   12  A    between atoms: O3_28  and  C23_29 
REMARK   13  A    between atoms: C23_29  and  C24_30 
REMARK   14  A    between atoms: C24_30  and  N2_31 
ROOT
HETATM    1  C11 UNL     1      15.297   6.896  47.050  1.00  0.00     0.000 C 
HETATM    2  C12 UNL     1      16.070   8.028  46.350  1.00  0.00     0.006 C 
HETATM    3  C13 UNL     1      17.461   7.593  46.277  1.00  0.00     0.006 C 
HETATM    4  C14 UNL     1      17.686   7.039  47.641  1.00  0.00    -0.002 C 
HETATM    5  C15 UNL     1      18.308   7.900  48.644  1.00  0.00    -0.005 C 
HETATM    6  C16 UNL     1      17.922   9.322  48.745  1.00  0.00     0.006 C 
HETATM    7  C17 UNL     1      19.025  10.007  49.583  1.00  0.00     0.006 C 
HETATM    8  C18 UNL     1      18.775   9.487  50.999  1.00  0.00    -0.002 C 
HETATM    9  C19 UNL     1      19.556  10.215  52.029  1.00  0.00     0.061 C 
HETATM   10  C20 UNL     1      21.021   9.980  52.003  1.00  0.00     0.172 C 
HETATM   11  C21 UNL     1      21.712  10.751  50.955  1.00  0.00     0.100 C 
HETATM   12  N1  UNL     1      22.265  11.370  50.144  1.00  0.00    -0.194 NA
HETATM   13  C22 UNL     1      21.339   8.508  51.926  1.00  0.00     0.171 C 
HETATM   14  C25 UNL     1      20.496   7.759  50.935  1.00  0.00     0.046 C 
HETATM   15  C26 UNL     1      19.020   7.998  51.069  1.00  0.00    -0.034 C 
HETATM   16  C27 UNL     1      18.530   7.515  52.413  1.00  0.00     0.016 C 
HETATM   17  C28 UNL     1      18.299   7.238  50.007  1.00  0.00    -0.001 C 
HETATM   18  C29 UNL     1      16.950   6.760  50.414  1.00  0.00     0.006 C 
HETATM   19  C30 UNL     1      15.896   6.839  49.384  1.00  0.00     0.010 C 
HETATM   20  C31 UNL     1      16.357   6.392  47.980  1.00  0.00    -0.036 C 
HETATM   21  C32 UNL     1      16.587   4.929  48.119  1.00  0.00     0.016 C 
ENDROOT
BRANCH  10  22
HETATM   22  O2  UNL     1      21.539  10.437  53.239  1.00  0.00    -0.373 OA
ATOM     23  H2  UNL     1      21.327  11.361  53.308  1.00  0.00     0.212 HD
ENDBRANCH  10  22
BRANCH  13  24
HETATM   24  O3  UNL     1      22.669   8.303  51.561  1.00  0.00    -0.380 OA
BRANCH  24  25
HETATM   25  C23 UNL     1      23.353   7.539  52.504  1.00  0.00     0.195 C 
BRANCH  25  26
HETATM   26  C24 UNL     1      24.574   8.216  53.028  1.00  0.00     0.255 C 
BRANCH  26  27
HETATM   27  N2  UNL     1      24.607   9.618  52.615  1.00  0.00    -0.077 N 
ATOM     28  H23 UNL     1      23.976  10.192  53.175  1.00  0.00     0.274 HD
ATOM     29  H22 UNL     1      25.487  10.066  52.868  1.00  0.00     0.274 HD
ATOM     30  H21 UNL     1      24.412   9.706  51.617  1.00  0.00     0.274 HD
ENDBRANCH  26  27
ENDBRANCH  25  26
ENDBRANCH  24  25
ENDBRANCH  13  24
BRANCH   1  31
HETATM   31  C9  UNL     1      14.673   6.017  46.074  1.00  0.00     0.015 C 
HETATM   32  C10 UNL     1      13.857   6.633  44.964  1.00  0.00     0.013 C 
BRANCH  31  33
HETATM   33  C8  UNL     1      14.085   4.691  46.430  1.00  0.00     0.122 C 
BRANCH  33  34
HETATM   34  C7  UNL     1      13.328   4.121  45.198  1.00  0.00     0.032 C 
BRANCH  34  35
HETATM   35  C6  UNL     1      14.158   3.025  44.623  1.00  0.00     0.002 C 
BRANCH  35  36
HETATM   36  C5  UNL     1      14.120   2.975  43.123  1.00  0.00     0.000 C 
BRANCH  36  37
HETATM   37  C4  UNL     1      13.287   4.099  42.596  1.00  0.00     0.000 C 
BRANCH  37  38
HETATM   38  C3  UNL     1      13.326   4.096  41.085  1.00  0.00    -0.000 C 
BRANCH  38  39
HETATM   39  C2  UNL     1      12.508   5.324  40.657  1.00  0.00    -0.005 C 
HETATM   40  C1  UNL     1      12.480   5.391  39.163  1.00  0.00     0.005 C 
ENDBRANCH  38  39
ENDBRANCH  37  38
ENDBRANCH  36  37
ENDBRANCH  35  36
ENDBRANCH  34  35
ENDBRANCH  33  34
BRANCH  33  41
HETATM   41  O1  UNL     1      13.058   4.684  47.365  1.00  0.00    -0.395 OA
ATOM     42  H1  UNL     1      13.039   5.606  47.593  1.00  0.00     0.210 HD
ENDBRANCH  33  41
ENDBRANCH  31  33
ENDBRANCH   1  31
TORSDOF 14
ENDMDL
