MODEL 1
REMARK VINA RESULT: -8.481060767      0.000      0.000
REMARK  13 active torsions:
REMARK  status: ('A' for Active; 'I' for Inactive)
REMARK    1  A    between atoms: C2_2  and  C3_3 
REMARK    2  A    between atoms: C2_2  and  C26_36 
REMARK    3  A    between atoms: C3_3  and  C4_4 
REMARK    4  A    between atoms: C4_4  and  C5_5 
REMARK    5  A    between atoms: C5_5  and  C6_6 
REMARK    6  A    between atoms: C12_14  and  C13_15 
REMARK    7  A    between atoms: C13_15  and  C14_16 
REMARK    8  A    between atoms: C14_16  and  C15_17 
REMARK    9  A    between atoms: C15_17  and  C16_18 
REMARK   10  A    between atoms: C16_18  and  C17_19 
REMARK       I    between atoms: C17_19  and  N1_21 
REMARK       I    between atoms: C18_23  and  N2_24 
REMARK       I    between atoms: C18_23  and  N3_27 
REMARK   11  A    between atoms: N3_27  and  C19_29 
REMARK   12  A    between atoms: C28_38  and  C29_39 
REMARK   13  A    between atoms: C29_39  and  O4_41 
ROOT
HETATM    1  C6  UNL     1      14.684   6.858  45.865  1.00  0.00     0.065 C 
HETATM    2  C7  UNL     1      14.649   8.351  45.627  1.00  0.00     0.147 C 
HETATM    3  O1  UNL     1      13.881   9.101  46.074  1.00  0.00    -0.296 OA
HETATM    4  C8  UNL     1      15.741   8.838  44.717  1.00  0.00     0.074 C 
HETATM    5  C9  UNL     1      15.879  10.324  44.719  1.00  0.00     0.031 C 
HETATM    6  C10 UNL     1      15.538   8.250  43.368  1.00  0.00     0.031 C 
HETATM    7  C11 UNL     1      16.931   8.130  45.347  1.00  0.00     0.147 C 
HETATM    8  O2  UNL     1      17.917   7.886  44.766  1.00  0.00    -0.296 OA
HETATM    9  C12 UNL     1      16.710   7.776  46.781  1.00  0.00     0.065 C 
HETATM   10  C23 UNL     1      15.717   6.670  46.948  1.00  0.00    -0.027 C 
HETATM   11  C24 UNL     1      15.187   6.745  48.353  1.00  0.00     0.016 C 
HETATM   12  C25 UNL     1      16.356   5.311  46.730  1.00  0.00     0.016 C 
ENDROOT
BRANCH   9  13
HETATM   13  C13 UNL     1      18.034   7.737  47.485  1.00  0.00     0.013 C 
BRANCH  13  14
HETATM   14  C14 UNL     1      18.084   8.950  48.380  1.00  0.00     0.001 C 
BRANCH  14  15
HETATM   15  C15 UNL     1      19.359   9.433  48.910  1.00  0.00     0.009 C 
BRANCH  15  16
HETATM   16  C16 UNL     1      20.494   8.444  48.914  1.00  0.00     0.103 C 
BRANCH  16  17
HETATM   17  C17 UNL     1      21.770   9.701  49.500  1.00  0.00     0.235 C 
HETATM   18  O3  UNL     1      21.632  10.222  48.615  1.00  0.00    -0.273 OA
HETATM   19  N1  UNL     1      21.938   8.964  50.711  1.00  0.00    -0.160 N 
HETATM   20  C18 UNL     1      21.464   7.953  51.429  1.00  0.00     0.674 C 
ATOM     21  H1  UNL     1      22.725   9.368  51.219  1.00  0.00     0.187 HD
HETATM   22  N2  UNL     1      22.179   7.682  52.562  1.00  0.00    -0.235 N 
HETATM   23  N3  UNL     1      20.333   7.125  51.323  1.00  0.00    -0.218 N 
ATOM     24  H22 UNL     1      22.999   8.283  52.638  1.00  0.00     0.174 HD
ATOM     25  H21 UNL     1      21.814   6.906  53.113  1.00  0.00     0.174 HD
ATOM     26  H3  UNL     1      20.362   6.413  50.594  1.00  0.00     0.178 HD
BRANCH  23  27
HETATM   27  C19 UNL     1      19.151   7.168  52.119  1.00  0.00     0.036 C 
HETATM   28  C20 UNL     1      17.956   6.587  51.375  1.00  0.00     0.038 C 
HETATM   29  C21 UNL     1      19.241   6.431  53.420  1.00  0.00     0.038 C 
HETATM   30  C22 UNL     1      18.746   8.625  52.398  1.00  0.00     0.038 C 
ENDBRANCH  23  27
ENDBRANCH  16  17
ENDBRANCH  15  16
ENDBRANCH  14  15
ENDBRANCH  13  14
ENDBRANCH   9  13
BRANCH   1  31
HETATM   31  C5  UNL     1      13.338   6.294  45.948  1.00  0.00     0.013 C 
BRANCH  31  32
HETATM   32  C4  UNL     1      12.351   6.494  44.873  1.00  0.00     0.005 C 
BRANCH  32  33
HETATM   33  C3  UNL     1      11.896   5.133  44.270  1.00  0.00     0.038 C 
BRANCH  33  34
HETATM   34  C2  UNL     1      13.037   4.687  43.385  1.00  0.00    -0.062 C 
HETATM   35  C1  UNL     1      13.287   5.360  42.291  1.00  0.00     0.019 C 
BRANCH  34  36
HETATM   36  C26 UNL     1      13.760   3.431  43.632  1.00  0.00    -0.058 C 
HETATM   37  C27 UNL     1      14.437   2.843  42.364  1.00  0.00     0.048 C 
HETATM   38  C28 UNL     1      13.919   2.754  44.681  1.00  0.00     0.011 C 
BRANCH  38  39
HETATM   39  C29 UNL     1      13.534   2.819  46.068  1.00  0.00     0.137 C 
HETATM   40  C30 UNL     1      14.684   2.193  46.887  1.00  0.00     0.043 C 
BRANCH  39  41
HETATM   41  O4  UNL     1      12.387   1.997  46.294  1.00  0.00    -0.392 OA
ATOM     42  H4  UNL     1      12.471   1.547  47.126  1.00  0.00     0.210 HD
ENDBRANCH  39  41
ENDBRANCH  38  39
ENDBRANCH  34  36
ENDBRANCH  33  34
ENDBRANCH  32  33
ENDBRANCH  31  32
ENDBRANCH   1  31
TORSDOF 13
ENDMDL
MODEL 2
REMARK VINA RESULT: -8.428076040      1.583      2.385
REMARK  13 active torsions:
REMARK  status: ('A' for Active; 'I' for Inactive)
REMARK    1  A    between atoms: C2_2  and  C3_3 
REMARK    2  A    between atoms: C2_2  and  C26_36 
REMARK    3  A    between atoms: C3_3  and  C4_4 
REMARK    4  A    between atoms: C4_4  and  C5_5 
REMARK    5  A    between atoms: C5_5  and  C6_6 
REMARK    6  A    between atoms: C12_14  and  C13_15 
REMARK    7  A    between atoms: C13_15  and  C14_16 
REMARK    8  A    between atoms: C14_16  and  C15_17 
REMARK    9  A    between atoms: C15_17  and  C16_18 
REMARK   10  A    between atoms: C16_18  and  C17_19 
REMARK       I    between atoms: C17_19  and  N1_21 
REMARK       I    between atoms: C18_23  and  N2_24 
REMARK       I    between atoms: C18_23  and  N3_27 
REMARK   11  A    between atoms: N3_27  and  C19_29 
REMARK   12  A    between atoms: C28_38  and  C29_39 
REMARK   13  A    between atoms: C29_39  and  O4_41 
ROOT
HETATM    1  C6  UNL     1      14.790   6.530  45.826  1.00  0.00     0.065 C 
HETATM    2  C7  UNL     1      14.693   8.034  45.701  1.00  0.00     0.147 C 
HETATM    3  O1  UNL     1      13.861   8.709  46.155  1.00  0.00    -0.296 OA
HETATM    4  C8  UNL     1      15.812   8.643  44.904  1.00  0.00     0.074 C 
HETATM    5  C9  UNL     1      15.871  10.129  45.030  1.00  0.00     0.031 C 
HETATM    6  C10 UNL     1      15.721   8.156  43.504  1.00  0.00     0.031 C 
HETATM    7  C11 UNL     1      16.996   7.943  45.553  1.00  0.00     0.147 C 
HETATM    8  O2  UNL     1      18.026   7.794  45.020  1.00  0.00    -0.296 OA
HETATM    9  C12 UNL     1      16.707   7.466  46.939  1.00  0.00     0.065 C 
HETATM   10  C23 UNL     1      15.764   6.305  46.956  1.00  0.00    -0.027 C 
HETATM   11  C24 UNL     1      15.147   6.242  48.325  1.00  0.00     0.016 C 
HETATM   12  C25 UNL     1      16.486   4.999  46.676  1.00  0.00     0.016 C 
ENDROOT
BRANCH   9  13
HETATM   13  C13 UNL     1      17.986   7.434  47.722  1.00  0.00     0.013 C 
BRANCH  13  14
HETATM   14  C14 UNL     1      18.063   8.736  48.478  1.00  0.00     0.001 C 
BRANCH  14  15
HETATM   15  C15 UNL     1      19.359   9.310  48.843  1.00  0.00     0.009 C 
BRANCH  15  16
HETATM   16  C16 UNL     1      20.523   8.355  48.875  1.00  0.00     0.103 C 
BRANCH  16  17
HETATM   17  C17 UNL     1      21.753   9.658  49.460  1.00  0.00     0.235 C 
HETATM   18  O3  UNL     1      21.633  10.148  48.555  1.00  0.00    -0.273 OA
HETATM   19  N1  UNL     1      21.898   8.963  50.699  1.00  0.00    -0.160 N 
HETATM   20  C18 UNL     1      21.422   7.965  51.434  1.00  0.00     0.674 C 
ATOM     21  H1  UNL     1      22.659   9.400  51.218  1.00  0.00     0.187 HD
HETATM   22  N2  UNL     1      22.105   7.746  52.597  1.00  0.00    -0.235 N 
HETATM   23  N3  UNL     1      20.312   7.110  51.320  1.00  0.00    -0.218 N 
ATOM     24  H22 UNL     1      22.910   8.366  52.679  1.00  0.00     0.174 HD
ATOM     25  H21 UNL     1      21.739   6.980  53.161  1.00  0.00     0.174 HD
ATOM     26  H3  UNL     1      20.379   6.376  50.615  1.00  0.00     0.178 HD
BRANCH  23  27
HETATM   27  C19 UNL     1      19.105   7.151  52.077  1.00  0.00     0.036 C 
HETATM   28  C20 UNL     1      19.252   6.416  53.403  1.00  0.00     0.038 C 
HETATM   29  C21 UNL     1      18.614   8.527  52.405  1.00  0.00     0.038 C 
HETATM   30  C22 UNL     1      17.989   6.385  51.347  1.00  0.00     0.038 C 
ENDBRANCH  23  27
ENDBRANCH  16  17
ENDBRANCH  15  16
ENDBRANCH  14  15
ENDBRANCH  13  14
ENDBRANCH   9  13
BRANCH   1  31
HETATM   31  C5  UNL     1      13.474   5.899  45.778  1.00  0.00     0.013 C 
BRANCH  31  32
HETATM   32  C4  UNL     1      12.519   6.187  44.693  1.00  0.00     0.005 C 
BRANCH  32  33
HETATM   33  C3  UNL     1      12.184   4.899  43.885  1.00  0.00     0.038 C 
BRANCH  33  34
HETATM   34  C2  UNL     1      13.091   4.938  42.677  1.00  0.00    -0.062 C 
HETATM   35  C1  UNL     1      13.174   6.047  41.987  1.00  0.00     0.019 C 
BRANCH  34  36
HETATM   36  C26 UNL     1      13.745   3.726  42.163  1.00  0.00    -0.058 C 
HETATM   37  C27 UNL     1      14.159   2.724  43.276  1.00  0.00     0.048 C 
HETATM   38  C28 UNL     1      14.030   3.366  40.991  1.00  0.00     0.011 C 
BRANCH  38  39
HETATM   39  C29 UNL     1      13.889   3.873  39.650  1.00  0.00     0.137 C 
HETATM   40  C30 UNL     1      12.412   3.677  39.245  1.00  0.00     0.043 C 
BRANCH  39  41
HETATM   41  O4  UNL     1      14.661   3.080  38.746  1.00  0.00    -0.392 OA
ATOM     42  H4  UNL     1      14.702   2.183  39.055  1.00  0.00     0.210 HD
ENDBRANCH  39  41
ENDBRANCH  38  39
ENDBRANCH  34  36
ENDBRANCH  33  34
ENDBRANCH  32  33
ENDBRANCH  31  32
ENDBRANCH   1  31
TORSDOF 13
ENDMDL
MODEL 3
REMARK VINA RESULT: -8.382345682      1.662      2.508
REMARK  13 active torsions:
REMARK  status: ('A' for Active; 'I' for Inactive)
REMARK    1  A    between atoms: C2_2  and  C3_3 
REMARK    2  A    between atoms: C2_2  and  C26_36 
REMARK    3  A    between atoms: C3_3  and  C4_4 
REMARK    4  A    between atoms: C4_4  and  C5_5 
REMARK    5  A    between atoms: C5_5  and  C6_6 
REMARK    6  A    between atoms: C12_14  and  C13_15 
REMARK    7  A    between atoms: C13_15  and  C14_16 
REMARK    8  A    between atoms: C14_16  and  C15_17 
REMARK    9  A    between atoms: C15_17  and  C16_18 
REMARK   10  A    between atoms: C16_18  and  C17_19 
REMARK       I    between atoms: C17_19  and  N1_21 
REMARK       I    between atoms: C18_23  and  N2_24 
REMARK       I    between atoms: C18_23  and  N3_27 
REMARK   11  A    between atoms: N3_27  and  C19_29 
REMARK   12  A    between atoms: C28_38  and  C29_39 
REMARK   13  A    between atoms: C29_39  and  O4_41 
ROOT
HETATM    1  C6  UNL     1      14.876   6.481  45.987  1.00  0.00     0.065 C 
HETATM    2  C7  UNL     1      14.763   7.980  45.824  1.00  0.00     0.147 C 
HETATM    3  O1  UNL     1      13.925   8.658  46.261  1.00  0.00    -0.296 OA
HETATM    4  C8  UNL     1      15.875   8.580  45.011  1.00  0.00     0.074 C 
HETATM    5  C9  UNL     1      15.919  10.069  45.099  1.00  0.00     0.031 C 
HETATM    6  C10 UNL     1      15.788   8.057  43.623  1.00  0.00     0.031 C 
HETATM    7  C11 UNL     1      17.066   7.909  45.676  1.00  0.00     0.147 C 
HETATM    8  O2  UNL     1      18.098   7.757  45.146  1.00  0.00    -0.296 OA
HETATM    9  C12 UNL     1      16.783   7.464  47.074  1.00  0.00     0.065 C 
HETATM   10  C23 UNL     1      15.852   6.294  47.121  1.00  0.00    -0.027 C 
HETATM   11  C24 UNL     1      15.237   6.260  48.492  1.00  0.00     0.016 C 
HETATM   12  C25 UNL     1      16.587   4.990  46.873  1.00  0.00     0.016 C 
ENDROOT
BRANCH   9  13
HETATM   13  C13 UNL     1      18.063   7.465  47.856  1.00  0.00     0.013 C 
BRANCH  13  14
HETATM   14  C14 UNL     1      18.143   8.799  48.554  1.00  0.00     0.001 C 
BRANCH  14  15
HETATM   15  C15 UNL     1      19.438   9.361  48.939  1.00  0.00     0.009 C 
BRANCH  15  16
HETATM   16  C16 UNL     1      20.592   8.397  48.991  1.00  0.00     0.103 C 
BRANCH  16  17
HETATM   17  C17 UNL     1      21.829   9.694  49.572  1.00  0.00     0.235 C 
HETATM   18  O3  UNL     1      21.685  10.201  48.679  1.00  0.00    -0.273 OA
HETATM   19  N1  UNL     1      22.008   8.976  50.793  1.00  0.00    -0.160 N 
HETATM   20  C18 UNL     1      21.555   7.962  51.520  1.00  0.00     0.674 C 
ATOM     21  H1  UNL     1      22.779   9.408  51.303  1.00  0.00     0.187 HD
HETATM   22  N2  UNL     1      22.267   7.724  52.662  1.00  0.00    -0.235 N 
HETATM   23  N3  UNL     1      20.447   7.103  51.416  1.00  0.00    -0.218 N 
ATOM     24  H22 UNL     1      23.071   8.347  52.737  1.00  0.00     0.174 HD
ATOM     25  H21 UNL     1      21.919   6.945  53.220  1.00  0.00     0.174 HD
ATOM     26  H3  UNL     1      20.500   6.383  50.695  1.00  0.00     0.178 HD
BRANCH  23  27
HETATM   27  C19 UNL     1      19.258   7.124  52.202  1.00  0.00     0.036 C 
HETATM   28  C20 UNL     1      18.100   6.445  51.482  1.00  0.00     0.038 C 
HETATM   29  C21 UNL     1      19.375   6.459  53.539  1.00  0.00     0.038 C 
HETATM   30  C22 UNL     1      18.775   8.570  52.405  1.00  0.00     0.038 C 
ENDBRANCH  23  27
ENDBRANCH  16  17
ENDBRANCH  15  16
ENDBRANCH  14  15
ENDBRANCH  13  14
ENDBRANCH   9  13
BRANCH   1  31
HETATM   31  C5  UNL     1      13.566   5.835  45.956  1.00  0.00     0.013 C 
BRANCH  31  32
HETATM   32  C4  UNL     1      13.359   4.542  45.280  1.00  0.00     0.005 C 
BRANCH  32  33
HETATM   33  C3  UNL     1      12.320   4.673  44.128  1.00  0.00     0.038 C 
BRANCH  33  34
HETATM   34  C2  UNL     1      13.091   4.384  42.860  1.00  0.00    -0.062 C 
HETATM   35  C1  UNL     1      13.918   3.369  42.843  1.00  0.00     0.019 C 
BRANCH  34  36
HETATM   36  C26 UNL     1      13.063   5.302  41.713  1.00  0.00    -0.058 C 
HETATM   37  C27 UNL     1      13.139   6.801  42.115  1.00  0.00     0.048 C 
HETATM   38  C28 UNL     1      12.983   5.088  40.476  1.00  0.00     0.011 C 
BRANCH  38  39
HETATM   39  C29 UNL     1      12.889   3.957  39.588  1.00  0.00     0.137 C 
HETATM   40  C30 UNL     1      14.304   3.346  39.483  1.00  0.00     0.043 C 
BRANCH  39  41
HETATM   41  O4  UNL     1      12.545   4.398  38.273  1.00  0.00    -0.392 OA
ATOM     42  H4  UNL     1      12.904   3.801  37.627  1.00  0.00     0.210 HD
ENDBRANCH  39  41
ENDBRANCH  38  39
ENDBRANCH  34  36
ENDBRANCH  33  34
ENDBRANCH  32  33
ENDBRANCH  31  32
ENDBRANCH   1  31
TORSDOF 13
ENDMDL
MODEL 4
REMARK VINA RESULT: -8.357928265      1.430      2.484
REMARK  13 active torsions:
REMARK  status: ('A' for Active; 'I' for Inactive)
REMARK    1  A    between atoms: C2_2  and  C3_3 
REMARK    2  A    between atoms: C2_2  and  C26_36 
REMARK    3  A    between atoms: C3_3  and  C4_4 
REMARK    4  A    between atoms: C4_4  and  C5_5 
REMARK    5  A    between atoms: C5_5  and  C6_6 
REMARK    6  A    between atoms: C12_14  and  C13_15 
REMARK    7  A    between atoms: C13_15  and  C14_16 
REMARK    8  A    between atoms: C14_16  and  C15_17 
REMARK    9  A    between atoms: C15_17  and  C16_18 
REMARK   10  A    between atoms: C16_18  and  C17_19 
REMARK       I    between atoms: C17_19  and  N1_21 
REMARK       I    between atoms: C18_23  and  N2_24 
REMARK       I    between atoms: C18_23  and  N3_27 
REMARK   11  A    between atoms: N3_27  and  C19_29 
REMARK   12  A    between atoms: C28_38  and  C29_39 
REMARK   13  A    between atoms: C29_39  and  O4_41 
ROOT
HETATM    1  C6  UNL     1      14.810   6.704  46.055  1.00  0.00     0.065 C 
HETATM    2  C7  UNL     1      14.711   8.192  45.800  1.00  0.00     0.147 C 
HETATM    3  O1  UNL     1      13.939   8.921  46.276  1.00  0.00    -0.296 OA
HETATM    4  C8  UNL     1      15.740   8.704  44.833  1.00  0.00     0.074 C 
HETATM    5  C9  UNL     1      15.825  10.194  44.811  1.00  0.00     0.031 C 
HETATM    6  C10 UNL     1      15.494   8.091  43.503  1.00  0.00     0.031 C 
HETATM    7  C11 UNL     1      16.983   8.046  45.413  1.00  0.00     0.147 C 
HETATM    8  O2  UNL     1      17.948   7.830  44.788  1.00  0.00    -0.296 OA
HETATM    9  C12 UNL     1      16.844   7.704  46.861  1.00  0.00     0.065 C 
HETATM   10  C23 UNL     1      15.899   6.567  47.089  1.00  0.00    -0.027 C 
HETATM   11  C24 UNL     1      15.436   6.642  48.517  1.00  0.00     0.016 C 
HETATM   12  C25 UNL     1      16.576   5.228  46.856  1.00  0.00     0.016 C 
ENDROOT
BRANCH   9  13
HETATM   13  C13 UNL     1      18.200   7.721  47.500  1.00  0.00     0.013 C 
BRANCH  13  14
HETATM   14  C14 UNL     1      18.210   8.882  48.463  1.00  0.00     0.001 C 
BRANCH  14  15
HETATM   15  C15 UNL     1      19.474   9.456  48.925  1.00  0.00     0.009 C 
BRANCH  15  16
HETATM   16  C16 UNL     1      20.657   8.525  48.951  1.00  0.00     0.103 C 
BRANCH  16  17
HETATM   17  C17 UNL     1      21.847   9.833  49.603  1.00  0.00     0.235 C 
HETATM   18  O3  UNL     1      21.739  10.347  48.709  1.00  0.00    -0.273 OA
HETATM   19  N1  UNL     1      21.975   9.105  50.825  1.00  0.00    -0.160 N 
HETATM   20  C18 UNL     1      21.501   8.078  51.519  1.00  0.00     0.674 C 
ATOM     21  H1  UNL     1      22.715   9.542  51.375  1.00  0.00     0.187 HD
HETATM   22  N2  UNL     1      22.160   7.838  52.692  1.00  0.00    -0.235 N 
HETATM   23  N3  UNL     1      20.411   7.206  51.353  1.00  0.00    -0.218 N 
ATOM     24  H22 UNL     1      22.951   8.470  52.812  1.00  0.00     0.174 HD
ATOM     25  H21 UNL     1      21.795   7.049  53.225  1.00  0.00     0.174 HD
ATOM     26  H3  UNL     1      20.509   6.494  50.629  1.00  0.00     0.178 HD
BRANCH  23  27
HETATM   27  C19 UNL     1      19.185   7.203  52.080  1.00  0.00     0.036 C 
HETATM   28  C20 UNL     1      19.317   6.444  53.395  1.00  0.00     0.038 C 
HETATM   29  C21 UNL     1      18.653   8.560  52.424  1.00  0.00     0.038 C 
HETATM   30  C22 UNL     1      18.106   6.426  51.308  1.00  0.00     0.038 C 
ENDBRANCH  23  27
ENDBRANCH  16  17
ENDBRANCH  15  16
ENDBRANCH  14  15
ENDBRANCH  13  14
ENDBRANCH   9  13
BRANCH   1  31
HETATM   31  C5  UNL     1      13.491   6.095  46.209  1.00  0.00     0.013 C 
BRANCH  31  32
HETATM   32  C4  UNL     1      13.074   4.941  45.393  1.00  0.00     0.005 C 
BRANCH  32  33
HETATM   33  C3  UNL     1      13.202   5.254  43.873  1.00  0.00     0.038 C 
BRANCH  33  34
HETATM   34  C2  UNL     1      13.627   3.953  43.231  1.00  0.00    -0.062 C 
HETATM   35  C1  UNL     1      14.042   2.978  43.998  1.00  0.00     0.019 C 
BRANCH  34  36
HETATM   36  C26 UNL     1      13.743   3.814  41.773  1.00  0.00    -0.058 C 
HETATM   37  C27 UNL     1      14.567   2.574  41.330  1.00  0.00     0.048 C 
HETATM   38  C28 UNL     1      13.301   4.522  40.830  1.00  0.00     0.011 C 
BRANCH  38  39
HETATM   39  C29 UNL     1      12.520   5.721  40.666  1.00  0.00     0.137 C 
HETATM   40  C30 UNL     1      12.167   5.830  39.166  1.00  0.00     0.043 C 
BRANCH  39  41
HETATM   41  O4  UNL     1      13.316   6.867  40.974  1.00  0.00    -0.392 OA
ATOM     42  H4  UNL     1      12.756   7.598  41.206  1.00  0.00     0.210 HD
ENDBRANCH  39  41
ENDBRANCH  38  39
ENDBRANCH  34  36
ENDBRANCH  33  34
ENDBRANCH  32  33
ENDBRANCH  31  32
ENDBRANCH   1  31
TORSDOF 13
ENDMDL
MODEL 5
REMARK VINA RESULT: -8.243472816      1.578      2.496
REMARK  13 active torsions:
REMARK  status: ('A' for Active; 'I' for Inactive)
REMARK    1  A    between atoms: C2_2  and  C3_3 
REMARK    2  A    between atoms: C2_2  and  C26_36 
REMARK    3  A    between atoms: C3_3  and  C4_4 
REMARK    4  A    between atoms: C4_4  and  C5_5 
REMARK    5  A    between atoms: C5_5  and  C6_6 
REMARK    6  A    between atoms: C12_14  and  C13_15 
REMARK    7  A    between atoms: C13_15  and  C14_16 
REMARK    8  A    between atoms: C14_16  and  C15_17 
REMARK    9  A    between atoms: C15_17  and  C16_18 
REMARK   10  A    between atoms: C16_18  and  C17_19 
REMARK       I    between atoms: C17_19  and  N1_21 
REMARK       I    between atoms: C18_23  and  N2_24 
REMARK       I    between atoms: C18_23  and  N3_27 
REMARK   11  A    between atoms: N3_27  and  C19_29 
REMARK   12  A    between atoms: C28_38  and  C29_39 
REMARK   13  A    between atoms: C29_39  and  O4_41 
ROOT
HETATM    1  C6  UNL     1      14.704   6.894  45.834  1.00  0.00     0.065 C 
HETATM    2  C7  UNL     1      14.638   8.384  45.579  1.00  0.00     0.147 C 
HETATM    3  O1  UNL     1      13.872   9.127  46.042  1.00  0.00    -0.296 OA
HETATM    4  C8  UNL     1      15.694   8.877  44.632  1.00  0.00     0.074 C 
HETATM    5  C9  UNL     1      15.808  10.365  44.614  1.00  0.00     0.031 C 
HETATM    6  C10 UNL     1      15.460   8.271  43.297  1.00  0.00     0.031 C 
HETATM    7  C11 UNL     1      16.914   8.196  45.233  1.00  0.00     0.147 C 
HETATM    8  O2  UNL     1      17.885   7.961  44.626  1.00  0.00    -0.296 OA
HETATM    9  C12 UNL     1      16.742   7.855  46.678  1.00  0.00     0.065 C 
HETATM   10  C23 UNL     1      15.772   6.735  46.887  1.00  0.00    -0.027 C 
HETATM   11  C24 UNL     1      15.284   6.818  48.306  1.00  0.00     0.016 C 
HETATM   12  C25 UNL     1      16.427   5.384  46.665  1.00  0.00     0.016 C 
ENDROOT
BRANCH   9  13
HETATM   13  C13 UNL     1      18.087   7.846  47.341  1.00  0.00     0.013 C 
BRANCH  13  14
HETATM   14  C14 UNL     1      18.078   8.964  48.353  1.00  0.00     0.001 C 
BRANCH  14  15
HETATM   15  C15 UNL     1      18.303   8.686  49.772  1.00  0.00     0.009 C 
BRANCH  15  16
HETATM   16  C16 UNL     1      18.089   9.839  50.717  1.00  0.00     0.103 C 
BRANCH  16  17
HETATM   17  C17 UNL     1      17.829   8.736  52.222  1.00  0.00     0.235 C 
HETATM   18  O3  UNL     1      17.022   8.301  51.738  1.00  0.00    -0.273 OA
HETATM   19  N1  UNL     1      18.945   9.351  52.865  1.00  0.00    -0.160 N 
HETATM   20  C18 UNL     1      19.958  10.190  52.690  1.00  0.00     0.674 C 
ATOM     21  H1  UNL     1      18.976   9.018  53.829  1.00  0.00     0.187 HD
HETATM   22  N2  UNL     1      20.685  10.441  53.820  1.00  0.00    -0.235 N 
HETATM   23  N3  UNL     1      20.505  10.841  51.571  1.00  0.00    -0.218 N 
ATOM     24  H22 UNL     1      20.287   9.969  54.632  1.00  0.00     0.174 HD
ATOM     25  H21 UNL     1      21.463  11.085  53.684  1.00  0.00     0.174 HD
ATOM     26  H3  UNL     1      19.971  11.626  51.198  1.00  0.00     0.178 HD
BRANCH  23  27
HETATM   27  C19 UNL     1      21.723  10.529  50.897  1.00  0.00     0.036 C 
HETATM   28  C20 UNL     1      22.821  11.528  51.238  1.00  0.00     0.038 C 
HETATM   29  C21 UNL     1      22.277   9.170  51.194  1.00  0.00     0.038 C 
HETATM   30  C22 UNL     1      21.545  10.674  49.376  1.00  0.00     0.038 C 
ENDBRANCH  23  27
ENDBRANCH  16  17
ENDBRANCH  15  16
ENDBRANCH  14  15
ENDBRANCH  13  14
ENDBRANCH   9  13
BRANCH   1  31
HETATM   31  C5  UNL     1      13.371   6.310  45.963  1.00  0.00     0.013 C 
BRANCH  31  32
HETATM   32  C4  UNL     1      12.340   6.506  44.929  1.00  0.00     0.005 C 
BRANCH  32  33
HETATM   33  C3  UNL     1      11.883   5.143  44.330  1.00  0.00     0.038 C 
BRANCH  33  34
HETATM   34  C2  UNL     1      13.012   4.705  43.426  1.00  0.00    -0.062 C 
HETATM   35  C1  UNL     1      13.244   5.384  42.332  1.00  0.00     0.019 C 
BRANCH  34  36
HETATM   36  C26 UNL     1      13.743   3.451  43.657  1.00  0.00    -0.058 C 
HETATM   37  C27 UNL     1      14.410   2.876  42.377  1.00  0.00     0.048 C 
HETATM   38  C28 UNL     1      13.914   2.765  44.699  1.00  0.00     0.011 C 
BRANCH  38  39
HETATM   39  C29 UNL     1      13.540   2.818  46.089  1.00  0.00     0.137 C 
HETATM   40  C30 UNL     1      14.715   2.222  46.896  1.00  0.00     0.043 C 
BRANCH  39  41
HETATM   41  O4  UNL     1      12.419   1.963  46.325  1.00  0.00    -0.392 OA
ATOM     42  H4  UNL     1      11.870   2.331  47.007  1.00  0.00     0.210 HD
ENDBRANCH  39  41
ENDBRANCH  38  39
ENDBRANCH  34  36
ENDBRANCH  33  34
ENDBRANCH  32  33
ENDBRANCH  31  32
ENDBRANCH   1  31
TORSDOF 13
ENDMDL
