MODEL 1
REMARK VINA RESULT: -8.640257203      0.000      0.000
REMARK  15 active torsions:
REMARK  status: ('A' for Active; 'I' for Inactive)
REMARK    1  A    between atoms: C2_2  and  C3_3 
REMARK    2  A    between atoms: C3_3  and  C4_4 
REMARK    3  A    between atoms: C4_4  and  C6_6 
REMARK    4  A    between atoms: C4_4  and  C7_9 
REMARK    5  A    between atoms: C6_6  and  O1_7 
REMARK    6  A    between atoms: C7_9  and  C8_10 
REMARK    7  A    between atoms: C8_10  and  C9_11 
REMARK    8  A    between atoms: C9_11  and  C10_13 
REMARK    9  A    between atoms: C10_13  and  C11_14 
REMARK   10  A    between atoms: C11_14  and  C12_15 
REMARK   11  A    between atoms: C12_15  and  C13_16 
REMARK   12  A    between atoms: C13_16  and  C14_17 
REMARK   13  A    between atoms: C17_20  and  O3_22 
REMARK   14  A    between atoms: C23_28  and  O4_29 
REMARK   15  A    between atoms: C27_34  and  O5_35 
ROOT
HETATM    1  C14 UNL     1      14.018   5.958  46.077  1.00  0.00    -0.005 C 
HETATM    2  C15 UNL     1      12.902   5.167  46.842  1.00  0.00    -0.003 C 
HETATM    3  C16 UNL     1      11.660   5.066  45.944  1.00  0.00     0.043 C 
HETATM    4  C17 UNL     1      10.710   4.117  46.607  1.00  0.00     0.054 C 
HETATM    5  C18 UNL     1      10.497   4.433  48.048  1.00  0.00     0.045 C 
HETATM    6  C19 UNL     1      11.284   2.716  46.500  1.00  0.00     0.038 C 
HETATM    7  C20 UNL     1      12.768   2.747  46.230  1.00  0.00     0.008 C 
HETATM    8  C21 UNL     1      13.464   3.822  47.053  1.00  0.00    -0.003 C 
HETATM    9  C22 UNL     1      14.877   3.926  46.513  1.00  0.00     0.024 C 
HETATM   10  C23 UNL     1      15.762   2.969  47.212  1.00  0.00     0.123 C 
HETATM   11  C24 UNL     1      16.020   3.544  48.606  1.00  0.00     0.037 C 
HETATM   12  C25 UNL     1      16.849   4.741  48.323  1.00  0.00    -0.001 C 
HETATM   13  C26 UNL     1      17.621   5.182  49.515  1.00  0.00     0.037 C 
HETATM   14  C27 UNL     1      18.194   6.543  49.463  1.00  0.00     0.118 C 
HETATM   15  C28 UNL     1      18.166   7.236  48.158  1.00  0.00     0.032 C 
HETATM   16  C29 UNL     1      17.372   6.613  47.067  1.00  0.00     0.012 C 
HETATM   17  C30 UNL     1      16.115   5.870  47.599  1.00  0.00    -0.036 C 
HETATM   18  C31 UNL     1      15.455   6.673  48.680  1.00  0.00     0.016 C 
HETATM   19  C32 UNL     1      15.281   5.391  46.515  1.00  0.00     0.005 C 
ENDROOT
BRANCH   1  20
HETATM   20  C13 UNL     1      13.564   7.300  45.920  1.00  0.00     0.005 C 
BRANCH  20  21
HETATM   21  C12 UNL     1      14.550   8.416  45.756  1.00  0.00     0.001 C 
BRANCH  21  22
HETATM   22  C11 UNL     1      13.919   9.699  45.229  1.00  0.00     0.007 C 
BRANCH  22  23
HETATM   23  C10 UNL     1      14.418  10.028  43.850  1.00  0.00     0.078 C 
BRANCH  23  24
HETATM   24  C9  UNL     1      14.560   8.723  43.094  1.00  0.00     0.127 C 
HETATM   25  O2  UNL     1      15.649   8.277  42.872  1.00  0.00    -0.298 OA
BRANCH  24  26
HETATM   26  C8  UNL     1      13.356   7.998  42.629  1.00  0.00     0.079 C 
BRANCH  26  27
HETATM   27  C7  UNL     1      13.717   6.562  42.346  1.00  0.00     0.019 C 
BRANCH  27  28
HETATM   28  C4  UNL     1      12.529   5.717  42.012  1.00  0.00    -0.019 C 
HETATM   29  C5  UNL     1      11.282   6.513  42.360  1.00  0.00     0.018 C 
BRANCH  28  30
HETATM   30  C3  UNL     1      12.476   4.437  42.806  1.00  0.00     0.037 C 
BRANCH  30  31
HETATM   31  C2  UNL     1      13.850   3.905  42.910  1.00  0.00    -0.036 C 
HETATM   32  C1  UNL     1      14.198   2.697  42.511  1.00  0.00     0.007 C 
ENDBRANCH  30  31
ENDBRANCH  28  30
BRANCH  28  33
HETATM   33  C6  UNL     1      12.477   5.439  40.532  1.00  0.00     0.173 C 
BRANCH  33  34
HETATM   34  O1  UNL     1      11.635   4.355  40.304  1.00  0.00    -0.400 OA
ATOM     35  H1  UNL     1      12.119   3.551  40.449  1.00  0.00     0.209 HD
ENDBRANCH  33  34
ENDBRANCH  28  33
ENDBRANCH  27  28
ENDBRANCH  26  27
ENDBRANCH  24  26
ENDBRANCH  23  24
ENDBRANCH  22  23
ENDBRANCH  21  22
ENDBRANCH  20  21
ENDBRANCH   1  20
BRANCH   4  36
HETATM   36  O3  UNL     1       9.491   4.215  45.933  1.00  0.00    -0.390 OA
ATOM     37  H3  UNL     1       8.925   3.532  46.273  1.00  0.00     0.210 HD
ENDBRANCH   4  36
BRANCH  10  38
HETATM   38  O4  UNL     1      16.958   2.734  46.595  1.00  0.00    -0.395 OA
ATOM     39  H4  UNL     1      17.259   1.834  46.636  1.00  0.00     0.210 HD
ENDBRANCH  10  38
BRANCH  14  40
HETATM   40  O5  UNL     1      19.534   6.475  49.894  1.00  0.00    -0.396 OA
ATOM     41  H5  UNL     1      20.094   6.479  49.127  1.00  0.00     0.210 HD
ENDBRANCH  14  40
TORSDOF 15
ENDMDL
MODEL 2
REMARK VINA RESULT: -8.571451456      1.288      1.815
REMARK  15 active torsions:
REMARK  status: ('A' for Active; 'I' for Inactive)
REMARK    1  A    between atoms: C2_2  and  C3_3 
REMARK    2  A    between atoms: C3_3  and  C4_4 
REMARK    3  A    between atoms: C4_4  and  C6_6 
REMARK    4  A    between atoms: C4_4  and  C7_9 
REMARK    5  A    between atoms: C6_6  and  O1_7 
REMARK    6  A    between atoms: C7_9  and  C8_10 
REMARK    7  A    between atoms: C8_10  and  C9_11 
REMARK    8  A    between atoms: C9_11  and  C10_13 
REMARK    9  A    between atoms: C10_13  and  C11_14 
REMARK   10  A    between atoms: C11_14  and  C12_15 
REMARK   11  A    between atoms: C12_15  and  C13_16 
REMARK   12  A    between atoms: C13_16  and  C14_17 
REMARK   13  A    between atoms: C17_20  and  O3_22 
REMARK   14  A    between atoms: C23_28  and  O4_29 
REMARK   15  A    between atoms: C27_34  and  O5_35 
ROOT
HETATM    1  C14 UNL     1      14.077   5.802  45.651  1.00  0.00    -0.005 C 
HETATM    2  C15 UNL     1      12.916   5.222  46.530  1.00  0.00    -0.003 C 
HETATM    3  C16 UNL     1      11.707   4.933  45.628  1.00  0.00     0.043 C 
HETATM    4  C17 UNL     1      10.711   4.175  46.451  1.00  0.00     0.054 C 
HETATM    5  C18 UNL     1      10.452   4.817  47.771  1.00  0.00     0.045 C 
HETATM    6  C19 UNL     1      11.258   2.780  46.692  1.00  0.00     0.038 C 
HETATM    7  C20 UNL     1      12.751   2.728  46.484  1.00  0.00     0.008 C 
HETATM    8  C21 UNL     1      13.440   3.955  47.067  1.00  0.00    -0.003 C 
HETATM    9  C22 UNL     1      14.874   3.913  46.577  1.00  0.00     0.024 C 
HETATM   10  C23 UNL     1      15.710   3.131  47.513  1.00  0.00     0.123 C 
HETATM   11  C24 UNL     1      15.929   4.008  48.747  1.00  0.00     0.037 C 
HETATM   12  C25 UNL     1      16.795   5.097  48.232  1.00  0.00    -0.001 C 
HETATM   13  C26 UNL     1      17.531   5.789  49.322  1.00  0.00     0.037 C 
HETATM   14  C27 UNL     1      18.135   7.095  48.983  1.00  0.00     0.118 C 
HETATM   15  C28 UNL     1      18.172   7.469  47.554  1.00  0.00     0.032 C 
HETATM   16  C29 UNL     1      17.405   6.622  46.603  1.00  0.00     0.012 C 
HETATM   17  C30 UNL     1      16.113   6.038  47.238  1.00  0.00    -0.036 C 
HETATM   18  C31 UNL     1      15.432   7.077  48.078  1.00  0.00     0.016 C 
HETATM   19  C32 UNL     1      15.310   5.334  46.259  1.00  0.00     0.005 C 
ENDROOT
BRANCH   1  20
HETATM   20  C13 UNL     1      13.659   7.077  45.171  1.00  0.00     0.005 C 
BRANCH  20  21
HETATM   21  C12 UNL     1      14.616   7.952  44.420  1.00  0.00     0.001 C 
BRANCH  21  22
HETATM   22  C11 UNL     1      14.376   7.948  42.916  1.00  0.00     0.007 C 
BRANCH  22  23
HETATM   23  C10 UNL     1      13.650   6.706  42.482  1.00  0.00     0.078 C 
BRANCH  23  24
HETATM   24  C9  UNL     1      12.570   7.128  41.506  1.00  0.00     0.127 C 
HETATM   25  O2  UNL     1      11.825   8.021  41.791  1.00  0.00    -0.298 OA
BRANCH  24  26
HETATM   26  C8  UNL     1      12.434   6.439  40.203  1.00  0.00     0.079 C 
BRANCH  26  27
HETATM   27  C7  UNL     1      13.637   5.559  39.977  1.00  0.00     0.019 C 
BRANCH  27  28
HETATM   28  C4  UNL     1      13.311   4.101  40.034  1.00  0.00    -0.019 C 
HETATM   29  C5  UNL     1      12.092   3.864  39.158  1.00  0.00     0.018 C 
BRANCH  28  30
HETATM   30  C3  UNL     1      12.958   3.631  41.422  1.00  0.00     0.037 C 
BRANCH  30  31
HETATM   31  C2  UNL     1      14.167   3.035  42.025  1.00  0.00    -0.036 C 
HETATM   32  C1  UNL     1      14.265   2.709  43.299  1.00  0.00     0.007 C 
ENDBRANCH  30  31
ENDBRANCH  28  30
BRANCH  28  33
HETATM   33  C6  UNL     1      14.437   3.284  39.456  1.00  0.00     0.173 C 
BRANCH  33  34
HETATM   34  O1  UNL     1      13.907   2.314  38.611  1.00  0.00    -0.400 OA
ATOM     35  H1  UNL     1      14.174   2.500  37.720  1.00  0.00     0.209 HD
ENDBRANCH  33  34
ENDBRANCH  28  33
ENDBRANCH  27  28
ENDBRANCH  26  27
ENDBRANCH  24  26
ENDBRANCH  23  24
ENDBRANCH  22  23
ENDBRANCH  21  22
ENDBRANCH  20  21
ENDBRANCH   1  20
BRANCH   4  36
HETATM   36  O3  UNL     1       9.521   4.131  45.722  1.00  0.00    -0.390 OA
ATOM     37  H3  UNL     1       8.838   4.489  46.278  1.00  0.00     0.210 HD
ENDBRANCH   4  36
BRANCH  10  38
HETATM   38  O4  UNL     1      16.923   2.744  47.016  1.00  0.00    -0.395 OA
ATOM     39  H4  UNL     1      17.537   3.453  46.861  1.00  0.00     0.210 HD
ENDBRANCH  10  38
BRANCH  14  40
HETATM   40  O5  UNL     1      19.457   7.110  49.473  1.00  0.00    -0.396 OA
ATOM     41  H5  UNL     1      19.671   8.001  49.724  1.00  0.00     0.210 HD
ENDBRANCH  14  40
TORSDOF 15
ENDMDL
MODEL 3
REMARK VINA RESULT: -7.924245416      2.034      5.490
REMARK  15 active torsions:
REMARK  status: ('A' for Active; 'I' for Inactive)
REMARK    1  A    between atoms: C2_2  and  C3_3 
REMARK    2  A    between atoms: C3_3  and  C4_4 
REMARK    3  A    between atoms: C4_4  and  C6_6 
REMARK    4  A    between atoms: C4_4  and  C7_9 
REMARK    5  A    between atoms: C6_6  and  O1_7 
REMARK    6  A    between atoms: C7_9  and  C8_10 
REMARK    7  A    between atoms: C8_10  and  C9_11 
REMARK    8  A    between atoms: C9_11  and  C10_13 
REMARK    9  A    between atoms: C10_13  and  C11_14 
REMARK   10  A    between atoms: C11_14  and  C12_15 
REMARK   11  A    between atoms: C12_15  and  C13_16 
REMARK   12  A    between atoms: C13_16  and  C14_17 
REMARK   13  A    between atoms: C17_20  and  O3_22 
REMARK   14  A    between atoms: C23_28  and  O4_29 
REMARK   15  A    between atoms: C27_34  and  O5_35 
ROOT
HETATM    1  C14 UNL     1      16.709   8.355  48.180  1.00  0.00    -0.005 C 
HETATM    2  C15 UNL     1      18.241   8.437  48.505  1.00  0.00    -0.003 C 
HETATM    3  C16 UNL     1      18.586   9.876  48.913  1.00  0.00     0.043 C 
HETATM    4  C17 UNL     1      19.991   9.865  49.433  1.00  0.00     0.054 C 
HETATM    5  C18 UNL     1      20.934   9.160  48.519  1.00  0.00     0.045 C 
HETATM    6  C19 UNL     1      19.996   9.154  50.773  1.00  0.00     0.038 C 
HETATM    7  C20 UNL     1      18.774   8.286  50.943  1.00  0.00     0.008 C 
HETATM    8  C21 UNL     1      18.434   7.541  49.658  1.00  0.00    -0.003 C 
HETATM    9  C22 UNL     1      17.068   6.920  49.874  1.00  0.00     0.024 C 
HETATM   10  C23 UNL     1      17.208   5.581  50.485  1.00  0.00     0.123 C 
HETATM   11  C24 UNL     1      17.702   4.641  49.384  1.00  0.00     0.037 C 
HETATM   12  C25 UNL     1      16.536   4.557  48.471  1.00  0.00    -0.001 C 
HETATM   13  C26 UNL     1      16.590   3.349  47.606  1.00  0.00     0.037 C 
HETATM   14  C27 UNL     1      15.692   3.341  46.432  1.00  0.00     0.118 C 
HETATM   15  C28 UNL     1      14.661   4.396  46.364  1.00  0.00     0.032 C 
HETATM   16  C29 UNL     1      14.749   5.505  47.349  1.00  0.00     0.012 C 
HETATM   17  C30 UNL     1      16.217   5.852  47.723  1.00  0.00    -0.036 C 
HETATM   18  C31 UNL     1      17.084   5.828  46.499  1.00  0.00     0.016 C 
HETATM   19  C32 UNL     1      16.288   7.023  48.573  1.00  0.00     0.005 C 
ENDROOT
BRANCH   1  20
HETATM   20  C13 UNL     1      16.475   9.138  47.012  1.00  0.00     0.005 C 
BRANCH  20  21
HETATM   21  C12 UNL     1      15.127   9.132  46.358  1.00  0.00     0.001 C 
BRANCH  21  22
HETATM   22  C11 UNL     1      15.115   9.838  45.008  1.00  0.00     0.007 C 
BRANCH  22  23
HETATM   23  C10 UNL     1      15.934   9.091  43.992  1.00  0.00     0.078 C 
BRANCH  23  24
HETATM   24  C9  UNL     1      15.002   8.145  43.262  1.00  0.00     0.127 C 
HETATM   25  O2  UNL     1      14.676   8.381  42.135  1.00  0.00    -0.298 OA
BRANCH  24  26
HETATM   26  C8  UNL     1      14.494   6.931  43.940  1.00  0.00     0.079 C 
BRANCH  26  27
HETATM   27  C7  UNL     1      12.992   7.004  44.035  1.00  0.00     0.019 C 
BRANCH  27  28
HETATM   28  C4  UNL     1      12.305   5.972  43.199  1.00  0.00    -0.019 C 
HETATM   29  C5  UNL     1      11.579   5.024  44.138  1.00  0.00     0.018 C 
BRANCH  28  30
HETATM   30  C3  UNL     1      13.263   5.142  42.383  1.00  0.00     0.037 C 
BRANCH  30  31
HETATM   31  C2  UNL     1      13.278   3.776  42.944  1.00  0.00    -0.036 C 
HETATM   32  C1  UNL     1      14.254   2.913  42.742  1.00  0.00     0.007 C 
ENDBRANCH  30  31
ENDBRANCH  28  30
BRANCH  28  33
HETATM   33  C6  UNL     1      11.260   6.612  42.321  1.00  0.00     0.173 C 
BRANCH  33  34
HETATM   34  O1  UNL     1      11.747   7.827  41.850  1.00  0.00    -0.400 OA
ATOM     35  H1  UNL     1      11.727   8.463  42.555  1.00  0.00     0.209 HD
ENDBRANCH  33  34
ENDBRANCH  28  33
ENDBRANCH  27  28
ENDBRANCH  26  27
ENDBRANCH  24  26
ENDBRANCH  23  24
ENDBRANCH  22  23
ENDBRANCH  21  22
ENDBRANCH  20  21
ENDBRANCH   1  20
BRANCH   4  36
HETATM   36  O3  UNL     1      20.392  11.195  49.566  1.00  0.00    -0.390 OA
ATOM     37  H3  UNL     1      21.060  11.355  48.908  1.00  0.00     0.210 HD
ENDBRANCH   4  36
BRANCH  10  38
HETATM   38  O4  UNL     1      16.061   5.072  51.028  1.00  0.00    -0.395 OA
ATOM     39  H4  UNL     1      15.997   5.148  51.973  1.00  0.00     0.210 HD
ENDBRANCH  10  38
BRANCH  14  40
HETATM   40  O5  UNL     1      15.042   2.090  46.382  1.00  0.00    -0.396 OA
ATOM     41  H5  UNL     1      15.436   1.578  45.686  1.00  0.00     0.210 HD
ENDBRANCH  14  40
TORSDOF 15
ENDMDL
MODEL 4
REMARK VINA RESULT: -7.912878122      1.210      2.241
REMARK  15 active torsions:
REMARK  status: ('A' for Active; 'I' for Inactive)
REMARK    1  A    between atoms: C2_2  and  C3_3 
REMARK    2  A    between atoms: C3_3  and  C4_4 
REMARK    3  A    between atoms: C4_4  and  C6_6 
REMARK    4  A    between atoms: C4_4  and  C7_9 
REMARK    5  A    between atoms: C6_6  and  O1_7 
REMARK    6  A    between atoms: C7_9  and  C8_10 
REMARK    7  A    between atoms: C8_10  and  C9_11 
REMARK    8  A    between atoms: C9_11  and  C10_13 
REMARK    9  A    between atoms: C10_13  and  C11_14 
REMARK   10  A    between atoms: C11_14  and  C12_15 
REMARK   11  A    between atoms: C12_15  and  C13_16 
REMARK   12  A    between atoms: C13_16  and  C14_17 
REMARK   13  A    between atoms: C17_20  and  O3_22 
REMARK   14  A    between atoms: C23_28  and  O4_29 
REMARK   15  A    between atoms: C27_34  and  O5_35 
ROOT
HETATM    1  C14 UNL     1      14.101   6.009  45.968  1.00  0.00    -0.005 C 
HETATM    2  C15 UNL     1      12.951   5.277  46.744  1.00  0.00    -0.003 C 
HETATM    3  C16 UNL     1      11.723   5.173  45.828  1.00  0.00     0.043 C 
HETATM    4  C17 UNL     1      10.736   4.276  46.510  1.00  0.00     0.054 C 
HETATM    5  C18 UNL     1      10.508   4.654  47.934  1.00  0.00     0.045 C 
HETATM    6  C19 UNL     1      11.275   2.857  46.469  1.00  0.00     0.038 C 
HETATM    7  C20 UNL     1      12.764   2.839  46.224  1.00  0.00     0.008 C 
HETATM    8  C21 UNL     1      13.474   3.928  47.017  1.00  0.00    -0.003 C 
HETATM    9  C22 UNL     1      14.898   3.974  46.499  1.00  0.00     0.024 C 
HETATM   10  C23 UNL     1      15.746   3.024  47.250  1.00  0.00     0.123 C 
HETATM   11  C24 UNL     1      15.996   3.646  48.625  1.00  0.00     0.037 C 
HETATM   12  C25 UNL     1      16.861   4.809  48.310  1.00  0.00    -0.001 C 
HETATM   13  C26 UNL     1      17.624   5.277  49.498  1.00  0.00     0.037 C 
HETATM   14  C27 UNL     1      18.233   6.620  49.402  1.00  0.00     0.118 C 
HETATM   15  C28 UNL     1      18.245   7.261  48.072  1.00  0.00     0.032 C 
HETATM   16  C29 UNL     1      17.453   6.616  46.992  1.00  0.00     0.012 C 
HETATM   17  C30 UNL     1      16.168   5.927  47.530  1.00  0.00    -0.036 C 
HETATM   18  C31 UNL     1      15.512   6.789  48.567  1.00  0.00     0.016 C 
HETATM   19  C32 UNL     1      15.341   5.428  46.450  1.00  0.00     0.005 C 
ENDROOT
BRANCH   1  20
HETATM   20  C13 UNL     1      13.685   7.355  45.751  1.00  0.00     0.005 C 
BRANCH  20  21
HETATM   21  C12 UNL     1      14.389   8.209  44.742  1.00  0.00     0.001 C 
BRANCH  21  22
HETATM   22  C11 UNL     1      13.650   8.298  43.413  1.00  0.00     0.007 C 
BRANCH  22  23
HETATM   23  C10 UNL     1      14.032   7.168  42.498  1.00  0.00     0.078 C 
BRANCH  23  24
HETATM   24  C9  UNL     1      12.908   6.153  42.535  1.00  0.00     0.127 C 
HETATM   25  O2  UNL     1      11.771   6.523  42.603  1.00  0.00    -0.298 OA
BRANCH  24  26
HETATM   26  C8  UNL     1      13.212   4.705  42.486  1.00  0.00     0.079 C 
BRANCH  26  27
HETATM   27  C7  UNL     1      12.435   4.070  41.362  1.00  0.00     0.019 C 
BRANCH  27  28
HETATM   28  C4  UNL     1      13.285   3.750  40.174  1.00  0.00    -0.019 C 
HETATM   29  C5  UNL     1      14.535   3.045  40.676  1.00  0.00     0.018 C 
BRANCH  28  30
HETATM   30  C3  UNL     1      13.738   4.979  39.427  1.00  0.00     0.037 C 
BRANCH  30  31
HETATM   31  C2  UNL     1      12.548   5.614  38.826  1.00  0.00    -0.036 C 
HETATM   32  C1  UNL     1      12.147   6.837  39.117  1.00  0.00     0.007 C 
ENDBRANCH  30  31
ENDBRANCH  28  30
BRANCH  28  33
HETATM   33  C6  UNL     1      12.574   2.790  39.256  1.00  0.00     0.173 C 
BRANCH  33  34
HETATM   34  O1  UNL     1      13.519   2.073  38.529  1.00  0.00    -0.400 OA
ATOM     35  H1  UNL     1      13.580   2.440  37.656  1.00  0.00     0.209 HD
ENDBRANCH  33  34
ENDBRANCH  28  33
ENDBRANCH  27  28
ENDBRANCH  26  27
ENDBRANCH  24  26
ENDBRANCH  23  24
ENDBRANCH  22  23
ENDBRANCH  21  22
ENDBRANCH  20  21
ENDBRANCH   1  20
BRANCH   4  36
HETATM   36  O3  UNL     1       9.533   4.379  45.812  1.00  0.00    -0.390 OA
ATOM     37  H3  UNL     1       9.707   4.127  44.912  1.00  0.00     0.210 HD
ENDBRANCH   4  36
BRANCH  10  38
HETATM   38  O4  UNL     1      16.946   2.733  46.664  1.00  0.00    -0.395 OA
ATOM     39  H4  UNL     1      17.678   3.256  46.970  1.00  0.00     0.210 HD
ENDBRANCH  10  38
BRANCH  14  40
HETATM   40  O5  UNL     1      19.564   6.535  49.860  1.00  0.00    -0.396 OA
ATOM     41  H5  UNL     1      19.661   5.723  50.344  1.00  0.00     0.210 HD
ENDBRANCH  14  40
TORSDOF 15
ENDMDL
MODEL 5
REMARK VINA RESULT: -7.690439247      2.157      3.851
REMARK  15 active torsions:
REMARK  status: ('A' for Active; 'I' for Inactive)
REMARK    1  A    between atoms: C2_2  and  C3_3 
REMARK    2  A    between atoms: C3_3  and  C4_4 
REMARK    3  A    between atoms: C4_4  and  C6_6 
REMARK    4  A    between atoms: C4_4  and  C7_9 
REMARK    5  A    between atoms: C6_6  and  O1_7 
REMARK    6  A    between atoms: C7_9  and  C8_10 
REMARK    7  A    between atoms: C8_10  and  C9_11 
REMARK    8  A    between atoms: C9_11  and  C10_13 
REMARK    9  A    between atoms: C10_13  and  C11_14 
REMARK   10  A    between atoms: C11_14  and  C12_15 
REMARK   11  A    between atoms: C12_15  and  C13_16 
REMARK   12  A    between atoms: C13_16  and  C14_17 
REMARK   13  A    between atoms: C17_20  and  O3_22 
REMARK   14  A    between atoms: C23_28  and  O4_29 
REMARK   15  A    between atoms: C27_34  and  O5_35 
ROOT
HETATM    1  C14 UNL     1      18.069   6.761  47.348  1.00  0.00    -0.005 C 
HETATM    2  C15 UNL     1      16.634   6.164  47.557  1.00  0.00    -0.003 C 
HETATM    3  C16 UNL     1      16.411   5.037  46.539  1.00  0.00     0.043 C 
HETATM    4  C17 UNL     1      15.137   4.345  46.915  1.00  0.00     0.054 C 
HETATM    5  C18 UNL     1      14.015   5.299  47.147  1.00  0.00     0.045 C 
HETATM    6  C19 UNL     1      15.378   3.564  48.193  1.00  0.00     0.038 C 
HETATM    7  C20 UNL     1      16.588   4.078  48.934  1.00  0.00     0.008 C 
HETATM    8  C21 UNL     1      16.650   5.600  48.917  1.00  0.00    -0.003 C 
HETATM    9  C22 UNL     1      18.016   5.978  49.456  1.00  0.00     0.024 C 
HETATM   10  C23 UNL     1      17.966   6.103  50.928  1.00  0.00     0.123 C 
HETATM   11  C24 UNL     1      17.241   7.414  51.236  1.00  0.00     0.037 C 
HETATM   12  C25 UNL     1      18.202   8.443  50.768  1.00  0.00    -0.001 C 
HETATM   13  C26 UNL     1      17.949   9.769  51.390  1.00  0.00     0.037 C 
HETATM   14  C27 UNL     1      18.597  10.932  50.748  1.00  0.00     0.118 C 
HETATM   15  C28 UNL     1      19.620  10.651  49.720  1.00  0.00     0.032 C 
HETATM   16  C29 UNL     1      19.756   9.246  49.254  1.00  0.00     0.012 C 
HETATM   17  C30 UNL     1      18.399   8.488  49.252  1.00  0.00    -0.036 C 
HETATM   18  C31 UNL     1      17.308   9.378  48.736  1.00  0.00     0.016 C 
HETATM   19  C32 UNL     1      18.527   7.170  48.663  1.00  0.00     0.005 C 
ENDROOT
BRANCH   1  20
HETATM   20  C13 UNL     1      18.087   7.402  46.075  1.00  0.00     0.005 C 
BRANCH  20  21
HETATM   21  C12 UNL     1      17.001   8.361  45.697  1.00  0.00     0.001 C 
BRANCH  21  22
HETATM   22  C11 UNL     1      16.929   8.624  44.199  1.00  0.00     0.007 C 
BRANCH  22  23
HETATM   23  C10 UNL     1      15.930   9.700  43.879  1.00  0.00     0.078 C 
BRANCH  23  24
HETATM   24  C9  UNL     1      14.639   9.017  43.474  1.00  0.00     0.127 C 
HETATM   25  O2  UNL     1      13.689   9.675  43.162  1.00  0.00    -0.298 OA
BRANCH  24  26
HETATM   26  C8  UNL     1      14.552   7.539  43.462  1.00  0.00     0.079 C 
BRANCH  26  27
HETATM   27  C7  UNL     1      13.930   7.087  42.166  1.00  0.00     0.019 C 
BRANCH  27  28
HETATM   28  C4  UNL     1      12.825   6.099  42.363  1.00  0.00    -0.019 C 
HETATM   29  C5  UNL     1      12.781   5.742  43.840  1.00  0.00     0.018 C 
BRANCH  28  30
HETATM   30  C3  UNL     1      13.042   4.815  41.602  1.00  0.00     0.037 C 
BRANCH  30  31
HETATM   31  C2  UNL     1      13.621   3.824  42.532  1.00  0.00    -0.036 C 
HETATM   32  C1  UNL     1      14.324   2.779  42.141  1.00  0.00     0.007 C 
ENDBRANCH  30  31
ENDBRANCH  28  30
BRANCH  28  33
HETATM   33  C6  UNL     1      11.495   6.715  42.017  1.00  0.00     0.173 C 
BRANCH  33  34
HETATM   34  O1  UNL     1      11.679   8.067  41.744  1.00  0.00    -0.400 OA
ATOM     35  H1  UNL     1      11.733   8.189  40.804  1.00  0.00     0.209 HD
ENDBRANCH  33  34
ENDBRANCH  28  33
ENDBRANCH  27  28
ENDBRANCH  26  27
ENDBRANCH  24  26
ENDBRANCH  23  24
ENDBRANCH  22  23
ENDBRANCH  21  22
ENDBRANCH  20  21
ENDBRANCH   1  20
BRANCH   4  36
HETATM   36  O3  UNL     1      14.802   3.495  45.860  1.00  0.00    -0.390 OA
ATOM     37  H3  UNL     1      14.100   3.912  45.374  1.00  0.00     0.210 HD
ENDBRANCH   4  36
BRANCH  10  38
HETATM   38  O4  UNL     1      19.185   6.107  51.548  1.00  0.00    -0.395 OA
ATOM     39  H4  UNL     1      19.376   5.331  52.060  1.00  0.00     0.210 HD
ENDBRANCH  10  38
BRANCH  14  40
HETATM   40  O5  UNL     1      19.193  11.718  51.755  1.00  0.00    -0.396 OA
ATOM     41  H5  UNL     1      19.894  12.225  51.362  1.00  0.00     0.210 HD
ENDBRANCH  14  40
TORSDOF 15
ENDMDL
