MODEL 1
REMARK VINA RESULT: -8.371013035      0.000      0.000
REMARK  12 active torsions:
REMARK  status: ('A' for Active; 'I' for Inactive)
REMARK       I    between atoms: C1_2  and  N1_3 
REMARK       I    between atoms: C1_2  and  N6_39 
REMARK    1  A    between atoms: N1_3  and  C2_5 
REMARK    2  A    between atoms: C2_5  and  C3_6 
REMARK    3  A    between atoms: C3_6  and  C4_7 
REMARK    4  A    between atoms: C4_7  and  N2_8 
REMARK    5  A    between atoms: N2_8  and  C5_9 
REMARK    6  A    between atoms: N2_8  and  C18_25 
REMARK    7  A    between atoms: C5_9  and  C6_10 
REMARK    8  A    between atoms: C6_10  and  C7_11 
REMARK    9  A    between atoms: C7_11  and  N3_12 
REMARK   10  A    between atoms: N3_12  and  C8_15 
REMARK   11  A    between atoms: C18_25  and  C19_26 
REMARK   12  A    between atoms: N6_39  and  C26_41 
ROOT
HETATM    1  N2  UNL     1      -8.203 -16.170   9.545  1.00  0.00    -0.347 N 
ENDROOT
BRANCH   1   2
HETATM    2  C4  UNL     1      -9.492 -15.635   9.628  1.00  0.00     0.070 C 
BRANCH   2   3
HETATM    3  C3  UNL     1      -9.667 -14.277   8.986  1.00  0.00     0.065 C 
BRANCH   3   4
HETATM    4  C2  UNL     1     -11.158 -14.067   8.836  1.00  0.00     0.129 C 
BRANCH   4   5
HETATM    5  N1  UNL     1     -11.638 -13.114   9.831  1.00  0.00    -0.343 N 
HETATM    6  C1  UNL     1     -12.653 -13.450  10.764  1.00  0.00     0.322 C 
HETATM    7  O1  UNL     1     -13.122 -14.621  10.696  1.00  0.00    -0.247 OA
HETATM    8  N6  UNL     1     -13.077 -12.480  11.700  1.00  0.00    -0.289 N 
ATOM      9  H6  UNL     1     -12.631 -11.563  11.672  1.00  0.00     0.172 HD
ATOM     10  H1  UNL     1     -11.233 -12.178   9.857  1.00  0.00     0.164 HD
BRANCH   8  11
HETATM   11  C26 UNL     1     -14.082 -12.699  12.677  1.00  0.00     0.150 A 
HETATM   12  C27 UNL     1     -13.994 -13.270  13.915  1.00  0.00     0.058 A 
HETATM   13  C28 UNL     1     -15.271 -13.234  14.453  1.00  0.00     0.029 A 
HETATM   14  C29 UNL     1     -16.070 -12.648  13.527  1.00  0.00     0.144 A 
HETATM   15  O2  UNL     1     -15.342 -12.351  12.507  1.00  0.00    -0.306 OA
ENDBRANCH   8  11
ENDBRANCH   4   5
ENDBRANCH   3   4
ENDBRANCH   2   3
ENDBRANCH   1   2
BRANCH   1  16
HETATM   16  C5  UNL     1      -7.616 -16.451   8.315  1.00  0.00     0.070 C 
BRANCH  16  17
HETATM   17  C6  UNL     1      -7.279 -17.901   8.126  1.00  0.00     0.072 C 
BRANCH  17  18
HETATM   18  C7  UNL     1      -5.907 -18.105   7.527  1.00  0.00     0.238 C 
BRANCH  18  19
HETATM   19  N3  UNL     1      -4.959 -17.124   7.879  1.00  0.00    -0.066 N 
ATOM     20  H32 UNL     1      -5.403 -16.319   8.321  1.00  0.00     0.278 HD
ATOM     21  H31 UNL     1      -4.377 -17.432   8.658  1.00  0.00     0.278 HD
BRANCH  19  22
HETATM   22  C8  UNL     1      -4.155 -16.726   6.746  1.00  0.00     0.127 C 
HETATM   23  C9  UNL     1      -3.270 -17.830   6.270  1.00  0.00     0.043 C 
HETATM   24  C10 UNL     1      -2.437 -17.370   5.090  1.00  0.00    -0.012 C 
HETATM   25  C11 UNL     1      -3.363 -16.887   3.997  1.00  0.00     0.009 C 
HETATM   26  C15 UNL     1      -1.486 -16.315   5.555  1.00  0.00     0.009 C 
HETATM   27  C12 UNL     1      -4.091 -15.683   4.523  1.00  0.00    -0.012 C 
HETATM   28  C13 UNL     1      -3.106 -14.616   4.919  1.00  0.00     0.009 C 
HETATM   29  C17 UNL     1      -4.989 -16.104   5.648  1.00  0.00     0.043 C 
HETATM   30  C14 UNL     1      -2.328 -15.166   6.101  1.00  0.00    -0.012 C 
HETATM   31  C16 UNL     1      -3.211 -15.607   7.222  1.00  0.00     0.043 C 
ENDBRANCH  19  22
ENDBRANCH  18  19
ENDBRANCH  17  18
ENDBRANCH  16  17
ENDBRANCH   1  16
BRANCH   1  32
HETATM   32  C18 UNL     1      -7.509 -16.265  10.750  1.00  0.00     0.143 C 
BRANCH  32  33
HETATM   33  C19 UNL     1      -6.335 -15.333  10.712  1.00  0.00     0.122 A 
HETATM   34  N4  UNL     1      -6.323 -13.993  10.596  1.00  0.00    -0.339 N 
HETATM   35  C20 UNL     1      -5.052 -13.544  10.610  1.00  0.00     0.062 A 
ATOM     36  H4  UNL     1      -7.152 -13.405  10.511  1.00  0.00     0.167 HD
HETATM   37  C21 UNL     1      -4.460 -12.301  10.529  1.00  0.00     0.057 A 
HETATM   38  C25 UNL     1      -4.227 -14.641  10.737  1.00  0.00     0.062 A 
HETATM   39  C22 UNL     1      -3.070 -12.141  10.574  1.00  0.00     0.058 A 
HETATM   40 CL1  UNL     1      -2.340 -10.553  10.471  1.00  0.00    -0.082 Cl
HETATM   41  C23 UNL     1      -2.254 -13.243  10.702  1.00  0.00     0.058 A 
HETATM   42 CL2  UNL     1      -0.519 -13.013  10.755  1.00  0.00    -0.082 Cl
HETATM   43  C24 UNL     1      -2.838 -14.485  10.783  1.00  0.00     0.057 A 
HETATM   44  N5  UNL     1      -5.038 -15.711  10.796  1.00  0.00    -0.339 N 
ATOM     45  H5  UNL     1      -4.720 -16.676  10.892  1.00  0.00     0.167 HD
ENDBRANCH  32  33
ENDBRANCH   1  32
TORSDOF 12
ENDMDL
MODEL 2
REMARK VINA RESULT: -8.302427481      0.972      1.501
REMARK  12 active torsions:
REMARK  status: ('A' for Active; 'I' for Inactive)
REMARK       I    between atoms: C1_2  and  N1_3 
REMARK       I    between atoms: C1_2  and  N6_39 
REMARK    1  A    between atoms: N1_3  and  C2_5 
REMARK    2  A    between atoms: C2_5  and  C3_6 
REMARK    3  A    between atoms: C3_6  and  C4_7 
REMARK    4  A    between atoms: C4_7  and  N2_8 
REMARK    5  A    between atoms: N2_8  and  C5_9 
REMARK    6  A    between atoms: N2_8  and  C18_25 
REMARK    7  A    between atoms: C5_9  and  C6_10 
REMARK    8  A    between atoms: C6_10  and  C7_11 
REMARK    9  A    between atoms: C7_11  and  N3_12 
REMARK   10  A    between atoms: N3_12  and  C8_15 
REMARK   11  A    between atoms: C18_25  and  C19_26 
REMARK   12  A    between atoms: N6_39  and  C26_41 
ROOT
HETATM    1  N2  UNL     1      -7.694 -16.574   9.666  1.00  0.00    -0.347 N 
ENDROOT
BRANCH   1   2
HETATM    2  C4  UNL     1      -8.748 -15.654   9.691  1.00  0.00     0.070 C 
BRANCH   2   3
HETATM    3  C3  UNL     1      -8.722 -14.616   8.591  1.00  0.00     0.065 C 
BRANCH   3   4
HETATM    4  C2  UNL     1     -10.098 -13.988   8.568  1.00  0.00     0.129 C 
BRANCH   4   5
HETATM    5  N1  UNL     1     -10.979 -14.662   9.516  1.00  0.00    -0.343 N 
HETATM    6  C1  UNL     1     -11.973 -13.960  10.246  1.00  0.00     0.322 C 
HETATM    7  O1  UNL     1     -12.063 -12.718  10.033  1.00  0.00    -0.247 OA
HETATM    8  N6  UNL     1     -12.792 -14.670  11.153  1.00  0.00    -0.289 N 
ATOM      9  H6  UNL     1     -12.638 -15.674  11.249  1.00  0.00     0.172 HD
ATOM     10  H1  UNL     1     -10.877 -15.667   9.659  1.00  0.00     0.164 HD
BRANCH   8  11
HETATM   11  C26 UNL     1     -13.814 -14.078  11.938  1.00  0.00     0.150 A 
HETATM   12  C27 UNL     1     -13.730 -13.391  13.116  1.00  0.00     0.058 A 
HETATM   13  C28 UNL     1     -15.025 -13.030  13.451  1.00  0.00     0.029 A 
HETATM   14  C29 UNL     1     -15.831 -13.509  12.470  1.00  0.00     0.144 A 
HETATM   15  O2  UNL     1     -15.089 -14.113  11.608  1.00  0.00    -0.306 OA
ENDBRANCH   8  11
ENDBRANCH   4   5
ENDBRANCH   3   4
ENDBRANCH   2   3
ENDBRANCH   1   2
BRANCH   1  16
HETATM   16  C5  UNL     1      -7.326 -17.218   8.489  1.00  0.00     0.070 C 
BRANCH  16  17
HETATM   17  C6  UNL     1      -6.580 -18.501   8.713  1.00  0.00     0.072 C 
BRANCH  17  18
HETATM   18  C7  UNL     1      -5.377 -18.637   7.810  1.00  0.00     0.238 C 
BRANCH  18  19
HETATM   19  N3  UNL     1      -4.307 -17.774   8.120  1.00  0.00    -0.066 N 
ATOM     20  H32 UNL     1      -4.587 -17.063   8.797  1.00  0.00     0.278 HD
ATOM     21  H31 UNL     1      -3.594 -18.249   8.674  1.00  0.00     0.278 HD
BRANCH  19  22
HETATM   22  C8  UNL     1      -3.741 -17.177   6.932  1.00  0.00     0.127 C 
HETATM   23  C9  UNL     1      -3.152 -18.198   6.016  1.00  0.00     0.043 C 
HETATM   24  C10 UNL     1      -2.561 -17.532   4.790  1.00  0.00    -0.012 C 
HETATM   25  C11 UNL     1      -3.639 -16.724   4.105  1.00  0.00     0.009 C 
HETATM   26  C15 UNL     1      -1.391 -16.702   5.211  1.00  0.00     0.009 C 
HETATM   27  C12 UNL     1      -4.051 -15.631   5.049  1.00  0.00    -0.012 C 
HETATM   28  C13 UNL     1      -2.863 -14.775   5.398  1.00  0.00     0.009 C 
HETATM   29  C17 UNL     1      -4.713 -16.240   6.249  1.00  0.00     0.043 C 
HETATM   30  C14 UNL     1      -1.917 -15.658   6.191  1.00  0.00    -0.012 C 
HETATM   31  C16 UNL     1      -2.567 -16.287   7.379  1.00  0.00     0.043 C 
ENDBRANCH  19  22
ENDBRANCH  18  19
ENDBRANCH  17  18
ENDBRANCH  16  17
ENDBRANCH   1  16
BRANCH   1  32
HETATM   32  C18 UNL     1      -6.964 -16.688  10.848  1.00  0.00     0.143 C 
BRANCH  32  33
HETATM   33  C19 UNL     1      -5.800 -15.744  10.793  1.00  0.00     0.122 A 
HETATM   34  N4  UNL     1      -4.486 -16.023  10.740  1.00  0.00    -0.339 N 
HETATM   35  C20 UNL     1      -3.775 -14.878  10.696  1.00  0.00     0.062 A 
ATOM     36  H4  UNL     1      -4.086 -16.962  10.734  1.00  0.00     0.167 HD
HETATM   37  C21 UNL     1      -2.432 -14.570  10.633  1.00  0.00     0.057 A 
HETATM   38  C25 UNL     1      -4.673 -13.833  10.725  1.00  0.00     0.062 A 
HETATM   39  C22 UNL     1      -1.980 -13.246  10.598  1.00  0.00     0.058 A 
HETATM   40 CL1  UNL     1      -0.270 -12.878  10.515  1.00  0.00    -0.082 Cl
HETATM   41  C23 UNL     1      -2.885 -12.208  10.626  1.00  0.00     0.058 A 
HETATM   42 CL2  UNL     1      -2.291 -10.562  10.580  1.00  0.00    -0.082 Cl
HETATM   43  C24 UNL     1      -4.225 -12.509  10.689  1.00  0.00     0.057 A 
HETATM   44  N5  UNL     1      -5.894 -14.393  10.784  1.00  0.00    -0.339 N 
ATOM     45  H5  UNL     1      -6.771 -13.872  10.817  1.00  0.00     0.167 HD
ENDBRANCH  32  33
ENDBRANCH   1  32
TORSDOF 12
ENDMDL
MODEL 3
REMARK VINA RESULT: -8.253477665      4.333      7.377
REMARK  12 active torsions:
REMARK  status: ('A' for Active; 'I' for Inactive)
REMARK       I    between atoms: C1_2  and  N1_3 
REMARK       I    between atoms: C1_2  and  N6_39 
REMARK    1  A    between atoms: N1_3  and  C2_5 
REMARK    2  A    between atoms: C2_5  and  C3_6 
REMARK    3  A    between atoms: C3_6  and  C4_7 
REMARK    4  A    between atoms: C4_7  and  N2_8 
REMARK    5  A    between atoms: N2_8  and  C5_9 
REMARK    6  A    between atoms: N2_8  and  C18_25 
REMARK    7  A    between atoms: C5_9  and  C6_10 
REMARK    8  A    between atoms: C6_10  and  C7_11 
REMARK    9  A    between atoms: C7_11  and  N3_12 
REMARK   10  A    between atoms: N3_12  and  C8_15 
REMARK   11  A    between atoms: C18_25  and  C19_26 
REMARK   12  A    between atoms: N6_39  and  C26_41 
ROOT
HETATM    1  N2  UNL     1      -8.043 -15.501   9.994  1.00  0.00    -0.347 N 
ENDROOT
BRANCH   1   2
HETATM    2  C4  UNL     1      -9.285 -15.500   9.350  1.00  0.00     0.070 C 
BRANCH   2   3
HETATM    3  C3  UNL     1      -9.266 -15.015   7.918  1.00  0.00     0.065 C 
BRANCH   3   4
HETATM    4  C2  UNL     1      -8.995 -16.233   7.062  1.00  0.00     0.129 C 
BRANCH   4   5
HETATM    5  N1  UNL     1      -8.183 -15.869   5.905  1.00  0.00    -0.343 N 
HETATM    6  C1  UNL     1      -6.781 -16.078   5.877  1.00  0.00     0.322 C 
HETATM    7  O1  UNL     1      -6.263 -16.601   6.903  1.00  0.00    -0.247 OA
HETATM    8  N6  UNL     1      -6.050 -15.700   4.727  1.00  0.00    -0.289 N 
ATOM      9  H6  UNL     1      -6.565 -15.288   3.950  1.00  0.00     0.172 HD
ATOM     10  H1  UNL     1      -8.638 -15.451   5.092  1.00  0.00     0.164 HD
BRANCH   8  11
HETATM   11  C26 UNL     1      -4.648 -15.858   4.584  1.00  0.00     0.150 A 
HETATM   12  C27 UNL     1      -3.671 -14.917   4.419  1.00  0.00     0.058 A 
HETATM   13  C28 UNL     1      -2.473 -15.609   4.332  1.00  0.00     0.029 A 
HETATM   14  C29 UNL     1      -2.773 -16.927   4.448  1.00  0.00     0.144 A 
HETATM   15  O2  UNL     1      -4.049 -17.032   4.593  1.00  0.00    -0.306 OA
ENDBRANCH   8  11
ENDBRANCH   4   5
ENDBRANCH   3   4
ENDBRANCH   2   3
ENDBRANCH   1   2
BRANCH   1  16
HETATM   16  C5  UNL     1      -7.092 -14.522   9.730  1.00  0.00     0.070 C 
BRANCH  16  17
HETATM   17  C6  UNL     1      -6.374 -14.033  10.954  1.00  0.00     0.072 C 
BRANCH  17  18
HETATM   18  C7  UNL     1      -5.183 -13.165  10.621  1.00  0.00     0.238 C 
BRANCH  18  19
HETATM   19  N3  UNL     1      -3.977 -13.564  11.229  1.00  0.00    -0.066 N 
ATOM     20  H32 UNL     1      -3.486 -12.768  11.639  1.00  0.00     0.278 HD
ATOM     21  H31 UNL     1      -4.148 -14.100  12.080  1.00  0.00     0.278 HD
BRANCH  19  22
HETATM   22  C8  UNL     1      -3.130 -14.289  10.311  1.00  0.00     0.127 C 
HETATM   23  C9  UNL     1      -2.562 -15.525  10.926  1.00  0.00     0.043 C 
HETATM   24  C10 UNL     1      -1.672 -16.250   9.936  1.00  0.00    -0.012 C 
HETATM   25  C11 UNL     1      -2.477 -16.564   8.695  1.00  0.00     0.009 C 
HETATM   26  C15 UNL     1      -0.475 -15.401   9.653  1.00  0.00     0.009 C 
HETATM   27  C12 UNL     1      -2.866 -15.255   8.068  1.00  0.00    -0.012 C 
HETATM   28  C13 UNL     1      -1.635 -14.456   7.735  1.00  0.00     0.009 C 
HETATM   29  C17 UNL     1      -3.810 -14.533   8.982  1.00  0.00     0.043 C 
HETATM   30  C14 UNL     1      -0.989 -14.092   9.059  1.00  0.00    -0.012 C 
HETATM   31  C16 UNL     1      -1.923 -13.388   9.989  1.00  0.00     0.043 C 
ENDBRANCH  19  22
ENDBRANCH  18  19
ENDBRANCH  17  18
ENDBRANCH  16  17
ENDBRANCH   1  16
BRANCH   1  32
HETATM   32  C18 UNL     1      -7.888 -16.450  11.004  1.00  0.00     0.143 C 
BRANCH  32  33
HETATM   33  C19 UNL     1      -6.749 -17.358  10.648  1.00  0.00     0.122 A 
HETATM   34  N4  UNL     1      -6.523 -18.021   9.501  1.00  0.00    -0.339 N 
HETATM   35  C20 UNL     1      -5.376 -18.724   9.595  1.00  0.00     0.062 A 
ATOM     36  H4  UNL     1      -7.129 -17.996   8.680  1.00  0.00     0.167 HD
HETATM   37  C21 UNL     1      -4.675 -19.557   8.749  1.00  0.00     0.057 A 
HETATM   38  C25 UNL     1      -4.856 -18.498  10.852  1.00  0.00     0.062 A 
HETATM   39  C22 UNL     1      -3.474 -20.161   9.138  1.00  0.00     0.058 A 
HETATM   40 CL1  UNL     1      -2.599 -21.215   8.047  1.00  0.00    -0.082 Cl
HETATM   41  C23 UNL     1      -2.962 -19.930  10.396  1.00  0.00     0.058 A 
HETATM   42 CL2  UNL     1      -1.457 -20.699  10.854  1.00  0.00    -0.082 Cl
HETATM   43  C24 UNL     1      -3.656 -19.100  11.244  1.00  0.00     0.057 A 
HETATM   44  N5  UNL     1      -5.714 -17.665  11.465  1.00  0.00    -0.339 N 
ATOM     45  H5  UNL     1      -5.601 -17.312  12.416  1.00  0.00     0.167 HD
ENDBRANCH  32  33
ENDBRANCH   1  32
TORSDOF 12
ENDMDL
MODEL 4
REMARK VINA RESULT: -8.135123179      5.106      7.676
REMARK  12 active torsions:
REMARK  status: ('A' for Active; 'I' for Inactive)
REMARK       I    between atoms: C1_2  and  N1_3 
REMARK       I    between atoms: C1_2  and  N6_39 
REMARK    1  A    between atoms: N1_3  and  C2_5 
REMARK    2  A    between atoms: C2_5  and  C3_6 
REMARK    3  A    between atoms: C3_6  and  C4_7 
REMARK    4  A    between atoms: C4_7  and  N2_8 
REMARK    5  A    between atoms: N2_8  and  C5_9 
REMARK    6  A    between atoms: N2_8  and  C18_25 
REMARK    7  A    between atoms: C5_9  and  C6_10 
REMARK    8  A    between atoms: C6_10  and  C7_11 
REMARK    9  A    between atoms: C7_11  and  N3_12 
REMARK   10  A    between atoms: N3_12  and  C8_15 
REMARK   11  A    between atoms: C18_25  and  C19_26 
REMARK   12  A    between atoms: N6_39  and  C26_41 
ROOT
HETATM    1  N2  UNL     1      -7.005 -18.074   9.561  1.00  0.00    -0.347 N 
ENDROOT
BRANCH   1   2
HETATM    2  C4  UNL     1      -7.008 -17.187  10.642  1.00  0.00     0.070 C 
BRANCH   2   3
HETATM    3  C3  UNL     1      -7.030 -15.721  10.271  1.00  0.00     0.065 C 
BRANCH   3   4
HETATM    4  C2  UNL     1      -6.392 -14.981  11.426  1.00  0.00     0.129 C 
BRANCH   4   5
HETATM    5  N1  UNL     1      -5.548 -13.899  10.930  1.00  0.00    -0.343 N 
HETATM    6  C1  UNL     1      -4.132 -13.987  10.941  1.00  0.00     0.322 C 
HETATM    7  O1  UNL     1      -3.632 -15.053  11.398  1.00  0.00    -0.247 OA
HETATM    8  N6  UNL     1      -3.371 -12.902  10.449  1.00  0.00    -0.289 N 
ATOM      9  H6  UNL     1      -3.874 -12.087  10.100  1.00  0.00     0.172 HD
ATOM     10  H1  UNL     1      -5.989 -13.054  10.566  1.00  0.00     0.164 HD
BRANCH   8  11
HETATM   11  C26 UNL     1      -1.954 -12.874  10.411  1.00  0.00     0.150 A 
HETATM   12  C27 UNL     1      -1.071 -12.115  11.127  1.00  0.00     0.058 A 
HETATM   13  C28 UNL     1       0.195 -12.483  10.701  1.00  0.00     0.029 A 
HETATM   14  C29 UNL     1       0.027 -13.441   9.754  1.00  0.00     0.144 A 
HETATM   15  O2  UNL     1      -1.237 -13.641   9.614  1.00  0.00    -0.306 OA
ENDBRANCH   8  11
ENDBRANCH   4   5
ENDBRANCH   3   4
ENDBRANCH   2   3
ENDBRANCH   1   2
BRANCH   1  16
HETATM   16  C5  UNL     1      -5.873 -18.816   9.238  1.00  0.00     0.070 C 
BRANCH  16  17
HETATM   17  C6  UNL     1      -4.650 -18.414  10.009  1.00  0.00     0.072 C 
BRANCH  17  18
HETATM   18  C7  UNL     1      -3.565 -17.848   9.123  1.00  0.00     0.238 C 
BRANCH  18  19
HETATM   19  N3  UNL     1      -3.855 -16.584   8.571  1.00  0.00    -0.066 N 
ATOM     20  H32 UNL     1      -4.833 -16.330   8.716  1.00  0.00     0.278 HD
ATOM     21  H31 UNL     1      -3.415 -15.835   9.105  1.00  0.00     0.278 HD
BRANCH  19  22
HETATM   22  C8  UNL     1      -3.495 -16.517   7.173  1.00  0.00     0.127 C 
HETATM   23  C9  UNL     1      -2.348 -15.593   6.932  1.00  0.00     0.043 C 
HETATM   24  C10 UNL     1      -2.009 -15.542   5.456  1.00  0.00    -0.012 C 
HETATM   25  C11 UNL     1      -1.707 -16.943   4.975  1.00  0.00     0.009 C 
HETATM   26  C15 UNL     1      -3.147 -14.908   4.723  1.00  0.00     0.009 C 
HETATM   27  C12 UNL     1      -2.968 -17.748   5.114  1.00  0.00    -0.012 C 
HETATM   28  C13 UNL     1      -4.074 -17.119   4.310  1.00  0.00     0.009 C 
HETATM   29  C17 UNL     1      -3.303 -17.891   6.569  1.00  0.00     0.043 C 
HETATM   30  C14 UNL     1      -4.374 -15.783   4.965  1.00  0.00    -0.012 C 
HETATM   31  C16 UNL     1      -4.691 -15.906   6.420  1.00  0.00     0.043 C 
ENDBRANCH  19  22
ENDBRANCH  18  19
ENDBRANCH  17  18
ENDBRANCH  16  17
ENDBRANCH   1  16
BRANCH   1  32
HETATM   32  C18 UNL     1      -8.235 -18.264   8.932  1.00  0.00     0.143 C 
BRANCH  32  33
HETATM   33  C19 UNL     1      -8.124 -17.825   7.503  1.00  0.00     0.122 A 
HETATM   34  N4  UNL     1      -8.287 -16.597   6.981  1.00  0.00    -0.339 N 
HETATM   35  C20 UNL     1      -8.092 -16.636   5.647  1.00  0.00     0.062 A 
ATOM     36  H4  UNL     1      -8.524 -15.760   7.514  1.00  0.00     0.167 HD
HETATM   37  C21 UNL     1      -8.126 -15.703   4.632  1.00  0.00     0.057 A 
HETATM   38  C25 UNL     1      -7.795 -17.939   5.311  1.00  0.00     0.062 A 
HETATM   39  C22 UNL     1      -7.870 -16.051   3.301  1.00  0.00     0.058 A 
HETATM   40 CL1  UNL     1      -7.917 -14.848   2.029  1.00  0.00    -0.082 Cl
HETATM   41  C23 UNL     1      -7.574 -17.355   2.975  1.00  0.00     0.058 A 
HETATM   42 CL2  UNL     1      -7.258 -17.762   1.302  1.00  0.00    -0.082 Cl
HETATM   43  C24 UNL     1      -7.538 -18.291   3.983  1.00  0.00     0.057 A 
HETATM   44  N5  UNL     1      -7.823 -18.636   6.461  1.00  0.00    -0.339 N 
ATOM     45  H5  UNL     1      -7.642 -19.637   6.538  1.00  0.00     0.167 HD
ENDBRANCH  32  33
ENDBRANCH   1  32
TORSDOF 12
ENDMDL
MODEL 5
REMARK VINA RESULT: -8.082393500      4.078      7.706
REMARK  12 active torsions:
REMARK  status: ('A' for Active; 'I' for Inactive)
REMARK       I    between atoms: C1_2  and  N1_3 
REMARK       I    between atoms: C1_2  and  N6_39 
REMARK    1  A    between atoms: N1_3  and  C2_5 
REMARK    2  A    between atoms: C2_5  and  C3_6 
REMARK    3  A    between atoms: C3_6  and  C4_7 
REMARK    4  A    between atoms: C4_7  and  N2_8 
REMARK    5  A    between atoms: N2_8  and  C5_9 
REMARK    6  A    between atoms: N2_8  and  C18_25 
REMARK    7  A    between atoms: C5_9  and  C6_10 
REMARK    8  A    between atoms: C6_10  and  C7_11 
REMARK    9  A    between atoms: C7_11  and  N3_12 
REMARK   10  A    between atoms: N3_12  and  C8_15 
REMARK   11  A    between atoms: C18_25  and  C19_26 
REMARK   12  A    between atoms: N6_39  and  C26_41 
ROOT
HETATM    1  N2  UNL     1      -8.674 -15.622   8.089  1.00  0.00    -0.347 N 
ENDROOT
BRANCH   1   2
HETATM    2  C4  UNL     1      -8.004 -15.207   9.244  1.00  0.00     0.070 C 
BRANCH   2   3
HETATM    3  C3  UNL     1      -7.818 -16.274  10.299  1.00  0.00     0.065 C 
BRANCH   3   4
HETATM    4  C2  UNL     1      -6.345 -16.278  10.644  1.00  0.00     0.129 C 
BRANCH   4   5
HETATM    5  N1  UNL     1      -5.762 -14.964  10.394  1.00  0.00    -0.343 N 
HETATM    6  C1  UNL     1      -4.397 -14.685  10.663  1.00  0.00     0.322 C 
HETATM    7  O1  UNL     1      -3.704 -15.633  11.128  1.00  0.00    -0.247 OA
HETATM    8  N6  UNL     1      -3.895 -13.390  10.402  1.00  0.00    -0.289 N 
ATOM      9  H6  UNL     1      -4.539 -12.696  10.023  1.00  0.00     0.172 HD
ATOM     10  H1  UNL     1      -6.354 -14.224  10.015  1.00  0.00     0.164 HD
BRANCH   8  11
HETATM   11  C26 UNL     1      -2.552 -12.994  10.632  1.00  0.00     0.150 A 
HETATM   12  C27 UNL     1      -1.430 -13.217   9.885  1.00  0.00     0.058 A 
HETATM   13  C28 UNL     1      -0.383 -12.613  10.563  1.00  0.00     0.029 A 
HETATM   14  C29 UNL     1      -0.911 -12.054  11.681  1.00  0.00     0.144 A 
HETATM   15  O2  UNL     1      -2.176 -12.297  11.685  1.00  0.00    -0.306 OA
ENDBRANCH   8  11
ENDBRANCH   4   5
ENDBRANCH   3   4
ENDBRANCH   2   3
ENDBRANCH   1   2
BRANCH   1  16
HETATM   16  C5  UNL     1      -8.549 -16.922   7.610  1.00  0.00     0.070 C 
BRANCH  16  17
HETATM   17  C6  UNL     1      -8.548 -17.014   6.112  1.00  0.00     0.072 C 
BRANCH  17  18
HETATM   18  C7  UNL     1      -7.200 -17.408   5.554  1.00  0.00     0.238 C 
BRANCH  18  19
HETATM   19  N3  UNL     1      -6.450 -16.342   5.020  1.00  0.00    -0.066 N 
ATOM     20  H32 UNL     1      -6.542 -16.294   4.004  1.00  0.00     0.278 HD
ATOM     21  H31 UNL     1      -6.862 -15.440   5.260  1.00  0.00     0.278 HD
BRANCH  19  22
HETATM   22  C8  UNL     1      -5.063 -16.411   5.420  1.00  0.00     0.127 C 
HETATM   23  C9  UNL     1      -4.565 -17.817   5.478  1.00  0.00     0.043 C 
HETATM   24  C10 UNL     1      -3.112 -17.846   5.911  1.00  0.00    -0.012 C 
HETATM   25  C11 UNL     1      -2.300 -17.005   4.953  1.00  0.00     0.009 C 
HETATM   26  C15 UNL     1      -3.022 -17.370   7.325  1.00  0.00     0.009 C 
HETATM   27  C12 UNL     1      -2.774 -15.586   5.086  1.00  0.00    -0.012 C 
HETATM   28  C13 UNL     1      -2.606 -15.117   6.507  1.00  0.00     0.009 C 
HETATM   29  C17 UNL     1      -4.188 -15.492   4.596  1.00  0.00     0.043 C 
HETATM   30  C14 UNL     1      -3.562 -15.943   7.347  1.00  0.00    -0.012 C 
HETATM   31  C16 UNL     1      -4.973 -15.874   6.860  1.00  0.00     0.043 C 
ENDBRANCH  19  22
ENDBRANCH  18  19
ENDBRANCH  17  18
ENDBRANCH  16  17
ENDBRANCH   1  16
BRANCH   1  32
HETATM   32  C18 UNL     1      -9.570 -14.702   7.546  1.00  0.00     0.143 C 
BRANCH  32  33
HETATM   33  C19 UNL     1     -10.517 -14.254   8.619  1.00  0.00     0.122 A 
HETATM   34  N4  UNL     1     -11.307 -14.995   9.414  1.00  0.00    -0.339 N 
HETATM   35  C20 UNL     1     -11.997 -14.194  10.250  1.00  0.00     0.062 A 
ATOM     36  H4  UNL     1     -11.374 -16.013   9.389  1.00  0.00     0.167 HD
HETATM   37  C21 UNL     1     -12.924 -14.401  11.250  1.00  0.00     0.057 A 
HETATM   38  C25 UNL     1     -11.632 -12.894   9.973  1.00  0.00     0.062 A 
HETATM   39  C22 UNL     1     -13.483 -13.339  11.969  1.00  0.00     0.058 A 
HETATM   40 CL1  UNL     1     -14.657 -13.625  13.237  1.00  0.00    -0.082 Cl
HETATM   41  C23 UNL     1     -13.112 -12.043  11.685  1.00  0.00     0.058 A 
HETATM   42 CL2  UNL     1     -13.828 -10.734  12.601  1.00  0.00    -0.082 Cl
HETATM   43  C24 UNL     1     -12.188 -11.830  10.689  1.00  0.00     0.057 A 
HETATM   44  N5  UNL     1     -10.731 -12.965   8.977  1.00  0.00    -0.339 N 
ATOM     45  H5  UNL     1     -10.273 -12.160   8.551  1.00  0.00     0.167 HD
ENDBRANCH  32  33
ENDBRANCH   1  32
TORSDOF 12
ENDMDL
