MODEL 1
REMARK VINA RESULT: -7.369466843      0.000      0.000
REMARK  13 active torsions:
REMARK  status: ('A' for Active; 'I' for Inactive)
REMARK    1  A    between atoms: C2_2  and  C4_4 
REMARK    2  A    between atoms: C4_4  and  C5_6 
REMARK    3  A    between atoms: C8_11  and  C9_12 
REMARK    4  A    between atoms: C9_12  and  O2_13 
REMARK    5  A    between atoms: C9_12  and  C10_15 
REMARK    6  A    between atoms: C10_15  and  C11_16 
REMARK    7  A    between atoms: C14_21  and  C15_22 
REMARK    8  A    between atoms: C14_21  and  C27_34 
REMARK    9  A    between atoms: C16_23  and  C17_24 
REMARK   10  A    between atoms: C17_24  and  C18_25 
REMARK   11  A    between atoms: C18_25  and  C19_26 
REMARK   12  A    between atoms: C19_26  and  C20_27 
REMARK   13  A    between atoms: C30_41  and  O3_42 
ROOT
HETATM    1  C5  UNL     1      -7.863 -18.921   8.689  1.00  0.00    -0.016 C 
HETATM    2  C6  UNL     1      -6.819 -18.109   9.267  1.00  0.00     0.062 C 
HETATM    3  C7  UNL     1      -5.621 -18.816   8.558  1.00  0.00     0.116 C 
HETATM    4  N1  UNL     1      -4.366 -18.209   8.830  1.00  0.00    -0.407 N 
ATOM      5  H1  UNL     1      -3.589 -18.735   9.229  1.00  0.00     0.154 HD
HETATM    6  C8  UNL     1      -4.255 -16.845   8.519  1.00  0.00     0.107 C 
HETATM    7  C13 UNL     1      -5.556 -16.109   8.410  1.00  0.00     0.048 C 
HETATM    8  C14 UNL     1      -6.647 -16.650   9.324  1.00  0.00     0.032 C 
HETATM    9  C30 UNL     1      -6.027 -19.037   7.162  1.00  0.00     0.153 C 
HETATM   10  C31 UNL     1      -7.510 -19.316   7.277  1.00  0.00     0.008 C 
HETATM   11  C32 UNL     1      -7.644 -20.844   7.043  1.00  0.00     0.022 C 
HETATM   12  C33 UNL     1      -8.271 -18.739   6.158  1.00  0.00     0.022 C 
ENDROOT
BRANCH   8  13
HETATM   13  C15 UNL     1      -6.295 -16.302  10.777  1.00  0.00    -0.014 C 
HETATM   14  C16 UNL     1      -5.641 -15.100  11.179  1.00  0.00    -0.029 C 
BRANCH  14  15
HETATM   15  C17 UNL     1      -6.184 -13.727  10.967  1.00  0.00     0.027 C 
BRANCH  15  16
HETATM   16  C18 UNL     1      -5.240 -13.130   9.887  1.00  0.00     0.004 C 
BRANCH  16  17
HETATM   17  C19 UNL     1      -4.181 -12.279  10.469  1.00  0.00     0.005 C 
BRANCH  17  18
HETATM   18  C20 UNL     1      -3.003 -13.004  11.066  1.00  0.00    -0.011 C 
HETATM   19  C21 UNL     1      -1.934 -11.960  11.331  1.00  0.00     0.005 C 
HETATM   20  C22 UNL     1      -0.543 -12.440  11.104  1.00  0.00     0.000 C 
HETATM   21  C23 UNL     1      -0.314 -13.027   9.743  1.00  0.00     0.000 C 
HETATM   22  C24 UNL     1      -1.552 -13.630   9.147  1.00  0.00     0.004 C 
HETATM   23  C25 UNL     1      -2.487 -14.142  10.241  1.00  0.00    -0.015 C 
HETATM   24  C26 UNL     1      -1.798 -15.213  11.074  1.00  0.00     0.010 C 
ENDBRANCH  17  18
ENDBRANCH  16  17
ENDBRANCH  15  16
ENDBRANCH  14  15
ENDBRANCH   8  13
BRANCH   8  25
HETATM   25  C27 UNL     1      -7.858 -15.843   8.984  1.00  0.00     0.039 A 
HETATM   26  C28 UNL     1      -8.170 -15.185   7.811  1.00  0.00     0.115 A 
HETATM   27  N2  UNL     1      -9.361 -14.576   7.880  1.00  0.00    -0.360 N 
HETATM   28  C29 UNL     1      -9.847 -14.824   9.097  1.00  0.00     0.180 A 
ATOM     29  H2  UNL     1      -9.810 -14.028   7.146  1.00  0.00     0.166 HD
HETATM   30  N3  UNL     1      -8.954 -15.572   9.738  1.00  0.00    -0.354 N 
ATOM     31  H3  UNL     1      -9.080 -15.905  10.693  1.00  0.00     0.166 HD
ENDBRANCH   8  25
BRANCH   1  32
HETATM   32  C4  UNL     1      -9.262 -18.852   9.018  1.00  0.00     0.156 C 
HETATM   33  O1  UNL     1     -10.116 -18.185   8.404  1.00  0.00    -0.293 OA
BRANCH  32  34
HETATM   34  C2  UNL     1      -9.827 -19.624  10.180  1.00  0.00     0.052 C 
HETATM   35  C1  UNL     1      -9.173 -20.954  10.379  1.00  0.00     0.018 C 
HETATM   36  C3  UNL     1      -9.629 -18.832  11.470  1.00  0.00     0.018 C 
ENDBRANCH  32  34
ENDBRANCH   1  32
BRANCH   6  37
HETATM   37  C9  UNL     1      -3.407 -16.594   7.322  1.00  0.00     0.146 C 
BRANCH  37  38
HETATM   38  O2  UNL     1      -2.743 -17.845   6.974  1.00  0.00    -0.393 OA
ATOM     39  H2  UNL     1      -3.057 -18.113   6.119  1.00  0.00     0.210 HD
ENDBRANCH  37  38
BRANCH  37  40
HETATM   40  C10 UNL     1      -4.031 -16.215   6.040  1.00  0.00     0.112 C 
BRANCH  40  41
HETATM   41  C11 UNL     1      -3.332 -15.361   5.060  1.00  0.00     0.242 C 
HETATM   42  C12 UNL     1      -2.614 -16.118   3.963  1.00  0.00     0.090 C 
HETATM   43  F1  UNL     1      -2.613 -14.377   5.644  1.00  0.00    -0.207 F 
HETATM   44  F2  UNL     1      -4.398 -14.691   4.338  1.00  0.00    -0.207 F 
ENDBRANCH  40  41
ENDBRANCH  37  40
ENDBRANCH   6  37
BRANCH   9  45
HETATM   45  O3  UNL     1      -5.333 -20.188   6.712  1.00  0.00    -0.392 OA
ATOM     46  H3  UNL     1      -5.437 -20.218   5.768  1.00  0.00     0.210 HD
ENDBRANCH   9  45
TORSDOF 13
ENDMDL
MODEL 2
REMARK VINA RESULT: -7.311792128      0.510      1.090
REMARK  13 active torsions:
REMARK  status: ('A' for Active; 'I' for Inactive)
REMARK    1  A    between atoms: C2_2  and  C4_4 
REMARK    2  A    between atoms: C4_4  and  C5_6 
REMARK    3  A    between atoms: C8_11  and  C9_12 
REMARK    4  A    between atoms: C9_12  and  O2_13 
REMARK    5  A    between atoms: C9_12  and  C10_15 
REMARK    6  A    between atoms: C10_15  and  C11_16 
REMARK    7  A    between atoms: C14_21  and  C15_22 
REMARK    8  A    between atoms: C14_21  and  C27_34 
REMARK    9  A    between atoms: C16_23  and  C17_24 
REMARK   10  A    between atoms: C17_24  and  C18_25 
REMARK   11  A    between atoms: C18_25  and  C19_26 
REMARK   12  A    between atoms: C19_26  and  C20_27 
REMARK   13  A    between atoms: C30_41  and  O3_42 
ROOT
HETATM    1  C5  UNL     1      -7.876 -19.079   8.591  1.00  0.00    -0.016 C 
HETATM    2  C6  UNL     1      -6.748 -18.353   9.123  1.00  0.00     0.062 C 
HETATM    3  C7  UNL     1      -5.645 -19.113   8.321  1.00  0.00     0.116 C 
HETATM    4  N1  UNL     1      -4.339 -18.595   8.529  1.00  0.00    -0.407 N 
ATOM      5  H1  UNL     1      -3.574 -19.181   8.864  1.00  0.00     0.154 HD
HETATM    6  C8  UNL     1      -4.157 -17.232   8.248  1.00  0.00     0.107 C 
HETATM    7  C13 UNL     1      -5.412 -16.412   8.241  1.00  0.00     0.048 C 
HETATM    8  C14 UNL     1      -6.478 -16.910   9.208  1.00  0.00     0.032 C 
HETATM    9  C30 UNL     1      -6.149 -19.264   6.948  1.00  0.00     0.153 C 
HETATM   10  C31 UNL     1      -7.638 -19.452   7.149  1.00  0.00     0.008 C 
HETATM   11  C32 UNL     1      -7.886 -20.960   6.884  1.00  0.00     0.022 C 
HETATM   12  C33 UNL     1      -8.427 -18.793   6.096  1.00  0.00     0.022 C 
ENDROOT
BRANCH   8  13
HETATM   13  C15 UNL     1      -6.015 -16.630  10.644  1.00  0.00    -0.014 C 
HETATM   14  C16 UNL     1      -5.416 -15.408  11.071  1.00  0.00    -0.029 C 
BRANCH  14  15
HETATM   15  C17 UNL     1      -6.077 -14.072  11.008  1.00  0.00     0.027 C 
BRANCH  15  16
HETATM   16  C18 UNL     1      -5.211 -13.290   9.982  1.00  0.00     0.004 C 
BRANCH  16  17
HETATM   17  C19 UNL     1      -4.162 -12.476  10.632  1.00  0.00     0.005 C 
BRANCH  17  18
HETATM   18  C20 UNL     1      -2.760 -12.671  10.117  1.00  0.00    -0.011 C 
HETATM   19  C21 UNL     1      -2.844 -13.690   8.995  1.00  0.00     0.005 C 
HETATM   20  C22 UNL     1      -1.678 -14.614   8.923  1.00  0.00     0.000 C 
HETATM   21  C23 UNL     1      -1.390 -15.336  10.206  1.00  0.00     0.000 C 
HETATM   22  C24 UNL     1      -1.818 -14.567  11.421  1.00  0.00     0.004 C 
HETATM   23  C25 UNL     1      -1.760 -13.063  11.160  1.00  0.00    -0.015 C 
HETATM   24  C26 UNL     1      -0.341 -12.636  10.810  1.00  0.00     0.010 C 
ENDBRANCH  17  18
ENDBRANCH  16  17
ENDBRANCH  15  16
ENDBRANCH  14  15
ENDBRANCH   8  13
BRANCH   8  25
HETATM   25  C27 UNL     1      -7.652 -16.018   8.967  1.00  0.00     0.039 A 
HETATM   26  C28 UNL     1      -7.965 -15.266   7.852  1.00  0.00     0.115 A 
HETATM   27  N2  UNL     1      -9.117 -14.599   8.006  1.00  0.00    -0.360 N 
HETATM   28  C29 UNL     1      -9.575 -14.903   9.220  1.00  0.00     0.180 A 
ATOM     29  H2  UNL     1      -9.558 -13.979   7.326  1.00  0.00     0.166 HD
HETATM   30  N3  UNL     1      -8.705 -15.739   9.777  1.00  0.00    -0.354 N 
ATOM     31  H3  UNL     1      -8.817 -16.130  10.712  1.00  0.00     0.166 HD
ENDBRANCH   8  25
BRANCH   1  32
HETATM   32  C4  UNL     1      -9.245 -18.931   9.009  1.00  0.00     0.156 C 
HETATM   33  O1  UNL     1     -10.099 -18.220   8.447  1.00  0.00    -0.293 OA
BRANCH  32  34
HETATM   34  C2  UNL     1      -9.774 -19.665  10.212  1.00  0.00     0.052 C 
HETATM   35  C1  UNL     1      -9.171 -21.023  10.387  1.00  0.00     0.018 C 
HETATM   36  C3  UNL     1      -9.462 -18.872  11.479  1.00  0.00     0.018 C 
ENDBRANCH  32  34
ENDBRANCH   1  32
BRANCH   6  37
HETATM   37  C9  UNL     1      -3.370 -16.999   7.007  1.00  0.00     0.146 C 
BRANCH  37  38
HETATM   38  O2  UNL     1      -2.958 -18.298   6.488  1.00  0.00    -0.393 OA
ATOM     39  H2  UNL     1      -2.812 -18.206   5.554  1.00  0.00     0.210 HD
ENDBRANCH  37  38
BRANCH  37  40
HETATM   40  C10 UNL     1      -4.014 -16.391   5.826  1.00  0.00     0.112 C 
BRANCH  40  41
HETATM   41  C11 UNL     1      -3.313 -15.401   4.985  1.00  0.00     0.242 C 
HETATM   42  C12 UNL     1      -2.486 -15.996   3.866  1.00  0.00     0.090 C 
HETATM   43  F1  UNL     1      -2.693 -14.445   5.711  1.00  0.00    -0.207 F 
HETATM   44  F2  UNL     1      -4.374 -14.719   4.267  1.00  0.00    -0.207 F 
ENDBRANCH  40  41
ENDBRANCH  37  40
ENDBRANCH   6  37
BRANCH   9  45
HETATM   45  O3  UNL     1      -5.561 -20.442   6.424  1.00  0.00    -0.392 OA
ATOM     46  H3  UNL     1      -6.086 -20.701   5.675  1.00  0.00     0.210 HD
ENDBRANCH   9  45
TORSDOF 13
ENDMDL
MODEL 3
REMARK VINA RESULT: -7.305320797      3.189      6.153
REMARK  13 active torsions:
REMARK  status: ('A' for Active; 'I' for Inactive)
REMARK    1  A    between atoms: C2_2  and  C4_4 
REMARK    2  A    between atoms: C4_4  and  C5_6 
REMARK    3  A    between atoms: C8_11  and  C9_12 
REMARK    4  A    between atoms: C9_12  and  O2_13 
REMARK    5  A    between atoms: C9_12  and  C10_15 
REMARK    6  A    between atoms: C10_15  and  C11_16 
REMARK    7  A    between atoms: C14_21  and  C15_22 
REMARK    8  A    between atoms: C14_21  and  C27_34 
REMARK    9  A    between atoms: C16_23  and  C17_24 
REMARK   10  A    between atoms: C17_24  and  C18_25 
REMARK   11  A    between atoms: C18_25  and  C19_26 
REMARK   12  A    between atoms: C19_26  and  C20_27 
REMARK   13  A    between atoms: C30_41  and  O3_42 
ROOT
HETATM    1  C5  UNL     1      -5.881 -17.381   7.086  1.00  0.00    -0.016 C 
HETATM    2  C6  UNL     1      -5.048 -16.875   8.150  1.00  0.00     0.062 C 
HETATM    3  C7  UNL     1      -5.539 -17.864   9.254  1.00  0.00     0.116 C 
HETATM    4  N1  UNL     1      -4.849 -17.721  10.487  1.00  0.00    -0.407 N 
ATOM      5  H1  UNL     1      -5.340 -17.533  11.361  1.00  0.00     0.154 HD
HETATM    6  C8  UNL     1      -3.452 -17.853  10.437  1.00  0.00     0.107 C 
HETATM    7  C13 UNL     1      -2.841 -17.641   9.085  1.00  0.00     0.048 C 
HETATM    8  C14 UNL     1      -3.597 -16.644   8.217  1.00  0.00     0.032 C 
HETATM    9  C30 UNL     1      -5.623 -19.191   8.626  1.00  0.00     0.153 C 
HETATM   10  C31 UNL     1      -6.061 -18.872   7.212  1.00  0.00     0.008 C 
HETATM   11  C32 UNL     1      -7.553 -19.292   7.156  1.00  0.00     0.022 C 
HETATM   12  C33 UNL     1      -5.427 -19.759   6.223  1.00  0.00     0.022 C 
ENDROOT
BRANCH   8  13
HETATM   13  C15 UNL     1      -3.400 -15.235   8.793  1.00  0.00    -0.014 C 
HETATM   14  C16 UNL     1      -4.416 -14.493   9.466  1.00  0.00    -0.029 C 
BRANCH  14  15
HETATM   15  C17 UNL     1      -5.092 -14.928  10.723  1.00  0.00     0.027 C 
BRANCH  15  16
HETATM   16  C18 UNL     1      -6.525 -14.346  10.580  1.00  0.00     0.004 C 
BRANCH  16  17
HETATM   17  C19 UNL     1      -7.565 -15.398  10.579  1.00  0.00     0.005 C 
BRANCH  17  18
HETATM   18  C20 UNL     1      -8.270 -15.629   9.268  1.00  0.00    -0.011 C 
HETATM   19  C21 UNL     1      -8.215 -14.319   8.504  1.00  0.00     0.005 C 
HETATM   20  C22 UNL     1      -9.433 -14.032   7.697  1.00  0.00     0.000 C 
HETATM   21  C23 UNL     1     -10.711 -14.077   8.481  1.00  0.00     0.000 C 
HETATM   22  C24 UNL     1     -10.645 -15.004   9.659  1.00  0.00     0.004 C 
HETATM   23  C25 UNL     1      -9.668 -16.149   9.395  1.00  0.00    -0.015 C 
HETATM   24  C26 UNL     1     -10.111 -16.958   8.184  1.00  0.00     0.010 C 
ENDBRANCH  17  18
ENDBRANCH  16  17
ENDBRANCH  15  16
ENDBRANCH  14  15
ENDBRANCH   8  13
BRANCH   8  25
HETATM   25  C27 UNL     1      -2.879 -16.663   6.907  1.00  0.00     0.039 A 
HETATM   26  C28 UNL     1      -2.381 -15.610   6.166  1.00  0.00     0.115 A 
HETATM   27  N2  UNL     1      -1.784 -16.027   5.042  1.00  0.00    -0.360 N 
HETATM   28  C29 UNL     1      -1.880 -17.356   5.029  1.00  0.00     0.180 A 
ATOM     29  H2  UNL     1      -1.341 -15.441   4.334  1.00  0.00     0.166 HD
HETATM   30  N3  UNL     1      -2.526 -17.721   6.132  1.00  0.00    -0.354 N 
ATOM     31  H3  UNL     1      -2.734 -18.690   6.370  1.00  0.00     0.166 HD
ENDBRANCH   8  25
BRANCH   1  32
HETATM   32  C4  UNL     1      -5.993 -16.819   5.766  1.00  0.00     0.156 C 
HETATM   33  O1  UNL     1      -5.289 -17.129   4.787  1.00  0.00    -0.293 OA
BRANCH  32  34
HETATM   34  C2  UNL     1      -7.024 -15.768   5.453  1.00  0.00     0.052 C 
HETATM   35  C1  UNL     1      -6.634 -14.878   4.316  1.00  0.00     0.018 C 
HETATM   36  C3  UNL     1      -8.341 -16.436   5.064  1.00  0.00     0.018 C 
ENDBRANCH  32  34
ENDBRANCH   1  32
BRANCH   6  37
HETATM   37  C9  UNL     1      -2.971 -19.126  11.038  1.00  0.00     0.146 C 
BRANCH  37  38
HETATM   38  O2  UNL     1      -4.062 -19.689  11.826  1.00  0.00    -0.393 OA
ATOM     39  H2  UNL     1      -3.774 -19.736  12.730  1.00  0.00     0.210 HD
ENDBRANCH  37  38
BRANCH  37  40
HETATM   40  C10 UNL     1      -2.606 -20.262  10.170  1.00  0.00     0.112 C 
BRANCH  40  41
HETATM   41  C11 UNL     1      -1.534 -21.207  10.539  1.00  0.00     0.242 C 
HETATM   42  C12 UNL     1      -0.898 -21.926   9.368  1.00  0.00     0.090 C 
HETATM   43  F1  UNL     1      -1.868 -21.994  11.584  1.00  0.00    -0.207 F 
HETATM   44  F2  UNL     1      -0.455 -20.361  11.016  1.00  0.00    -0.207 F 
ENDBRANCH  40  41
ENDBRANCH  37  40
ENDBRANCH   6  37
BRANCH   9  45
HETATM   45  O3  UNL     1      -6.634 -19.906   9.315  1.00  0.00    -0.392 OA
ATOM     46  H3  UNL     1      -7.260 -20.194   8.661  1.00  0.00     0.210 HD
ENDBRANCH   9  45
TORSDOF 13
ENDMDL
MODEL 4
REMARK VINA RESULT: -7.252811604      1.762      2.232
REMARK  13 active torsions:
REMARK  status: ('A' for Active; 'I' for Inactive)
REMARK    1  A    between atoms: C2_2  and  C4_4 
REMARK    2  A    between atoms: C4_4  and  C5_6 
REMARK    3  A    between atoms: C8_11  and  C9_12 
REMARK    4  A    between atoms: C9_12  and  O2_13 
REMARK    5  A    between atoms: C9_12  and  C10_15 
REMARK    6  A    between atoms: C10_15  and  C11_16 
REMARK    7  A    between atoms: C14_21  and  C15_22 
REMARK    8  A    between atoms: C14_21  and  C27_34 
REMARK    9  A    between atoms: C16_23  and  C17_24 
REMARK   10  A    between atoms: C17_24  and  C18_25 
REMARK   11  A    between atoms: C18_25  and  C19_26 
REMARK   12  A    between atoms: C19_26  and  C20_27 
REMARK   13  A    between atoms: C30_41  and  O3_42 
ROOT
HETATM    1  C5  UNL     1      -8.073 -18.189   8.341  1.00  0.00    -0.016 C 
HETATM    2  C6  UNL     1      -7.498 -16.899   8.043  1.00  0.00     0.062 C 
HETATM    3  C7  UNL     1      -6.117 -17.425   7.539  1.00  0.00     0.116 C 
HETATM    4  N1  UNL     1      -5.265 -16.397   7.056  1.00  0.00    -0.407 N 
ATOM      5  H1  UNL     1      -4.331 -16.249   7.437  1.00  0.00     0.154 HD
HETATM    6  C8  UNL     1      -5.779 -15.596   6.023  1.00  0.00     0.107 C 
HETATM    7  C13 UNL     1      -7.272 -15.597   5.902  1.00  0.00     0.048 C 
HETATM    8  C14 UNL     1      -7.998 -15.781   7.229  1.00  0.00     0.032 C 
HETATM    9  C30 UNL     1      -6.394 -18.591   6.687  1.00  0.00     0.153 C 
HETATM   10  C31 UNL     1      -7.595 -19.226   7.357  1.00  0.00     0.008 C 
HETATM   11  C32 UNL     1      -7.033 -20.489   8.060  1.00  0.00     0.022 C 
HETATM   12  C33 UNL     1      -8.544 -19.782   6.379  1.00  0.00     0.022 C 
ENDROOT
BRANCH   8  13
HETATM   13  C15 UNL     1      -7.825 -14.509   8.070  1.00  0.00    -0.014 C 
HETATM   14  C16 UNL     1      -7.707 -14.496   9.492  1.00  0.00    -0.029 C 
BRANCH  14  15
HETATM   15  C17 UNL     1      -6.619 -15.169  10.259  1.00  0.00     0.027 C 
BRANCH  15  16
HETATM   16  C18 UNL     1      -5.977 -14.007  11.066  1.00  0.00     0.004 C 
BRANCH  16  17
HETATM   17  C19 UNL     1      -4.823 -13.402  10.367  1.00  0.00     0.005 C 
BRANCH  17  18
HETATM   18  C20 UNL     1      -3.468 -13.951  10.731  1.00  0.00    -0.011 C 
HETATM   19  C21 UNL     1      -2.483 -12.803  10.604  1.00  0.00     0.005 C 
HETATM   20  C22 UNL     1      -1.143 -13.204  10.095  1.00  0.00     0.000 C 
HETATM   21  C23 UNL     1      -1.181 -13.950   8.794  1.00  0.00     0.000 C 
HETATM   22  C24 UNL     1      -2.453 -14.719   8.595  1.00  0.00     0.004 C 
HETATM   23  C25 UNL     1      -3.045 -15.147   9.937  1.00  0.00    -0.015 C 
HETATM   24  C26 UNL     1      -2.069 -16.041  10.689  1.00  0.00     0.010 C 
ENDBRANCH  17  18
ENDBRANCH  16  17
ENDBRANCH  15  16
ENDBRANCH  14  15
ENDBRANCH   8  13
BRANCH   8  25
HETATM   25  C27 UNL     1      -9.444 -15.845   6.862  1.00  0.00     0.039 A 
HETATM   26  C28 UNL     1     -10.516 -15.165   7.405  1.00  0.00     0.115 A 
HETATM   27  N2  UNL     1     -11.668 -15.479   6.798  1.00  0.00    -0.360 N 
HETATM   28  C29 UNL     1     -11.371 -16.367   5.850  1.00  0.00     0.180 A 
ATOM     29  H2  UNL     1     -12.593 -15.109   7.018  1.00  0.00     0.166 HD
HETATM   30  N3  UNL     1     -10.059 -16.576   5.896  1.00  0.00    -0.354 N 
ATOM     31  H3  UNL     1      -9.567 -17.215   5.273  1.00  0.00     0.166 HD
ENDBRANCH   8  25
BRANCH   1  32
HETATM   32  C4  UNL     1      -9.352 -18.418   8.960  1.00  0.00     0.156 C 
HETATM   33  O1  UNL     1     -10.416 -18.649   8.355  1.00  0.00    -0.293 OA
BRANCH  32  34
HETATM   34  C2  UNL     1      -9.506 -18.400  10.457  1.00  0.00     0.052 C 
HETATM   35  C1  UNL     1      -8.270 -18.829  11.182  1.00  0.00     0.018 C 
HETATM   36  C3  UNL     1      -9.829 -16.984  10.926  1.00  0.00     0.018 C 
ENDBRANCH  32  34
ENDBRANCH   1  32
BRANCH   6  37
HETATM   37  C9  UNL     1      -5.144 -15.876   4.707  1.00  0.00     0.146 C 
BRANCH  37  38
HETATM   38  O2  UNL     1      -6.035 -15.379   3.666  1.00  0.00    -0.393 OA
ATOM     39  H2  UNL     1      -5.551 -14.748   3.145  1.00  0.00     0.210 HD
ENDBRANCH  37  38
BRANCH  37  40
HETATM   40  C10 UNL     1      -3.867 -15.227   4.350  1.00  0.00     0.112 C 
BRANCH  40  41
HETATM   41  C11 UNL     1      -2.573 -15.915   4.524  1.00  0.00     0.242 C 
HETATM   42  C12 UNL     1      -2.677 -17.411   4.732  1.00  0.00     0.090 C 
HETATM   43  F1  UNL     1      -1.752 -15.272   5.382  1.00  0.00    -0.207 F 
HETATM   44  F2  UNL     1      -1.933 -15.818   3.225  1.00  0.00    -0.207 F 
ENDBRANCH  40  41
ENDBRANCH  37  40
ENDBRANCH   6  37
BRANCH   9  45
HETATM   45  O3  UNL     1      -5.263 -19.440   6.775  1.00  0.00    -0.392 OA
ATOM     46  H3  UNL     1      -5.499 -20.256   6.350  1.00  0.00     0.210 HD
ENDBRANCH   9  45
TORSDOF 13
ENDMDL
MODEL 5
REMARK VINA RESULT: -7.190017478      3.825      6.173
REMARK  13 active torsions:
REMARK  status: ('A' for Active; 'I' for Inactive)
REMARK    1  A    between atoms: C2_2  and  C4_4 
REMARK    2  A    between atoms: C4_4  and  C5_6 
REMARK    3  A    between atoms: C8_11  and  C9_12 
REMARK    4  A    between atoms: C9_12  and  O2_13 
REMARK    5  A    between atoms: C9_12  and  C10_15 
REMARK    6  A    between atoms: C10_15  and  C11_16 
REMARK    7  A    between atoms: C14_21  and  C15_22 
REMARK    8  A    between atoms: C14_21  and  C27_34 
REMARK    9  A    between atoms: C16_23  and  C17_24 
REMARK   10  A    between atoms: C17_24  and  C18_25 
REMARK   11  A    between atoms: C18_25  and  C19_26 
REMARK   12  A    between atoms: C19_26  and  C20_27 
REMARK   13  A    between atoms: C30_41  and  O3_42 
ROOT
HETATM    1  C5  UNL     1      -5.289 -17.996   7.138  1.00  0.00    -0.016 C 
HETATM    2  C6  UNL     1      -4.123 -18.001   7.987  1.00  0.00     0.062 C 
HETATM    3  C7  UNL     1      -3.287 -16.973   7.160  1.00  0.00     0.116 C 
HETATM    4  N1  UNL     1      -2.044 -16.643   7.761  1.00  0.00    -0.407 N 
ATOM      5  H1  UNL     1      -1.159 -16.766   7.269  1.00  0.00     0.154 HD
HETATM    6  C8  UNL     1      -2.099 -16.138   9.070  1.00  0.00     0.107 C 
HETATM    7  C13 UNL     1      -3.355 -16.459   9.822  1.00  0.00     0.048 C 
HETATM    8  C14 UNL     1      -3.980 -17.794   9.436  1.00  0.00     0.032 C 
HETATM    9  C30 UNL     1      -4.208 -15.895   6.772  1.00  0.00     0.153 C 
HETATM   10  C31 UNL     1      -5.517 -16.625   6.553  1.00  0.00     0.008 C 
HETATM   11  C32 UNL     1      -5.694 -16.665   5.012  1.00  0.00     0.022 C 
HETATM   12  C33 UNL     1      -6.674 -15.834   7.001  1.00  0.00     0.022 C 
ENDROOT
BRANCH   8  13
HETATM   13  C15 UNL     1      -3.088 -18.929   9.959  1.00  0.00    -0.014 C 
HETATM   14  C16 UNL     1      -3.125 -20.269   9.471  1.00  0.00    -0.029 C 
BRANCH  14  15
HETATM   15  C17 UNL     1      -2.832 -20.667   8.064  1.00  0.00     0.027 C 
BRANCH  15  16
HETATM   16  C18 UNL     1      -2.568 -22.194   8.170  1.00  0.00     0.004 C 
BRANCH  16  17
HETATM   17  C19 UNL     1      -1.204 -22.564   7.734  1.00  0.00     0.005 C 
BRANCH  17  18
HETATM   18  C20 UNL     1      -0.280 -23.069   8.811  1.00  0.00    -0.011 C 
HETATM   19  C21 UNL     1      -1.154 -23.481   9.981  1.00  0.00     0.005 C 
HETATM   20  C22 UNL     1      -0.556 -23.204  11.316  1.00  0.00     0.000 C 
HETATM   21  C23 UNL     1      -0.132 -21.779  11.513  1.00  0.00     0.000 C 
HETATM   22  C24 UNL     1       0.246 -21.097  10.231  1.00  0.00     0.004 C 
HETATM   23  C25 UNL     1       0.790 -22.104   9.220  1.00  0.00    -0.015 C 
HETATM   24  C26 UNL     1       2.031 -22.793   9.768  1.00  0.00     0.010 C 
ENDBRANCH  17  18
ENDBRANCH  16  17
ENDBRANCH  15  16
ENDBRANCH  14  15
ENDBRANCH   8  13
BRANCH   8  25
HETATM   25  C27 UNL     1      -5.246 -17.860  10.226  1.00  0.00     0.039 A 
HETATM   26  C28 UNL     1      -6.010 -16.832  10.743  1.00  0.00     0.115 A 
HETATM   27  N2  UNL     1      -7.092 -17.288  11.388  1.00  0.00    -0.360 N 
HETATM   28  C29 UNL     1      -7.054 -18.618  11.304  1.00  0.00     0.180 A 
ATOM     29  H2  UNL     1      -7.806 -16.727  11.852  1.00  0.00     0.166 HD
HETATM   30  N3  UNL     1      -5.964 -18.944  10.618  1.00  0.00    -0.354 N 
ATOM     31  H3  UNL     1      -5.695 -19.905  10.408  1.00  0.00     0.166 HD
ENDBRANCH   8  25
BRANCH   1  32
HETATM   32  C4  UNL     1      -6.444 -18.841   7.289  1.00  0.00     0.156 C 
HETATM   33  O1  UNL     1      -7.464 -18.559   7.946  1.00  0.00    -0.293 OA
BRANCH  32  34
HETATM   34  C2  UNL     1      -6.512 -20.191   6.628  1.00  0.00     0.052 C 
HETATM   35  C1  UNL     1      -6.423 -21.327   7.596  1.00  0.00     0.018 C 
HETATM   36  C3  UNL     1      -7.840 -20.337   5.889  1.00  0.00     0.018 C 
ENDBRANCH  32  34
ENDBRANCH   1  32
BRANCH   6  37
HETATM   37  C9  UNL     1      -1.803 -14.682   9.138  1.00  0.00     0.146 C 
BRANCH  37  38
HETATM   38  O2  UNL     1      -1.299 -14.266   7.835  1.00  0.00    -0.393 OA
ATOM     39  H2  UNL     1      -1.251 -13.317   7.830  1.00  0.00     0.210 HD
ENDBRANCH  37  38
BRANCH  37  40
HETATM   40  C10 UNL     1      -2.895 -13.715   9.364  1.00  0.00     0.112 C 
BRANCH  40  41
HETATM   41  C11 UNL     1      -2.988 -12.928  10.609  1.00  0.00     0.242 C 
HETATM   42  C12 UNL     1      -1.654 -12.571  11.230  1.00  0.00     0.090 C 
HETATM   43  F1  UNL     1      -3.908 -13.417  11.468  1.00  0.00    -0.207 F 
HETATM   44  F2  UNL     1      -3.497 -11.637  10.185  1.00  0.00    -0.207 F 
ENDBRANCH  40  41
ENDBRANCH  37  40
ENDBRANCH   6  37
BRANCH   9  45
HETATM   45  O3  UNL     1      -3.722 -15.360   5.553  1.00  0.00    -0.392 OA
ATOM     46  H3  UNL     1      -4.345 -14.699   5.275  1.00  0.00     0.210 HD
ENDBRANCH   9  45
TORSDOF 13
ENDMDL
