MODEL 1
REMARK VINA RESULT: -8.263035027      0.000      0.000
REMARK  16 active torsions:
REMARK  status: ('A' for Active; 'I' for Inactive)
REMARK    1  A    between atoms: C2_2  and  C3_3 
REMARK    2  A    between atoms: C3_3  and  C4_4 
REMARK    3  A    between atoms: C4_4  and  O1_5 
REMARK    4  A    between atoms: O1_5  and  C5_6 
REMARK    5  A    between atoms: C5_6  and  C6_7 
REMARK    6  A    between atoms: C7_8  and  C8_9 
REMARK    7  A    between atoms: C8_9  and  C9_10 
REMARK    8  A    between atoms: C10_11  and  O2_12 
REMARK    9  A    between atoms: C12_15  and  O3_16 
REMARK   10  A    between atoms: C13_18  and  C14_19 
REMARK   11  A    between atoms: C15_20  and  C16_21 
REMARK   12  A    between atoms: C16_21  and  O4_23 
REMARK   13  A    between atoms: C16_21  and  C18_25 
REMARK   14  A    between atoms: C21_28  and  C22_29 
REMARK   15  A    between atoms: C23_30  and  C24_31 
REMARK   16  A    between atoms: C32_41  and  O5_42 
ROOT
HETATM    1  C16 UNL     1      -6.691 -16.366   6.303  1.00  0.00     0.102 C 
HETATM    2  C17 UNL     1      -6.210 -15.574   5.126  1.00  0.00     0.056 C 
ENDROOT
BRANCH   1   3
HETATM    3  C15 UNL     1      -5.542 -16.560   7.230  1.00  0.00     0.012 C 
HETATM    4  C14 UNL     1      -4.298 -16.263   6.885  1.00  0.00    -0.020 C 
BRANCH   4   5
HETATM    5  C13 UNL     1      -3.119 -16.425   7.737  1.00  0.00     0.043 C 
HETATM    6  C9  UNL     1      -3.362 -15.976   9.185  1.00  0.00     0.028 C 
HETATM    7  C10 UNL     1      -1.977 -16.155   9.736  1.00  0.00     0.125 C 
HETATM    8  C11 UNL     1      -1.062 -15.649   8.606  1.00  0.00     0.064 C 
HETATM    9  C12 UNL     1      -1.924 -15.618   7.356  1.00  0.00     0.128 C 
BRANCH   6  10
HETATM   10  C8  UNL     1      -3.772 -14.535   9.274  1.00  0.00     0.035 C 
BRANCH  10  11
HETATM   11  C7  UNL     1      -4.525 -14.291  10.505  1.00  0.00    -0.028 C 
HETATM   12  C6  UNL     1      -4.867 -13.123  10.942  1.00  0.00    -0.005 C 
BRANCH  12  13
HETATM   13  C5  UNL     1      -4.547 -11.863  10.256  1.00  0.00     0.194 C 
BRANCH  13  14
HETATM   14  O1  UNL     1      -3.739 -11.027  11.031  1.00  0.00    -0.387 OA
BRANCH  14  15
HETATM   15  C4  UNL     1      -2.409 -11.076  10.692  1.00  0.00     0.168 C 
BRANCH  15  16
HETATM   16  C3  UNL     1      -1.572 -11.747  11.733  1.00  0.00     0.026 C 
BRANCH  16  17
HETATM   17  C2  UNL     1      -0.930 -13.006  11.177  1.00  0.00    -0.002 C 
HETATM   18  C1  UNL     1       0.351 -12.588  10.459  1.00  0.00     0.005 C 
ENDBRANCH  16  17
ENDBRANCH  15  16
ENDBRANCH  14  15
ENDBRANCH  13  14
ENDBRANCH  12  13
ENDBRANCH  10  11
ENDBRANCH   6  10
BRANCH   7  19
HETATM   19  O2  UNL     1      -1.729 -17.526   9.944  1.00  0.00    -0.395 OA
ATOM     20  H2  UNL     1      -2.106 -18.027   9.230  1.00  0.00     0.210 HD
ENDBRANCH   7  19
BRANCH   9  21
HETATM   21  O3  UNL     1      -1.237 -16.161   6.264  1.00  0.00    -0.395 OA
ATOM     22  H3  UNL     1      -1.664 -15.931   5.447  1.00  0.00     0.210 HD
ENDBRANCH   9  21
ENDBRANCH   4   5
ENDBRANCH   1   3
BRANCH   1  23
HETATM   23  O4  UNL     1      -7.091 -17.627   5.815  1.00  0.00    -0.381 OA
ATOM     24  H4  UNL     1      -7.461 -17.512   4.947  1.00  0.00     0.211 HD
ENDBRANCH   1  23
BRANCH   1  25
HETATM   25  C18 UNL     1      -7.825 -15.775   7.009  1.00  0.00     0.013 A 
HETATM   26  C19 UNL     1      -7.650 -15.226   8.252  1.00  0.00     0.014 A 
HETATM   27  C20 UNL     1      -8.707 -14.648   8.967  1.00  0.00     0.013 A 
HETATM   28  C21 UNL     1      -9.971 -14.613   8.433  1.00  0.00    -0.028 A 
HETATM   29  C30 UNL     1     -10.169 -15.166   7.168  1.00  0.00    -0.018 A 
HETATM   30  C31 UNL     1     -11.541 -15.110   6.614  1.00  0.00     0.052 C 
HETATM   31  C32 UNL     1      -9.109 -15.739   6.468  1.00  0.00     0.082 A 
BRANCH  28  32
HETATM   32  C22 UNL     1     -11.131 -14.024   9.128  1.00  0.00     0.013 C 
HETATM   33  C23 UNL     1     -11.547 -14.420  10.284  1.00  0.00     0.012 C 
BRANCH  33  34
HETATM   34  C24 UNL     1     -12.695 -13.827  10.954  1.00  0.00    -0.035 A 
HETATM   35  C25 UNL     1     -13.812 -14.521  11.362  1.00  0.00     0.013 A 
HETATM   36  C26 UNL     1     -14.889 -13.911  12.000  1.00  0.00     0.026 A 
HETATM   37  C27 UNL     1     -14.876 -12.564  12.251  1.00  0.00     0.055 A 
HETATM   38 CL1  UNL     1     -16.223 -11.756  13.058  1.00  0.00    -0.083 Cl
HETATM   39  C28 UNL     1     -13.769 -11.855  11.851  1.00  0.00     0.056 A 
HETATM   40 CL2  UNL     1     -13.752 -10.110  12.177  1.00  0.00    -0.083 Cl
HETATM   41  C29 UNL     1     -12.709 -12.449  11.224  1.00  0.00     0.037 A 
ENDBRANCH  33  34
ENDBRANCH  28  32
BRANCH  31  42
HETATM   42  O5  UNL     1      -9.255 -16.289   5.237  1.00  0.00    -0.359 OA
ATOM     43  H5  UNL     1      -9.812 -15.816   4.630  1.00  0.00     0.217 HD
ENDBRANCH  31  42
ENDBRANCH   1  25
TORSDOF 16
ENDMDL
MODEL 2
REMARK VINA RESULT: -7.833079706      1.676      2.993
REMARK  16 active torsions:
REMARK  status: ('A' for Active; 'I' for Inactive)
REMARK    1  A    between atoms: C2_2  and  C3_3 
REMARK    2  A    between atoms: C3_3  and  C4_4 
REMARK    3  A    between atoms: C4_4  and  O1_5 
REMARK    4  A    between atoms: O1_5  and  C5_6 
REMARK    5  A    between atoms: C5_6  and  C6_7 
REMARK    6  A    between atoms: C7_8  and  C8_9 
REMARK    7  A    between atoms: C8_9  and  C9_10 
REMARK    8  A    between atoms: C10_11  and  O2_12 
REMARK    9  A    between atoms: C12_15  and  O3_16 
REMARK   10  A    between atoms: C13_18  and  C14_19 
REMARK   11  A    between atoms: C15_20  and  C16_21 
REMARK   12  A    between atoms: C16_21  and  O4_23 
REMARK   13  A    between atoms: C16_21  and  C18_25 
REMARK   14  A    between atoms: C21_28  and  C22_29 
REMARK   15  A    between atoms: C23_30  and  C24_31 
REMARK   16  A    between atoms: C32_41  and  O5_42 
ROOT
HETATM    1  C16 UNL     1      -6.719 -15.883   5.319  1.00  0.00     0.102 C 
HETATM    2  C17 UNL     1      -6.716 -15.238   3.967  1.00  0.00     0.056 C 
ENDROOT
BRANCH   1   3
HETATM    3  C15 UNL     1      -5.440 -15.537   5.998  1.00  0.00     0.012 C 
HETATM    4  C14 UNL     1      -4.684 -16.451   6.589  1.00  0.00    -0.020 C 
BRANCH   4   5
HETATM    5  C13 UNL     1      -3.418 -16.190   7.275  1.00  0.00     0.043 C 
HETATM    6  C9  UNL     1      -3.602 -15.841   8.759  1.00  0.00     0.028 C 
HETATM    7  C10 UNL     1      -2.179 -15.527   9.119  1.00  0.00     0.125 C 
HETATM    8  C11 UNL     1      -1.654 -14.745   7.901  1.00  0.00     0.064 C 
HETATM    9  C12 UNL     1      -2.634 -15.025   6.775  1.00  0.00     0.128 C 
BRANCH   6  10
HETATM   10  C8  UNL     1      -4.466 -14.629   8.955  1.00  0.00     0.035 C 
BRANCH  10  11
HETATM   11  C7  UNL     1      -4.188 -14.006  10.250  1.00  0.00    -0.028 C 
HETATM   12  C6  UNL     1      -4.998 -14.006  11.259  1.00  0.00    -0.005 C 
BRANCH  12  13
HETATM   13  C5  UNL     1      -6.324 -14.640  11.246  1.00  0.00     0.194 C 
BRANCH  13  14
HETATM   14  O1  UNL     1      -6.382 -15.766  12.072  1.00  0.00    -0.387 OA
BRANCH  14  15
HETATM   15  C4  UNL     1      -6.306 -16.955  11.389  1.00  0.00     0.168 C 
BRANCH  15  16
HETATM   16  C3  UNL     1      -7.314 -17.055  10.289  1.00  0.00     0.026 C 
BRANCH  16  17
HETATM   17  C2  UNL     1      -6.775 -17.890   9.141  1.00  0.00    -0.002 C 
HETATM   18  C1  UNL     1      -7.973 -18.405   8.347  1.00  0.00     0.005 C 
ENDBRANCH  16  17
ENDBRANCH  15  16
ENDBRANCH  14  15
ENDBRANCH  13  14
ENDBRANCH  12  13
ENDBRANCH  10  11
ENDBRANCH   6  10
BRANCH   7  19
HETATM   19  O2  UNL     1      -1.451 -16.727   9.239  1.00  0.00    -0.395 OA
ATOM     20  H2  UNL     1      -1.024 -16.753  10.087  1.00  0.00     0.210 HD
ENDBRANCH   7  19
BRANCH   9  21
HETATM   21  O3  UNL     1      -1.956 -15.305   5.583  1.00  0.00    -0.395 OA
ATOM     22  H3  UNL     1      -2.524 -15.177   4.832  1.00  0.00     0.210 HD
ENDBRANCH   9  21
ENDBRANCH   4   5
ENDBRANCH   1   3
BRANCH   1  23
HETATM   23  O4  UNL     1      -6.754 -17.276   5.110  1.00  0.00    -0.381 OA
ATOM     24  H4  UNL     1      -7.421 -17.651   5.673  1.00  0.00     0.211 HD
ENDBRANCH   1  23
BRANCH   1  25
HETATM   25  C18 UNL     1      -7.859 -15.523   6.160  1.00  0.00     0.013 A 
HETATM   26  C19 UNL     1      -7.668 -14.778   7.293  1.00  0.00     0.014 A 
HETATM   27  C20 UNL     1      -8.729 -14.409   8.130  1.00  0.00     0.013 A 
HETATM   28  C21 UNL     1     -10.015 -14.790   7.833  1.00  0.00    -0.028 A 
HETATM   29  C30 UNL     1     -10.228 -15.549   6.682  1.00  0.00    -0.018 A 
HETATM   30  C31 UNL     1     -11.624 -15.942   6.383  1.00  0.00     0.052 C 
HETATM   31  C32 UNL     1      -9.164 -15.910   5.859  1.00  0.00     0.082 A 
BRANCH  28  32
HETATM   32  C22 UNL     1     -11.179 -14.442   8.667  1.00  0.00     0.013 C 
HETATM   33  C23 UNL     1     -11.087 -13.853   9.812  1.00  0.00     0.012 C 
BRANCH  33  34
HETATM   34  C24 UNL     1     -12.248 -13.517  10.622  1.00  0.00    -0.035 A 
HETATM   35  C25 UNL     1     -13.176 -14.426  11.078  1.00  0.00     0.013 A 
HETATM   36  C26 UNL     1     -14.276 -14.059  11.851  1.00  0.00     0.026 A 
HETATM   37  C27 UNL     1     -14.477 -12.748  12.195  1.00  0.00     0.055 A 
HETATM   38 CL1  UNL     1     -15.859 -12.246  13.173  1.00  0.00    -0.083 Cl
HETATM   39  C28 UNL     1     -13.561 -11.827  11.748  1.00  0.00     0.056 A 
HETATM   40 CL2  UNL     1     -13.823 -10.128  12.194  1.00  0.00    -0.083 Cl
HETATM   41  C29 UNL     1     -12.480 -12.181  10.989  1.00  0.00     0.037 A 
ENDBRANCH  33  34
ENDBRANCH  28  32
BRANCH  31  42
HETATM   42  O5  UNL     1      -9.324 -16.647   4.731  1.00  0.00    -0.359 OA
ATOM     43  H5  UNL     1      -9.927 -16.297   4.085  1.00  0.00     0.217 HD
ENDBRANCH  31  42
ENDBRANCH   1  25
TORSDOF 16
ENDMDL
MODEL 3
REMARK VINA RESULT: -7.607639365      4.314      7.074
REMARK  16 active torsions:
REMARK  status: ('A' for Active; 'I' for Inactive)
REMARK    1  A    between atoms: C2_2  and  C3_3 
REMARK    2  A    between atoms: C3_3  and  C4_4 
REMARK    3  A    between atoms: C4_4  and  O1_5 
REMARK    4  A    between atoms: O1_5  and  C5_6 
REMARK    5  A    between atoms: C5_6  and  C6_7 
REMARK    6  A    between atoms: C7_8  and  C8_9 
REMARK    7  A    between atoms: C8_9  and  C9_10 
REMARK    8  A    between atoms: C10_11  and  O2_12 
REMARK    9  A    between atoms: C12_15  and  O3_16 
REMARK   10  A    between atoms: C13_18  and  C14_19 
REMARK   11  A    between atoms: C15_20  and  C16_21 
REMARK   12  A    between atoms: C16_21  and  O4_23 
REMARK   13  A    between atoms: C16_21  and  C18_25 
REMARK   14  A    between atoms: C21_28  and  C22_29 
REMARK   15  A    between atoms: C23_30  and  C24_31 
REMARK   16  A    between atoms: C32_41  and  O5_42 
ROOT
HETATM    1  C16 UNL     1      -3.258 -17.821  10.638  1.00  0.00     0.102 C 
HETATM    2  C17 UNL     1      -2.526 -19.128  10.671  1.00  0.00     0.056 C 
ENDROOT
BRANCH   1   3
HETATM    3  C15 UNL     1      -2.249 -16.728  10.569  1.00  0.00     0.012 C 
HETATM    4  C14 UNL     1      -2.509 -15.499  10.988  1.00  0.00    -0.020 C 
BRANCH   4   5
HETATM    5  C13 UNL     1      -1.573 -14.374  10.952  1.00  0.00     0.043 C 
HETATM    6  C9  UNL     1      -2.268 -13.012  11.085  1.00  0.00     0.028 C 
HETATM    7  C10 UNL     1      -1.084 -12.109  10.897  1.00  0.00     0.125 C 
HETATM    8  C11 UNL     1      -0.278 -12.786   9.773  1.00  0.00     0.064 C 
HETATM    9  C12 UNL     1      -0.801 -14.209   9.687  1.00  0.00     0.128 C 
BRANCH   6  10
HETATM   10  C8  UNL     1      -3.276 -12.778   9.997  1.00  0.00     0.035 C 
BRANCH  10  11
HETATM   11  C7  UNL     1      -4.544 -12.317  10.564  1.00  0.00    -0.028 C 
HETATM   12  C6  UNL     1      -5.662 -12.964  10.495  1.00  0.00    -0.005 C 
BRANCH  12  13
HETATM   13  C5  UNL     1      -5.816 -14.268   9.833  1.00  0.00     0.194 C 
BRANCH  13  14
HETATM   14  O1  UNL     1      -6.822 -15.043  10.417  1.00  0.00    -0.387 OA
BRANCH  14  15
HETATM   15  C4  UNL     1      -7.993 -15.057   9.700  1.00  0.00     0.168 C 
BRANCH  15  16
HETATM   16  C3  UNL     1      -7.878 -14.345   8.391  1.00  0.00     0.026 C 
BRANCH  16  17
HETATM   17  C2  UNL     1      -9.232 -14.251   7.711  1.00  0.00    -0.002 C 
HETATM   18  C1  UNL     1      -9.987 -15.543   8.013  1.00  0.00     0.005 C 
ENDBRANCH  16  17
ENDBRANCH  15  16
ENDBRANCH  14  15
ENDBRANCH  13  14
ENDBRANCH  12  13
ENDBRANCH  10  11
ENDBRANCH   6  10
BRANCH   7  19
HETATM   19  O2  UNL     1      -0.308 -12.103  12.073  1.00  0.00    -0.395 OA
ATOM     20  H2  UNL     1       0.614 -12.116  11.844  1.00  0.00     0.210 HD
ENDBRANCH   7  19
BRANCH   9  21
HETATM   21  O3  UNL     1       0.255 -15.122   9.580  1.00  0.00    -0.395 OA
ATOM     22  H3  UNL     1      -0.072 -16.007   9.472  1.00  0.00     0.210 HD
ENDBRANCH   9  21
ENDBRANCH   4   5
ENDBRANCH   1   3
BRANCH   1  23
HETATM   23  O4  UNL     1      -3.956 -17.710  11.857  1.00  0.00    -0.381 OA
ATOM     24  H4  UNL     1      -4.864 -17.950  11.709  1.00  0.00     0.211 HD
ENDBRANCH   1  23
BRANCH   1  25
HETATM   25  C18 UNL     1      -4.224 -17.695   9.550  1.00  0.00     0.013 A 
HETATM   26  C19 UNL     1      -3.890 -17.015   8.409  1.00  0.00     0.014 A 
HETATM   27  C20 UNL     1      -4.782 -16.868   7.340  1.00  0.00     0.013 A 
HETATM   28  C21 UNL     1      -6.042 -17.412   7.405  1.00  0.00    -0.028 A 
HETATM   29  C30 UNL     1      -6.400 -18.109   8.559  1.00  0.00    -0.018 A 
HETATM   30  C31 UNL     1      -7.762 -18.690   8.600  1.00  0.00     0.052 C 
HETATM   31  C32 UNL     1      -5.503 -18.247   9.615  1.00  0.00     0.082 A 
BRANCH  28  32
HETATM   32  C22 UNL     1      -7.035 -17.296   6.321  1.00  0.00     0.013 C 
HETATM   33  C23 UNL     1      -7.062 -16.316   5.481  1.00  0.00     0.012 C 
BRANCH  33  34
HETATM   34  C24 UNL     1      -8.051 -16.218   4.418  1.00  0.00    -0.035 A 
HETATM   35  C25 UNL     1      -9.383 -16.538   4.551  1.00  0.00     0.013 A 
HETATM   36  C26 UNL     1     -10.295 -16.429   3.505  1.00  0.00     0.026 A 
HETATM   37  C27 UNL     1      -9.889 -15.989   2.272  1.00  0.00     0.055 A 
HETATM   38 CL1  UNL     1     -11.017 -15.838   0.921  1.00  0.00    -0.083 Cl
HETATM   39  C28 UNL     1      -8.562 -15.665   2.119  1.00  0.00     0.056 A 
HETATM   40 CL2  UNL     1      -8.037 -15.094   0.522  1.00  0.00    -0.083 Cl
HETATM   41  C29 UNL     1      -7.663 -15.770   3.144  1.00  0.00     0.037 A 
ENDBRANCH  33  34
ENDBRANCH  28  32
BRANCH  31  42
HETATM   42  O5  UNL     1      -5.808 -18.916  10.756  1.00  0.00    -0.359 OA
ATOM     43  H5  UNL     1      -6.498 -18.539  11.290  1.00  0.00     0.217 HD
ENDBRANCH  31  42
ENDBRANCH   1  25
TORSDOF 16
ENDMDL
MODEL 4
REMARK VINA RESULT: -7.461915717      4.909      7.832
REMARK  16 active torsions:
REMARK  status: ('A' for Active; 'I' for Inactive)
REMARK    1  A    between atoms: C2_2  and  C3_3 
REMARK    2  A    between atoms: C3_3  and  C4_4 
REMARK    3  A    between atoms: C4_4  and  O1_5 
REMARK    4  A    between atoms: O1_5  and  C5_6 
REMARK    5  A    between atoms: C5_6  and  C6_7 
REMARK    6  A    between atoms: C7_8  and  C8_9 
REMARK    7  A    between atoms: C8_9  and  C9_10 
REMARK    8  A    between atoms: C10_11  and  O2_12 
REMARK    9  A    between atoms: C12_15  and  O3_16 
REMARK   10  A    between atoms: C13_18  and  C14_19 
REMARK   11  A    between atoms: C15_20  and  C16_21 
REMARK   12  A    between atoms: C16_21  and  O4_23 
REMARK   13  A    between atoms: C16_21  and  C18_25 
REMARK   14  A    between atoms: C21_28  and  C22_29 
REMARK   15  A    between atoms: C23_30  and  C24_31 
REMARK   16  A    between atoms: C32_41  and  O5_42 
ROOT
HETATM    1  C16 UNL     1      -3.185 -17.704  10.444  1.00  0.00     0.102 C 
HETATM    2  C17 UNL     1      -2.483 -19.004  10.693  1.00  0.00     0.056 C 
ENDROOT
BRANCH   1   3
HETATM    3  C15 UNL     1      -2.187 -16.607  10.581  1.00  0.00     0.012 C 
HETATM    4  C14 UNL     1      -2.544 -15.356  10.833  1.00  0.00    -0.020 C 
BRANCH   4   5
HETATM    5  C13 UNL     1      -1.625 -14.226  10.981  1.00  0.00     0.043 C 
HETATM    6  C9  UNL     1      -2.350 -12.889  11.186  1.00  0.00     0.028 C 
HETATM    7  C10 UNL     1      -1.168 -11.962  11.181  1.00  0.00     0.125 C 
HETATM    8  C11 UNL     1      -0.266 -12.521  10.066  1.00  0.00     0.064 C 
HETATM    9  C12 UNL     1      -0.758 -13.934   9.803  1.00  0.00     0.128 C 
BRANCH   6  10
HETATM   10  C8  UNL     1      -3.271 -12.559  10.048  1.00  0.00     0.035 C 
BRANCH  10  11
HETATM   11  C7  UNL     1      -4.613 -12.254  10.547  1.00  0.00    -0.028 C 
HETATM   12  C6  UNL     1      -5.643 -13.026  10.416  1.00  0.00    -0.005 C 
BRANCH  12  13
HETATM   13  C5  UNL     1      -5.608 -14.332   9.743  1.00  0.00     0.194 C 
BRANCH  13  14
HETATM   14  O1  UNL     1      -6.130 -15.354  10.542  1.00  0.00    -0.387 OA
BRANCH  14  15
HETATM   15  C4  UNL     1      -7.260 -15.937  10.023  1.00  0.00     0.168 C 
BRANCH  15  16
HETATM   16  C3  UNL     1      -7.646 -15.369   8.695  1.00  0.00     0.026 C 
BRANCH  16  17
HETATM   17  C2  UNL     1      -8.817 -16.134   8.104  1.00  0.00    -0.002 C 
HETATM   18  C1  UNL     1      -8.982 -15.673   6.658  1.00  0.00     0.005 C 
ENDBRANCH  16  17
ENDBRANCH  15  16
ENDBRANCH  14  15
ENDBRANCH  13  14
ENDBRANCH  12  13
ENDBRANCH  10  11
ENDBRANCH   6  10
BRANCH   7  19
HETATM   19  O2  UNL     1      -0.488 -12.063  12.411  1.00  0.00    -0.395 OA
ATOM     20  H2  UNL     1       0.147 -11.361  12.479  1.00  0.00     0.210 HD
ENDBRANCH   7  19
BRANCH   9  21
HETATM   21  O3  UNL     1       0.318 -14.823   9.694  1.00  0.00    -0.395 OA
ATOM     22  H3  UNL     1       0.166 -15.602  10.216  1.00  0.00     0.210 HD
ENDBRANCH   9  21
ENDBRANCH   4   5
ENDBRANCH   1   3
BRANCH   1  23
HETATM   23  O4  UNL     1      -4.153 -17.559  11.458  1.00  0.00    -0.381 OA
ATOM     24  H4  UNL     1      -3.832 -16.934  12.097  1.00  0.00     0.211 HD
ENDBRANCH   1  23
BRANCH   1  25
HETATM   25  C18 UNL     1      -3.865 -17.621   9.154  1.00  0.00     0.013 A 
HETATM   26  C19 UNL     1      -3.416 -16.750   8.196  1.00  0.00     0.014 A 
HETATM   27  C20 UNL     1      -4.035 -16.635   6.945  1.00  0.00     0.013 A 
HETATM   28  C21 UNL     1      -5.130 -17.405   6.636  1.00  0.00    -0.028 A 
HETATM   29  C30 UNL     1      -5.601 -18.298   7.599  1.00  0.00    -0.018 A 
HETATM   30  C31 UNL     1      -6.778 -19.120   7.237  1.00  0.00     0.052 C 
HETATM   31  C32 UNL     1      -4.976 -18.402   8.840  1.00  0.00     0.082 A 
BRANCH  28  32
HETATM   32  C22 UNL     1      -5.834 -17.335   5.343  1.00  0.00     0.013 C 
HETATM   33  C23 UNL     1      -6.071 -16.231   4.717  1.00  0.00     0.012 C 
BRANCH  33  34
HETATM   34  C24 UNL     1      -6.768 -16.182   3.441  1.00  0.00    -0.035 A 
HETATM   35  C25 UNL     1      -7.572 -15.145   3.024  1.00  0.00     0.013 A 
HETATM   36  C26 UNL     1      -8.222 -15.141   1.792  1.00  0.00     0.026 A 
HETATM   37  C27 UNL     1      -8.081 -16.196   0.929  1.00  0.00     0.055 A 
HETATM   38 CL1  UNL     1      -8.890 -16.227  -0.641  1.00  0.00    -0.083 Cl
HETATM   39  C28 UNL     1      -7.283 -17.241   1.328  1.00  0.00     0.056 A 
HETATM   40 CL2  UNL     1      -7.101 -18.608   0.210  1.00  0.00    -0.083 Cl
HETATM   41  C29 UNL     1      -6.643 -17.250   2.537  1.00  0.00     0.037 A 
ENDBRANCH  33  34
ENDBRANCH  28  32
BRANCH  31  42
HETATM   42  O5  UNL     1      -5.399 -19.255   9.805  1.00  0.00    -0.359 OA
ATOM     43  H5  UNL     1      -5.992 -19.943   9.526  1.00  0.00     0.217 HD
ENDBRANCH  31  42
ENDBRANCH   1  25
TORSDOF 16
ENDMDL
MODEL 5
REMARK VINA RESULT: -7.410426615      3.905      7.974
REMARK  16 active torsions:
REMARK  status: ('A' for Active; 'I' for Inactive)
REMARK    1  A    between atoms: C2_2  and  C3_3 
REMARK    2  A    between atoms: C3_3  and  C4_4 
REMARK    3  A    between atoms: C4_4  and  O1_5 
REMARK    4  A    between atoms: O1_5  and  C5_6 
REMARK    5  A    between atoms: C5_6  and  C6_7 
REMARK    6  A    between atoms: C7_8  and  C8_9 
REMARK    7  A    between atoms: C8_9  and  C9_10 
REMARK    8  A    between atoms: C10_11  and  O2_12 
REMARK    9  A    between atoms: C12_15  and  O3_16 
REMARK   10  A    between atoms: C13_18  and  C14_19 
REMARK   11  A    between atoms: C15_20  and  C16_21 
REMARK   12  A    between atoms: C16_21  and  O4_23 
REMARK   13  A    between atoms: C16_21  and  C18_25 
REMARK   14  A    between atoms: C21_28  and  C22_29 
REMARK   15  A    between atoms: C23_30  and  C24_31 
REMARK   16  A    between atoms: C32_41  and  O5_42 
ROOT
HETATM    1  C16 UNL     1      -6.223 -16.590   5.831  1.00  0.00     0.102 C 
HETATM    2  C17 UNL     1      -5.979 -18.065   5.731  1.00  0.00     0.056 C 
ENDROOT
BRANCH   1   3
HETATM    3  C15 UNL     1      -6.528 -16.078   4.467  1.00  0.00     0.012 C 
HETATM    4  C14 UNL     1      -6.939 -16.874   3.490  1.00  0.00    -0.020 C 
BRANCH   4   5
HETATM    5  C13 UNL     1      -7.257 -16.448   2.126  1.00  0.00     0.043 C 
HETATM    6  C9  UNL     1      -8.644 -15.801   2.010  1.00  0.00     0.028 C 
HETATM    7  C10 UNL     1      -8.700 -15.598   0.524  1.00  0.00     0.125 C 
HETATM    8  C11 UNL     1      -8.077 -16.885  -0.048  1.00  0.00     0.064 C 
HETATM    9  C12 UNL     1      -7.332 -17.533   1.106  1.00  0.00     0.128 C 
BRANCH   6  10
HETATM   10  C8  UNL     1      -9.743 -16.725   2.449  1.00  0.00     0.035 C 
BRANCH  10  11
HETATM   11  C7  UNL     1     -10.524 -16.117   3.527  1.00  0.00    -0.028 C 
HETATM   12  C6  UNL     1     -11.553 -15.354   3.354  1.00  0.00    -0.005 C 
BRANCH  12  13
HETATM   13  C5  UNL     1     -12.091 -14.989   2.036  1.00  0.00     0.194 C 
BRANCH  13  14
HETATM   14  O1  UNL     1     -12.061 -13.609   1.814  1.00  0.00    -0.387 OA
BRANCH  14  15
HETATM   15  C4  UNL     1     -13.200 -12.960   2.221  1.00  0.00     0.168 C 
BRANCH  15  16
HETATM   16  C3  UNL     1     -14.444 -13.561   1.650  1.00  0.00     0.026 C 
BRANCH  16  17
HETATM   17  C2  UNL     1     -15.582 -13.494   2.654  1.00  0.00    -0.002 C 
HETATM   18  C1  UNL     1     -16.865 -13.866   1.915  1.00  0.00     0.005 C 
ENDBRANCH  16  17
ENDBRANCH  15  16
ENDBRANCH  14  15
ENDBRANCH  13  14
ENDBRANCH  12  13
ENDBRANCH  10  11
ENDBRANCH   6  10
BRANCH   7  19
HETATM   19  O2  UNL     1      -7.889 -14.502   0.169  1.00  0.00    -0.395 OA
ATOM     20  H2  UNL     1      -7.856 -14.426  -0.777  1.00  0.00     0.210 HD
ENDBRANCH   7  19
BRANCH   9  21
HETATM   21  O3  UNL     1      -6.068 -17.974   0.697  1.00  0.00    -0.395 OA
ATOM     22  H3  UNL     1      -6.120 -18.843   0.317  1.00  0.00     0.210 HD
ENDBRANCH   9  21
ENDBRANCH   4   5
ENDBRANCH   1   3
BRANCH   1  23
HETATM   23  O4  UNL     1      -5.019 -16.003   6.271  1.00  0.00    -0.381 OA
ATOM     24  H4  UNL     1      -5.219 -15.168   6.677  1.00  0.00     0.211 HD
ENDBRANCH   1  23
BRANCH   1  25
HETATM   25  C18 UNL     1      -7.278 -16.213   6.768  1.00  0.00     0.013 A 
HETATM   26  C19 UNL     1      -8.425 -15.621   6.308  1.00  0.00     0.014 A 
HETATM   27  C20 UNL     1      -9.464 -15.241   7.168  1.00  0.00     0.013 A 
HETATM   28  C21 UNL     1      -9.362 -15.456   8.520  1.00  0.00    -0.028 A 
HETATM   29  C30 UNL     1      -8.202 -16.059   9.007  1.00  0.00    -0.018 A 
HETATM   30  C31 UNL     1      -8.121 -16.284  10.468  1.00  0.00     0.052 C 
HETATM   31  C32 UNL     1      -7.176 -16.430   8.141  1.00  0.00     0.082 A 
BRANCH  28  32
HETATM   32  C22 UNL     1     -10.413 -15.081   9.484  1.00  0.00     0.013 C 
HETATM   33  C23 UNL     1     -11.103 -13.993   9.401  1.00  0.00     0.012 C 
BRANCH  33  34
HETATM   34  C24 UNL     1     -12.135 -13.640  10.363  1.00  0.00    -0.035 A 
HETATM   35  C25 UNL     1     -12.962 -14.541  10.995  1.00  0.00     0.013 A 
HETATM   36  C26 UNL     1     -13.940 -14.157  11.910  1.00  0.00     0.026 A 
HETATM   37  C27 UNL     1     -14.118 -12.835  12.222  1.00  0.00     0.055 A 
HETATM   38 CL1  UNL     1     -15.347 -12.311  13.377  1.00  0.00    -0.083 Cl
HETATM   39  C28 UNL     1     -13.302 -11.920  11.601  1.00  0.00     0.056 A 
HETATM   40 CL2  UNL     1     -13.533 -10.208  12.007  1.00  0.00    -0.083 Cl
HETATM   41  C29 UNL     1     -12.341 -12.292  10.702  1.00  0.00     0.037 A 
ENDBRANCH  33  34
ENDBRANCH  28  32
BRANCH  31  42
HETATM   42  O5  UNL     1      -6.030 -17.018   8.569  1.00  0.00    -0.359 OA
ATOM     43  H5  UNL     1      -5.889 -17.023   9.509  1.00  0.00     0.217 HD
ENDBRANCH  31  42
ENDBRANCH   1  25
TORSDOF 16
ENDMDL
