MODEL 1
REMARK VINA RESULT: -6.872003879      0.000      0.000
REMARK  14 active torsions:
REMARK  status: ('A' for Active; 'I' for Inactive)
REMARK    1  A    between atoms: C2_2  and  C3_3 
REMARK    2  A    between atoms: C3_3  and  C4_4 
REMARK    3  A    between atoms: C4_4  and  O1_5 
REMARK    4  A    between atoms: O1_5  and  C5_6 
REMARK    5  A    between atoms: C5_6  and  C6_7 
REMARK    6  A    between atoms: C6_7  and  C7_8 
REMARK    7  A    between atoms: C7_8  and  C8_9 
REMARK    8  A    between atoms: C8_9  and  N1_10 
REMARK       I    between atoms: N1_10  and  C9_11 
REMARK    9  A    between atoms: C9_11  and  O3_13 
REMARK   10  A    between atoms: O3_13  and  C10_14 
REMARK   11  A    between atoms: C13_17  and  N2_18 
REMARK       I    between atoms: N2_18  and  C14_20 
REMARK       I    between atoms: C14_20  and  N4_22 
REMARK   12  A    between atoms: N4_22  and  C15_23 
REMARK   13  A    between atoms: C15_23  and  C16_24 
REMARK   14  A    between atoms: N5_31  and  C21_33 
ROOT
HETATM    1  N1  UNL     1      -2.552 -12.847  11.168  1.00  0.00    -0.362 NA
HETATM    2  C9  UNL     1      -3.938 -12.665  11.085  1.00  0.00     0.444 C 
HETATM    3  O2  UNL     1      -4.543 -11.726  10.561  1.00  0.00    -0.221 OA
ENDROOT
BRANCH   2   4
HETATM    4  O3  UNL     1      -4.778 -13.665  11.665  1.00  0.00    -0.250 OA
BRANCH   4   5
HETATM    5  C10 UNL     1      -5.633 -14.447  10.935  1.00  0.00     0.083 A 
HETATM    6  C11 UNL     1      -5.527 -14.497   9.555  1.00  0.00     0.040 A 
HETATM    7  C12 UNL     1      -6.366 -15.261   8.765  1.00  0.00     0.034 A 
HETATM    8  C13 UNL     1      -7.367 -16.020   9.391  1.00  0.00     0.053 A 
HETATM    9  C19 UNL     1      -7.506 -16.004  10.757  1.00  0.00     0.040 A 
HETATM   10 BR1  UNL     1      -8.872 -17.038  11.643  1.00  0.00    -0.049 Br
HETATM   11  C20 UNL     1      -6.631 -15.215  11.492  1.00  0.00     0.058 A 
BRANCH   8  12
HETATM   12  N2  UNL     1      -8.284 -16.795   8.589  1.00  0.00    -0.318 N 
HETATM   13  C14 UNL     1      -7.737 -17.502   7.486  1.00  0.00     0.262 C 
HETATM   14  N3  UNL     1      -7.054 -18.733   7.808  1.00  0.00    -0.049 NA
HETATM   15  N4  UNL     1      -7.808 -17.144   6.342  1.00  0.00    -0.415 NA
ATOM     16  H2  UNL     1      -9.280 -16.833   8.805  1.00  0.00     0.169 HD
BRANCH  15  17
HETATM   17  C15 UNL     1      -8.086 -16.438   5.237  1.00  0.00     0.264 C 
BRANCH  17  18
HETATM   18  C16 UNL     1      -6.955 -16.453   4.200  1.00  0.00     0.123 C 
HETATM   19  C17 UNL     1      -7.598 -16.737   2.849  1.00  0.00     0.054 C 
HETATM   20  C18 UNL     1      -6.225 -15.162   4.111  1.00  0.00     0.054 C 
HETATM   21  F1  UNL     1      -6.067 -17.468   4.522  1.00  0.00    -0.241 F 
ENDBRANCH  17  18
ENDBRANCH  15  17
ENDBRANCH   8  12
ENDBRANCH   4   5
ENDBRANCH   2   4
BRANCH   1  22
HETATM   22  C8  UNL     1      -1.231 -13.019  11.246  1.00  0.00     0.162 C 
BRANCH  22  23
HETATM   23  C7  UNL     1      -0.501 -13.500  10.023  1.00  0.00     0.067 C 
BRANCH  23  24
HETATM   24  C6  UNL     1      -1.472 -13.968   8.980  1.00  0.00     0.090 C 
BRANCH  24  25
HETATM   25  C5  UNL     1      -1.293 -15.443   8.788  1.00  0.00     0.114 C 
HETATM   26  N5  UNL     1      -1.510 -16.096   7.729  1.00  0.00    -0.370 N 
ATOM     27  H5  UNL     1      -1.334 -17.098   7.789  1.00  0.00     0.161 HD
BRANCH  25  28
HETATM   28  O1  UNL     1      -0.846 -16.188   9.871  1.00  0.00    -0.339 OA
BRANCH  28  29
HETATM   29  C4  UNL     1      -1.530 -17.215  10.505  1.00  0.00     0.177 C 
BRANCH  29  30
HETATM   30  C3  UNL     1      -2.914 -16.801  10.898  1.00  0.00     0.026 C 
BRANCH  30  31
HETATM   31  C2  UNL     1      -3.973 -17.805  10.509  1.00  0.00    -0.002 C 
HETATM   32  C1  UNL     1      -4.622 -18.403  11.757  1.00  0.00     0.005 C 
ENDBRANCH  30  31
ENDBRANCH  29  30
ENDBRANCH  28  29
ENDBRANCH  25  28
BRANCH  26  33
HETATM   33  C21 UNL     1      -1.968 -15.631   6.457  1.00  0.00     0.083 C 
HETATM   34  C22 UNL     1      -1.417 -16.498   5.325  1.00  0.00     0.025 C 
HETATM   35  C23 UNL     1      -2.390 -17.573   4.936  1.00  0.00     0.002 C 
HETATM   36  C24 UNL     1      -3.166 -18.155   6.084  1.00  0.00     0.000 C 
HETATM   37  C25 UNL     1      -3.857 -17.100   6.920  1.00  0.00     0.002 C 
HETATM   38  C26 UNL     1      -3.495 -15.706   6.438  1.00  0.00     0.025 C 
ENDBRANCH  26  33
ENDBRANCH  24  25
ENDBRANCH  23  24
ENDBRANCH  22  23
ENDBRANCH   1  22
TORSDOF 14
ENDMDL
MODEL 2
REMARK VINA RESULT: -6.834925873      2.492      5.803
REMARK  14 active torsions:
REMARK  status: ('A' for Active; 'I' for Inactive)
REMARK    1  A    between atoms: C2_2  and  C3_3 
REMARK    2  A    between atoms: C3_3  and  C4_4 
REMARK    3  A    between atoms: C4_4  and  O1_5 
REMARK    4  A    between atoms: O1_5  and  C5_6 
REMARK    5  A    between atoms: C5_6  and  C6_7 
REMARK    6  A    between atoms: C6_7  and  C7_8 
REMARK    7  A    between atoms: C7_8  and  C8_9 
REMARK    8  A    between atoms: C8_9  and  N1_10 
REMARK       I    between atoms: N1_10  and  C9_11 
REMARK    9  A    between atoms: C9_11  and  O3_13 
REMARK   10  A    between atoms: O3_13  and  C10_14 
REMARK   11  A    between atoms: C13_17  and  N2_18 
REMARK       I    between atoms: N2_18  and  C14_20 
REMARK       I    between atoms: C14_20  and  N4_22 
REMARK   12  A    between atoms: N4_22  and  C15_23 
REMARK   13  A    between atoms: C15_23  and  C16_24 
REMARK   14  A    between atoms: N5_31  and  C21_33 
ROOT
HETATM    1  N1  UNL     1      -3.490 -12.064  11.309  1.00  0.00    -0.362 NA
HETATM    2  C9  UNL     1      -2.218 -12.069  11.895  1.00  0.00     0.444 C 
HETATM    3  O2  UNL     1      -1.736 -11.224  12.654  1.00  0.00    -0.221 OA
ENDROOT
BRANCH   2   4
HETATM    4  O3  UNL     1      -1.354 -13.169  11.603  1.00  0.00    -0.250 OA
BRANCH   4   5
HETATM    5  C10 UNL     1      -1.564 -14.039  10.567  1.00  0.00     0.083 A 
HETATM    6  C11 UNL     1      -1.243 -13.671   9.271  1.00  0.00     0.040 A 
HETATM    7  C12 UNL     1      -1.441 -14.502   8.184  1.00  0.00     0.034 A 
HETATM    8  C13 UNL     1      -1.989 -15.775   8.406  1.00  0.00     0.053 A 
HETATM    9  C19 UNL     1      -2.319 -16.183   9.675  1.00  0.00     0.040 A 
HETATM   10 BR1  UNL     1      -3.073 -17.926  10.008  1.00  0.00    -0.049 Br
HETATM   11  C20 UNL     1      -2.096 -15.300  10.723  1.00  0.00     0.058 A 
BRANCH   8  12
HETATM   12  N2  UNL     1      -2.245 -16.649   7.285  1.00  0.00    -0.318 N 
HETATM   13  C14 UNL     1      -2.078 -16.099   5.987  1.00  0.00     0.262 C 
HETATM   14  N3  UNL     1      -0.715 -15.986   5.526  1.00  0.00    -0.049 NA
HETATM   15  N4  UNL     1      -2.977 -15.734   5.279  1.00  0.00    -0.415 NA
ATOM     16  H2  UNL     1      -2.532 -17.618   7.420  1.00  0.00     0.169 HD
BRANCH  15  17
HETATM   17  C15 UNL     1      -4.198 -15.450   4.806  1.00  0.00     0.264 C 
BRANCH  17  18
HETATM   18  C16 UNL     1      -5.325 -16.196   5.534  1.00  0.00     0.123 C 
HETATM   19  C17 UNL     1      -6.634 -15.747   4.899  1.00  0.00     0.054 C 
HETATM   20  C18 UNL     1      -5.224 -17.673   5.408  1.00  0.00     0.054 C 
HETATM   21  F1  UNL     1      -5.303 -15.841   6.873  1.00  0.00    -0.241 F 
ENDBRANCH  17  18
ENDBRANCH  15  17
ENDBRANCH   8  12
ENDBRANCH   4   5
ENDBRANCH   2   4
BRANCH   1  22
HETATM   22  C8  UNL     1      -4.703 -12.057  10.751  1.00  0.00     0.162 C 
BRANCH  22  23
HETATM   23  C7  UNL     1      -5.147 -13.277   9.995  1.00  0.00     0.067 C 
BRANCH  23  24
HETATM   24  C6  UNL     1      -6.045 -14.126  10.846  1.00  0.00     0.090 C 
BRANCH  24  25
HETATM   25  C5  UNL     1      -7.041 -14.808   9.958  1.00  0.00     0.114 C 
HETATM   26  N5  UNL     1      -7.692 -15.857  10.225  1.00  0.00    -0.370 N 
ATOM     27  H5  UNL     1      -8.326 -16.176   9.493  1.00  0.00     0.161 HD
BRANCH  25  28
HETATM   28  O1  UNL     1      -7.288 -14.249   8.712  1.00  0.00    -0.339 OA
BRANCH  28  29
HETATM   29  C4  UNL     1      -8.297 -14.610   7.831  1.00  0.00     0.177 C 
BRANCH  29  30
HETATM   30  C3  UNL     1      -9.539 -13.802   8.046  1.00  0.00     0.026 C 
BRANCH  30  31
HETATM   31  C2  UNL     1     -10.634 -14.563   8.756  1.00  0.00    -0.002 C 
HETATM   32  C1  UNL     1     -11.553 -13.597   9.502  1.00  0.00     0.005 C 
ENDBRANCH  30  31
ENDBRANCH  29  30
ENDBRANCH  28  29
ENDBRANCH  25  28
BRANCH  26  33
HETATM   33  C21 UNL     1      -7.668 -16.662  11.406  1.00  0.00     0.083 C 
HETATM   34  C22 UNL     1      -9.085 -16.983  11.880  1.00  0.00     0.025 C 
HETATM   35  C23 UNL     1      -9.548 -18.312  11.357  1.00  0.00     0.002 C 
HETATM   36  C24 UNL     1      -9.078 -18.631   9.966  1.00  0.00     0.000 C 
HETATM   37  C25 UNL     1      -7.579 -18.500   9.808  1.00  0.00     0.002 C 
HETATM   38  C26 UNL     1      -6.947 -17.970  11.083  1.00  0.00     0.025 C 
ENDBRANCH  26  33
ENDBRANCH  24  25
ENDBRANCH  23  24
ENDBRANCH  22  23
ENDBRANCH   1  22
TORSDOF 14
ENDMDL
MODEL 3
REMARK VINA RESULT: -6.782876200      2.186      5.011
REMARK  14 active torsions:
REMARK  status: ('A' for Active; 'I' for Inactive)
REMARK    1  A    between atoms: C2_2  and  C3_3 
REMARK    2  A    between atoms: C3_3  and  C4_4 
REMARK    3  A    between atoms: C4_4  and  O1_5 
REMARK    4  A    between atoms: O1_5  and  C5_6 
REMARK    5  A    between atoms: C5_6  and  C6_7 
REMARK    6  A    between atoms: C6_7  and  C7_8 
REMARK    7  A    between atoms: C7_8  and  C8_9 
REMARK    8  A    between atoms: C8_9  and  N1_10 
REMARK       I    between atoms: N1_10  and  C9_11 
REMARK    9  A    between atoms: C9_11  and  O3_13 
REMARK   10  A    between atoms: O3_13  and  C10_14 
REMARK   11  A    between atoms: C13_17  and  N2_18 
REMARK       I    between atoms: N2_18  and  C14_20 
REMARK       I    between atoms: C14_20  and  N4_22 
REMARK   12  A    between atoms: N4_22  and  C15_23 
REMARK   13  A    between atoms: C15_23  and  C16_24 
REMARK   14  A    between atoms: N5_31  and  C21_33 
ROOT
HETATM    1  N1  UNL     1      -3.420 -11.569  11.132  1.00  0.00    -0.362 NA
HETATM    2  C9  UNL     1      -2.188 -11.484  11.792  1.00  0.00     0.444 C 
HETATM    3  O2  UNL     1      -1.770 -10.555  12.488  1.00  0.00    -0.221 OA
ENDROOT
BRANCH   2   4
HETATM    4  O3  UNL     1      -1.286 -12.586  11.666  1.00  0.00    -0.250 OA
BRANCH   4   5
HETATM    5  C10 UNL     1      -1.447 -13.591  10.750  1.00  0.00     0.083 A 
HETATM    6  C11 UNL     1      -1.004 -13.426   9.448  1.00  0.00     0.040 A 
HETATM    7  C12 UNL     1      -1.146 -14.401   8.478  1.00  0.00     0.034 A 
HETATM    8  C13 UNL     1      -1.765 -15.610   8.830  1.00  0.00     0.053 A 
HETATM    9  C19 UNL     1      -2.216 -15.818  10.110  1.00  0.00     0.040 A 
HETATM   10 BR1  UNL     1      -3.068 -17.471  10.622  1.00  0.00    -0.049 Br
HETATM   11  C20 UNL     1      -2.043 -14.799  11.037  1.00  0.00     0.058 A 
BRANCH   8  12
HETATM   12  N2  UNL     1      -1.964 -16.630   7.828  1.00  0.00    -0.318 N 
HETATM   13  C14 UNL     1      -2.392 -16.199   6.544  1.00  0.00     0.262 C 
HETATM   14  N3  UNL     1      -1.365 -15.637   5.700  1.00  0.00    -0.049 NA
HETATM   15  N4  UNL     1      -3.520 -16.272   6.140  1.00  0.00    -0.415 NA
ATOM     16  H2  UNL     1      -1.805 -17.617   8.032  1.00  0.00     0.169 HD
BRANCH  15  17
HETATM   17  C15 UNL     1      -4.835 -16.514   6.055  1.00  0.00     0.264 C 
BRANCH  17  18
HETATM   18  C16 UNL     1      -5.358 -16.553   4.612  1.00  0.00     0.123 C 
HETATM   19  C17 UNL     1      -6.562 -17.486   4.603  1.00  0.00     0.054 C 
HETATM   20  C18 UNL     1      -5.790 -15.223   4.111  1.00  0.00     0.054 C 
HETATM   21  F1  UNL     1      -4.364 -17.059   3.791  1.00  0.00    -0.241 F 
ENDBRANCH  17  18
ENDBRANCH  15  17
ENDBRANCH   8  12
ENDBRANCH   4   5
ENDBRANCH   2   4
BRANCH   1  22
HETATM   22  C8  UNL     1      -4.595 -11.649  10.504  1.00  0.00     0.162 C 
BRANCH  22  23
HETATM   23  C7  UNL     1      -5.488 -12.819  10.806  1.00  0.00     0.067 C 
BRANCH  23  24
HETATM   24  C6  UNL     1      -5.473 -13.800   9.671  1.00  0.00     0.090 C 
BRANCH  24  25
HETATM   25  C5  UNL     1      -6.508 -14.851   9.933  1.00  0.00     0.114 C 
HETATM   26  N5  UNL     1      -7.618 -14.977   9.344  1.00  0.00    -0.370 N 
ATOM     27  H5  UNL     1      -8.195 -15.756   9.662  1.00  0.00     0.161 HD
BRANCH  25  28
HETATM   28  O1  UNL     1      -6.242 -15.791  10.920  1.00  0.00    -0.339 OA
BRANCH  28  29
HETATM   29  C4  UNL     1      -7.143 -16.695  11.462  1.00  0.00     0.177 C 
BRANCH  29  30
HETATM   30  C3  UNL     1      -6.835 -18.102  11.050  1.00  0.00     0.026 C 
BRANCH  30  31
HETATM   31  C2  UNL     1      -7.644 -18.571   9.864  1.00  0.00    -0.002 C 
HETATM   32  C1  UNL     1      -6.837 -18.412   8.575  1.00  0.00     0.005 C 
ENDBRANCH  30  31
ENDBRANCH  29  30
ENDBRANCH  28  29
ENDBRANCH  25  28
BRANCH  26  33
HETATM   33  C21 UNL     1      -8.181 -14.186   8.295  1.00  0.00     0.083 C 
HETATM   34  C22 UNL     1      -8.015 -14.872   6.940  1.00  0.00     0.025 C 
HETATM   35  C23 UNL     1      -9.236 -15.667   6.576  1.00  0.00     0.002 C 
HETATM   36  C24 UNL     1      -9.907 -16.344   7.738  1.00  0.00     0.000 C 
HETATM   37  C25 UNL     1     -10.221 -15.391   8.870  1.00  0.00     0.002 C 
HETATM   38  C26 UNL     1      -9.673 -14.005   8.578  1.00  0.00     0.025 C 
ENDBRANCH  26  33
ENDBRANCH  24  25
ENDBRANCH  23  24
ENDBRANCH  22  23
ENDBRANCH   1  22
TORSDOF 14
ENDMDL
MODEL 4
REMARK VINA RESULT: -6.672797624      2.275      5.268
REMARK  14 active torsions:
REMARK  status: ('A' for Active; 'I' for Inactive)
REMARK    1  A    between atoms: C2_2  and  C3_3 
REMARK    2  A    between atoms: C3_3  and  C4_4 
REMARK    3  A    between atoms: C4_4  and  O1_5 
REMARK    4  A    between atoms: O1_5  and  C5_6 
REMARK    5  A    between atoms: C5_6  and  C6_7 
REMARK    6  A    between atoms: C6_7  and  C7_8 
REMARK    7  A    between atoms: C7_8  and  C8_9 
REMARK    8  A    between atoms: C8_9  and  N1_10 
REMARK       I    between atoms: N1_10  and  C9_11 
REMARK    9  A    between atoms: C9_11  and  O3_13 
REMARK   10  A    between atoms: O3_13  and  C10_14 
REMARK   11  A    between atoms: C13_17  and  N2_18 
REMARK       I    between atoms: N2_18  and  C14_20 
REMARK       I    between atoms: C14_20  and  N4_22 
REMARK   12  A    between atoms: N4_22  and  C15_23 
REMARK   13  A    between atoms: C15_23  and  C16_24 
REMARK   14  A    between atoms: N5_31  and  C21_33 
ROOT
HETATM    1  N1  UNL     1      -3.447 -12.081  11.320  1.00  0.00    -0.362 NA
HETATM    2  C9  UNL     1      -2.174 -12.157  11.897  1.00  0.00     0.444 C 
HETATM    3  O2  UNL     1      -1.673 -11.384  12.718  1.00  0.00    -0.221 OA
ENDROOT
BRANCH   2   4
HETATM    4  O3  UNL     1      -1.331 -13.245  11.513  1.00  0.00    -0.250 OA
BRANCH   4   5
HETATM    5  C10 UNL     1      -1.585 -14.053  10.437  1.00  0.00     0.083 A 
HETATM    6  C11 UNL     1      -1.195 -13.665   9.166  1.00  0.00     0.040 A 
HETATM    7  C12 UNL     1      -1.432 -14.433   8.041  1.00  0.00     0.034 A 
HETATM    8  C13 UNL     1      -2.096 -15.660   8.196  1.00  0.00     0.053 A 
HETATM    9  C19 UNL     1      -2.498 -16.085   9.438  1.00  0.00     0.040 A 
HETATM   10 BR1  UNL     1      -3.411 -17.767   9.680  1.00  0.00    -0.049 Br
HETATM   11  C20 UNL     1      -2.229 -15.266  10.527  1.00  0.00     0.058 A 
BRANCH   8  12
HETATM   12  N2  UNL     1      -2.394 -16.464   7.034  1.00  0.00    -0.318 N 
HETATM   13  C14 UNL     1      -1.993 -15.949   5.773  1.00  0.00     0.262 C 
HETATM   14  N3  UNL     1      -0.592 -16.094   5.455  1.00  0.00    -0.049 NA
HETATM   15  N4  UNL     1      -2.729 -15.418   4.988  1.00  0.00    -0.415 NA
ATOM     16  H2  UNL     1      -2.871 -17.362   7.116  1.00  0.00     0.169 HD
BRANCH  15  17
HETATM   17  C15 UNL     1      -3.820 -14.905   4.401  1.00  0.00     0.264 C 
BRANCH  17  18
HETATM   18  C16 UNL     1      -5.096 -15.715   4.670  1.00  0.00     0.123 C 
HETATM   19  C17 UNL     1      -6.257 -14.911   4.100  1.00  0.00     0.054 C 
HETATM   20  C18 UNL     1      -5.088 -17.051   4.022  1.00  0.00     0.054 C 
HETATM   21  F1  UNL     1      -5.251 -15.862   6.039  1.00  0.00    -0.241 F 
ENDBRANCH  17  18
ENDBRANCH  15  17
ENDBRANCH   8  12
ENDBRANCH   4   5
ENDBRANCH   2   4
BRANCH   1  22
HETATM   22  C8  UNL     1      -4.662 -12.008  10.772  1.00  0.00     0.162 C 
BRANCH  22  23
HETATM   23  C7  UNL     1      -5.590 -13.178  10.934  1.00  0.00     0.067 C 
BRANCH  23  24
HETATM   24  C6  UNL     1      -5.695 -13.949   9.651  1.00  0.00     0.090 C 
BRANCH  24  25
HETATM   25  C5  UNL     1      -6.745 -15.006   9.813  1.00  0.00     0.114 C 
HETATM   26  N5  UNL     1      -7.609 -15.345   8.956  1.00  0.00    -0.370 N 
ATOM     27  H5  UNL     1      -8.246 -16.086   9.248  1.00  0.00     0.161 HD
BRANCH  25  28
HETATM   28  O1  UNL     1      -6.792 -15.694  11.017  1.00  0.00    -0.339 OA
BRANCH  28  29
HETATM   29  C4  UNL     1      -7.355 -16.943  11.233  1.00  0.00     0.177 C 
BRANCH  29  30
HETATM   30  C3  UNL     1      -8.745 -16.839  11.780  1.00  0.00     0.026 C 
BRANCH  30  31
HETATM   31  C2  UNL     1      -9.793 -17.446  10.877  1.00  0.00    -0.002 C 
HETATM   32  C1  UNL     1      -9.141 -18.392   9.870  1.00  0.00     0.005 C 
ENDBRANCH  30  31
ENDBRANCH  29  30
ENDBRANCH  28  29
ENDBRANCH  25  28
BRANCH  26  33
HETATM   33  C21 UNL     1      -7.823 -14.839   7.637  1.00  0.00     0.083 C 
HETATM   34  C22 UNL     1      -8.442 -15.906   6.734  1.00  0.00     0.025 C 
HETATM   35  C23 UNL     1      -9.937 -15.784   6.689  1.00  0.00     0.002 C 
HETATM   36  C24 UNL     1     -10.567 -15.374   7.991  1.00  0.00     0.000 C 
HETATM   37  C25 UNL     1      -9.956 -14.116   8.568  1.00  0.00     0.002 C 
HETATM   38  C26 UNL     1      -8.781 -13.651   7.726  1.00  0.00     0.025 C 
ENDBRANCH  26  33
ENDBRANCH  24  25
ENDBRANCH  23  24
ENDBRANCH  22  23
ENDBRANCH   1  22
TORSDOF 14
ENDMDL
MODEL 5
REMARK VINA RESULT: -6.577823398      4.222      5.995
REMARK  14 active torsions:
REMARK  status: ('A' for Active; 'I' for Inactive)
REMARK    1  A    between atoms: C2_2  and  C3_3 
REMARK    2  A    between atoms: C3_3  and  C4_4 
REMARK    3  A    between atoms: C4_4  and  O1_5 
REMARK    4  A    between atoms: O1_5  and  C5_6 
REMARK    5  A    between atoms: C5_6  and  C6_7 
REMARK    6  A    between atoms: C6_7  and  C7_8 
REMARK    7  A    between atoms: C7_8  and  C8_9 
REMARK    8  A    between atoms: C8_9  and  N1_10 
REMARK       I    between atoms: N1_10  and  C9_11 
REMARK    9  A    between atoms: C9_11  and  O3_13 
REMARK   10  A    between atoms: O3_13  and  C10_14 
REMARK   11  A    between atoms: C13_17  and  N2_18 
REMARK       I    between atoms: N2_18  and  C14_20 
REMARK       I    between atoms: C14_20  and  N4_22 
REMARK   12  A    between atoms: N4_22  and  C15_23 
REMARK   13  A    between atoms: C15_23  and  C16_24 
REMARK   14  A    between atoms: N5_31  and  C21_33 
ROOT
HETATM    1  N1  UNL     1      -5.405 -15.658  11.158  1.00  0.00    -0.362 NA
HETATM    2  C9  UNL     1      -5.786 -16.966  11.481  1.00  0.00     0.444 C 
HETATM    3  O2  UNL     1      -5.285 -17.706  12.332  1.00  0.00    -0.221 OA
ENDROOT
BRANCH   2   4
HETATM    4  O3  UNL     1      -6.880 -17.539  10.763  1.00  0.00    -0.250 OA
BRANCH   4   5
HETATM    5  C10 UNL     1      -7.983 -16.827  10.375  1.00  0.00     0.083 A 
HETATM    6  C11 UNL     1      -9.174 -16.951  11.071  1.00  0.00     0.040 A 
HETATM    7  C12 UNL     1     -10.323 -16.266  10.721  1.00  0.00     0.034 A 
HETATM    8  C13 UNL     1     -10.278 -15.406   9.613  1.00  0.00     0.053 A 
HETATM    9  C19 UNL     1      -9.117 -15.249   8.896  1.00  0.00     0.040 A 
HETATM   10 BR1  UNL     1      -9.027 -14.073   7.370  1.00  0.00    -0.049 Br
HETATM   11  C20 UNL     1      -7.999 -15.967   9.299  1.00  0.00     0.058 A 
BRANCH   8  12
HETATM   12  N2  UNL     1     -11.473 -14.708   9.199  1.00  0.00    -0.318 N 
HETATM   13  C14 UNL     1     -11.969 -13.706  10.073  1.00  0.00     0.262 C 
HETATM   14  N3  UNL     1     -11.275 -12.441  10.033  1.00  0.00    -0.049 NA
HETATM   15  N4  UNL     1     -12.900 -13.849  10.818  1.00  0.00    -0.415 NA
ATOM     16  H2  UNL     1     -11.939 -14.926   8.319  1.00  0.00     0.169 HD
BRANCH  15  17
HETATM   17  C15 UNL     1     -13.937 -14.378  11.484  1.00  0.00     0.264 C 
BRANCH  17  18
HETATM   18  C16 UNL     1     -14.337 -13.575  12.729  1.00  0.00     0.123 C 
HETATM   19  C17 UNL     1     -14.473 -12.122  12.294  1.00  0.00     0.054 C 
HETATM   20  C18 UNL     1     -15.630 -14.012  13.316  1.00  0.00     0.054 C 
HETATM   21  F1  UNL     1     -13.333 -13.692  13.677  1.00  0.00    -0.241 F 
ENDBRANCH  17  18
ENDBRANCH  15  17
ENDBRANCH   8  12
ENDBRANCH   4   5
ENDBRANCH   2   4
BRANCH   1  22
HETATM   22  C8  UNL     1      -5.040 -14.411  10.851  1.00  0.00     0.162 C 
BRANCH  22  23
HETATM   23  C7  UNL     1      -4.135 -14.202   9.670  1.00  0.00     0.067 C 
BRANCH  23  24
HETATM   24  C6  UNL     1      -3.230 -15.384   9.484  1.00  0.00     0.090 C 
BRANCH  24  25
HETATM   25  C5  UNL     1      -2.234 -15.060   8.412  1.00  0.00     0.114 C 
HETATM   26  N5  UNL     1      -2.151 -15.601   7.274  1.00  0.00    -0.370 N 
ATOM     27  H5  UNL     1      -1.403 -15.250   6.677  1.00  0.00     0.161 HD
BRANCH  25  28
HETATM   28  O1  UNL     1      -1.298 -14.069   8.675  1.00  0.00    -0.339 OA
BRANCH  28  29
HETATM   29  C4  UNL     1      -0.410 -14.034   9.740  1.00  0.00     0.177 C 
BRANCH  29  30
HETATM   30  C3  UNL     1      -0.248 -12.649  10.284  1.00  0.00     0.026 C 
BRANCH  30  31
HETATM   31  C2  UNL     1      -1.178 -12.343  11.434  1.00  0.00    -0.002 C 
HETATM   32  C1  UNL     1      -2.211 -11.296  11.017  1.00  0.00     0.005 C 
ENDBRANCH  30  31
ENDBRANCH  29  30
ENDBRANCH  28  29
ENDBRANCH  25  28
BRANCH  26  33
HETATM   33  C21 UNL     1      -2.954 -16.637   6.703  1.00  0.00     0.083 C 
HETATM   34  C22 UNL     1      -4.353 -16.122   6.366  1.00  0.00     0.025 C 
HETATM   35  C23 UNL     1      -4.445 -15.687   4.932  1.00  0.00     0.002 C 
HETATM   36  C24 UNL     1      -3.202 -15.030   4.401  1.00  0.00     0.000 C 
HETATM   37  C25 UNL     1      -1.959 -15.865   4.616  1.00  0.00     0.002 C 
HETATM   38  C26 UNL     1      -2.280 -17.115   5.417  1.00  0.00     0.025 C 
ENDBRANCH  26  33
ENDBRANCH  24  25
ENDBRANCH  23  24
ENDBRANCH  22  23
ENDBRANCH   1  22
TORSDOF 14
ENDMDL
