MODEL 1
REMARK VINA RESULT: -7.362758697      0.000      0.000
REMARK  15 active torsions:
REMARK  status: ('A' for Active; 'I' for Inactive)
REMARK    1  A    between atoms: C4_4  and  C5_5 
REMARK    2  A    between atoms: C5_5  and  C6_6 
REMARK    3  A    between atoms: C13_15  and  C14_16 
REMARK    4  A    between atoms: C15_17  and  C16_18 
REMARK    5  A    between atoms: C16_18  and  O3_19 
REMARK    6  A    between atoms: C16_18  and  C17_21 
REMARK    7  A    between atoms: C17_21  and  C18_22 
REMARK    8  A    between atoms: C18_22  and  C19_24 
REMARK    9  A    between atoms: C19_24  and  N1_25 
REMARK   10  A    between atoms: N1_25  and  C20_28 
REMARK   11  A    between atoms: C20_28  and  C21_29 
REMARK   12  A    between atoms: C21_29  and  C22_30 
REMARK   13  A    between atoms: C23_31  and  C24_32 
REMARK   14  A    between atoms: C24_32  and  N2_34 
REMARK   15  A    between atoms: C28_41  and  O5_42 
ROOT
HETATM    1  C6  UNL     1      15.217  22.803  13.692  1.00  0.00     0.146 C 
HETATM    2  O1  UNL     1      15.390  23.059  15.074  1.00  0.00    -0.315 OA
HETATM    3  C7  UNL     1      15.686  24.276  15.646  1.00  0.00     0.259 C 
HETATM    4  O2  UNL     1      14.990  24.851  16.530  1.00  0.00    -0.265 OA
HETATM    5  C8  UNL     1      16.915  24.989  15.208  1.00  0.00     0.111 C 
HETATM    6  C9  UNL     1      18.021  24.516  16.081  1.00  0.00     0.014 C 
HETATM    7  C10 UNL     1      19.356  25.178  15.878  1.00  0.00    -0.017 C 
HETATM    8  C11 UNL     1      20.298  24.501  16.853  1.00  0.00     0.010 C 
HETATM    9  C12 UNL     1      19.826  25.282  14.481  1.00  0.00     0.020 C 
HETATM   10  C13 UNL     1      21.032  24.511  14.083  1.00  0.00     0.078 C 
HETATM   11  C26 UNL     1      20.880  23.647  12.885  1.00  0.00     0.137 C 
HETATM   12  O4  UNL     1      21.626  22.689  12.806  1.00  0.00    -0.297 OA
HETATM   13  C27 UNL     1      19.905  23.911  11.848  1.00  0.00     0.114 C 
HETATM   14  C28 UNL     1      18.701  22.997  11.775  1.00  0.00     0.147 C 
HETATM   15  C29 UNL     1      18.460  22.206  12.989  1.00  0.00     0.002 C 
HETATM   16  C30 UNL     1      17.402  21.679  13.525  1.00  0.00    -0.017 C 
HETATM   17  C31 UNL     1      15.972  21.628  13.175  1.00  0.00    -0.003 C 
HETATM   18  C32 UNL     1      15.685  21.458  11.706  1.00  0.00     0.021 C 
HETATM   19  C33 UNL     1      15.447  20.316  13.811  1.00  0.00     0.021 C 
ENDROOT
BRANCH  10  20
HETATM   20  C14 UNL     1      22.205  25.442  13.856  1.00  0.00    -0.016 C 
HETATM   21  C15 UNL     1      23.267  25.332  14.601  1.00  0.00     0.001 C 
BRANCH  21  22
HETATM   22  C16 UNL     1      24.469  26.236  14.422  1.00  0.00     0.145 C 
BRANCH  22  23
HETATM   23  O3  UNL     1      25.419  25.465  13.815  1.00  0.00    -0.391 OA
ATOM     24  H3  UNL     1      26.094  25.328  14.471  1.00  0.00     0.210 HD
ENDBRANCH  22  23
BRANCH  22  25
HETATM   25  C17 UNL     1      24.778  26.763  15.769  1.00  0.00     0.079 C 
BRANCH  25  26
HETATM   26  C18 UNL     1      23.718  27.173  16.680  1.00  0.00    -0.005 C 
HETATM   27 BR1  UNL     1      22.650  28.658  16.009  1.00  0.00    -0.059 Br
BRANCH  26  28
HETATM   28  C19 UNL     1      23.850  27.162  18.137  1.00  0.00     0.274 C 
BRANCH  28  29
HETATM   29  N1  UNL     1      22.698  27.579  18.873  1.00  0.00    -0.071 N 
ATOM     30  H12 UNL     1      22.898  28.304  19.562  1.00  0.00     0.277 HD
ATOM     31  H11 UNL     1      22.034  28.116  18.315  1.00  0.00     0.277 HD
BRANCH  29  32
HETATM   32  C20 UNL     1      22.102  26.325  19.475  1.00  0.00     0.236 C 
BRANCH  32  33
HETATM   33  C21 UNL     1      20.705  26.595  19.864  1.00  0.00     0.054 C 
BRANCH  33  34
HETATM   34  C22 UNL     1      19.863  25.453  20.194  1.00  0.00    -0.027 C 
HETATM   35  C23 UNL     1      18.456  25.507  20.526  1.00  0.00     0.001 C 
BRANCH  35  36
HETATM   36  C24 UNL     1      17.406  26.115  19.701  1.00  0.00     0.202 C 
HETATM   37  C25 UNL     1      16.142  25.178  19.834  1.00  0.00     0.044 C 
BRANCH  36  38
HETATM   38  N2  UNL     1      16.853  27.341  20.365  1.00  0.00    -0.072 N 
ATOM     39  H23 UNL     1      17.228  27.463  21.305  1.00  0.00     0.275 HD
ATOM     40  H22 UNL     1      17.217  28.196  19.943  1.00  0.00     0.275 HD
ATOM     41  H21 UNL     1      15.833  27.323  20.364  1.00  0.00     0.275 HD
ENDBRANCH  36  38
ENDBRANCH  35  36
ENDBRANCH  33  34
ENDBRANCH  32  33
ENDBRANCH  29  32
ENDBRANCH  28  29
ENDBRANCH  26  28
ENDBRANCH  25  26
ENDBRANCH  22  25
ENDBRANCH  21  22
ENDBRANCH  10  20
BRANCH  14  42
HETATM   42  O5  UNL     1      17.664  23.741  11.283  1.00  0.00    -0.391 OA
ATOM     43  H5  UNL     1      16.999  23.772  11.961  1.00  0.00     0.210 HD
ENDBRANCH  14  42
BRANCH   1  44
HETATM   44  C5  UNL     1      13.755  22.802  13.376  1.00  0.00     0.061 C 
BRANCH  44  45
HETATM   45  C4  UNL     1      13.204  24.018  12.766  1.00  0.00    -0.022 C 
HETATM   46  C2  UNL     1      12.441  24.123  11.704  1.00  0.00    -0.091 C 
HETATM   47  C1  UNL     1      11.998  22.969  10.916  1.00  0.00     0.042 C 
HETATM   48  C3  UNL     1      11.993  25.487  11.277  1.00  0.00     0.042 C 
ENDBRANCH  44  45
ENDBRANCH   1  44
TORSDOF 15
ENDMDL
MODEL 2
REMARK VINA RESULT: -7.148554299      1.450      2.096
REMARK  15 active torsions:
REMARK  status: ('A' for Active; 'I' for Inactive)
REMARK    1  A    between atoms: C4_4  and  C5_5 
REMARK    2  A    between atoms: C5_5  and  C6_6 
REMARK    3  A    between atoms: C13_15  and  C14_16 
REMARK    4  A    between atoms: C15_17  and  C16_18 
REMARK    5  A    between atoms: C16_18  and  O3_19 
REMARK    6  A    between atoms: C16_18  and  C17_21 
REMARK    7  A    between atoms: C17_21  and  C18_22 
REMARK    8  A    between atoms: C18_22  and  C19_24 
REMARK    9  A    between atoms: C19_24  and  N1_25 
REMARK   10  A    between atoms: N1_25  and  C20_28 
REMARK   11  A    between atoms: C20_28  and  C21_29 
REMARK   12  A    between atoms: C21_29  and  C22_30 
REMARK   13  A    between atoms: C23_31  and  C24_32 
REMARK   14  A    between atoms: C24_32  and  N2_34 
REMARK   15  A    between atoms: C28_41  and  O5_42 
ROOT
HETATM    1  C6  UNL     1      15.227  22.537  13.594  1.00  0.00     0.146 C 
HETATM    2  O1  UNL     1      15.382  22.669  14.995  1.00  0.00    -0.315 OA
HETATM    3  C7  UNL     1      15.624  23.838  15.681  1.00  0.00     0.259 C 
HETATM    4  O2  UNL     1      14.901  24.299  16.609  1.00  0.00    -0.265 OA
HETATM    5  C8  UNL     1      16.825  24.639  15.323  1.00  0.00     0.111 C 
HETATM    6  C9  UNL     1      17.945  24.131  16.158  1.00  0.00     0.014 C 
HETATM    7  C10 UNL     1      19.252  24.863  16.029  1.00  0.00    -0.017 C 
HETATM    8  C11 UNL     1      20.217  24.137  16.945  1.00  0.00     0.010 C 
HETATM    9  C12 UNL     1      19.725  25.117  14.653  1.00  0.00     0.020 C 
HETATM   10  C13 UNL     1      20.964  24.436  14.195  1.00  0.00     0.078 C 
HETATM   11  C26 UNL     1      20.854  23.683  12.921  1.00  0.00     0.137 C 
HETATM   12  O4  UNL     1      21.639  22.767  12.759  1.00  0.00    -0.297 OA
HETATM   13  C27 UNL     1      19.874  24.003  11.904  1.00  0.00     0.114 C 
HETATM   14  C28 UNL     1      18.710  23.051  11.735  1.00  0.00     0.147 C 
HETATM   15  C29 UNL     1      18.495  22.141  12.867  1.00  0.00     0.002 C 
HETATM   16  C30 UNL     1      17.457  21.524  13.343  1.00  0.00    -0.017 C 
HETATM   17  C31 UNL     1      16.032  21.447  12.976  1.00  0.00    -0.003 C 
HETATM   18  C32 UNL     1      15.761  21.405  11.495  1.00  0.00     0.021 C 
HETATM   19  C33 UNL     1      15.559  20.062  13.482  1.00  0.00     0.021 C 
ENDROOT
BRANCH  10  20
HETATM   20  C14 UNL     1      22.098  25.431  14.067  1.00  0.00    -0.016 C 
HETATM   21  C15 UNL     1      23.270  25.137  14.551  1.00  0.00     0.001 C 
BRANCH  21  22
HETATM   22  C16 UNL     1      24.441  26.092  14.455  1.00  0.00     0.145 C 
BRANCH  22  23
HETATM   23  O3  UNL     1      25.429  25.398  13.814  1.00  0.00    -0.391 OA
ATOM     24  H3  UNL     1      26.245  25.781  14.115  1.00  0.00     0.210 HD
ENDBRANCH  22  23
BRANCH  22  25
HETATM   25  C17 UNL     1      24.710  26.538  15.839  1.00  0.00     0.079 C 
BRANCH  25  26
HETATM   26  C18 UNL     1      25.140  27.901  16.123  1.00  0.00    -0.005 C 
HETATM   27 BR1  UNL     1      25.595  28.196  17.995  1.00  0.00    -0.059 Br
BRANCH  26  28
HETATM   28  C19 UNL     1      24.581  29.082  15.466  1.00  0.00     0.274 C 
BRANCH  28  29
HETATM   29  N1  UNL     1      23.164  29.084  15.283  1.00  0.00    -0.071 N 
ATOM     30  H12 UNL     1      22.875  29.401  14.357  1.00  0.00     0.277 HD
ATOM     31  H11 UNL     1      22.761  28.149  15.227  1.00  0.00     0.277 HD
BRANCH  29  32
HETATM   32  C20 UNL     1      22.591  29.918  16.409  1.00  0.00     0.236 C 
BRANCH  32  33
HETATM   33  C21 UNL     1      21.408  29.233  16.962  1.00  0.00     0.054 C 
BRANCH  33  34
HETATM   34  C22 UNL     1      21.424  27.777  16.996  1.00  0.00    -0.027 C 
HETATM   35  C23 UNL     1      21.875  26.963  18.103  1.00  0.00     0.001 C 
BRANCH  35  36
HETATM   36  C24 UNL     1      21.380  27.046  19.483  1.00  0.00     0.202 C 
HETATM   37  C25 UNL     1      19.809  26.925  19.396  1.00  0.00     0.044 C 
BRANCH  36  38
HETATM   38  N2  UNL     1      21.668  25.775  20.226  1.00  0.00    -0.072 N 
ATOM     39  H23 UNL     1      20.815  25.257  20.435  1.00  0.00     0.275 HD
ATOM     40  H22 UNL     1      22.125  25.084  19.631  1.00  0.00     0.275 HD
ATOM     41  H21 UNL     1      22.210  25.966  21.069  1.00  0.00     0.275 HD
ENDBRANCH  36  38
ENDBRANCH  35  36
ENDBRANCH  33  34
ENDBRANCH  32  33
ENDBRANCH  29  32
ENDBRANCH  28  29
ENDBRANCH  26  28
ENDBRANCH  25  26
ENDBRANCH  22  25
ENDBRANCH  21  22
ENDBRANCH  10  20
BRANCH  14  42
HETATM   42  O5  UNL     1      17.646  23.795  11.306  1.00  0.00    -0.391 OA
ATOM     43  H5  UNL     1      17.112  23.228  10.761  1.00  0.00     0.210 HD
ENDBRANCH  14  42
BRANCH   1  44
HETATM   44  C5  UNL     1      13.768  22.506  13.266  1.00  0.00     0.061 C 
BRANCH  44  45
HETATM   45  C4  UNL     1      13.192  23.719  12.673  1.00  0.00    -0.022 C 
HETATM   46  C2  UNL     1      12.374  23.817  11.652  1.00  0.00    -0.091 C 
HETATM   47  C1  UNL     1      11.882  22.658  10.902  1.00  0.00     0.042 C 
HETATM   48  C3  UNL     1      11.911  25.179  11.234  1.00  0.00     0.042 C 
ENDBRANCH  44  45
ENDBRANCH   1  44
TORSDOF 15
ENDMDL
MODEL 3
REMARK VINA RESULT: -7.121313886      1.796      3.226
REMARK  15 active torsions:
REMARK  status: ('A' for Active; 'I' for Inactive)
REMARK    1  A    between atoms: C4_4  and  C5_5 
REMARK    2  A    between atoms: C5_5  and  C6_6 
REMARK    3  A    between atoms: C13_15  and  C14_16 
REMARK    4  A    between atoms: C15_17  and  C16_18 
REMARK    5  A    between atoms: C16_18  and  O3_19 
REMARK    6  A    between atoms: C16_18  and  C17_21 
REMARK    7  A    between atoms: C17_21  and  C18_22 
REMARK    8  A    between atoms: C18_22  and  C19_24 
REMARK    9  A    between atoms: C19_24  and  N1_25 
REMARK   10  A    between atoms: N1_25  and  C20_28 
REMARK   11  A    between atoms: C20_28  and  C21_29 
REMARK   12  A    between atoms: C21_29  and  C22_30 
REMARK   13  A    between atoms: C23_31  and  C24_32 
REMARK   14  A    between atoms: C24_32  and  N2_34 
REMARK   15  A    between atoms: C28_41  and  O5_42 
ROOT
HETATM    1  C6  UNL     1      15.197  22.784  13.602  1.00  0.00     0.146 C 
HETATM    2  O1  UNL     1      15.351  23.024  14.989  1.00  0.00    -0.315 OA
HETATM    3  C7  UNL     1      15.635  24.234  15.581  1.00  0.00     0.259 C 
HETATM    4  O2  UNL     1      14.926  24.796  16.462  1.00  0.00    -0.265 OA
HETATM    5  C8  UNL     1      16.867  24.957  15.168  1.00  0.00     0.111 C 
HETATM    6  C9  UNL     1      17.963  24.476  16.050  1.00  0.00     0.014 C 
HETATM    7  C10 UNL     1      19.298  25.145  15.872  1.00  0.00    -0.017 C 
HETATM    8  C11 UNL     1      20.230  24.460  16.851  1.00  0.00     0.010 C 
HETATM    9  C12 UNL     1      19.787  25.268  14.483  1.00  0.00     0.020 C 
HETATM   10  C13 UNL     1      21.001  24.506  14.092  1.00  0.00     0.078 C 
HETATM   11  C26 UNL     1      20.868  23.656  12.882  1.00  0.00     0.137 C 
HETATM   12  O4  UNL     1      21.618  22.701  12.801  1.00  0.00    -0.297 OA
HETATM   13  C27 UNL     1      19.906  23.929  11.835  1.00  0.00     0.114 C 
HETATM   14  C28 UNL     1      18.706  23.012  11.734  1.00  0.00     0.147 C 
HETATM   15  C29 UNL     1      18.451  22.206  12.935  1.00  0.00     0.002 C 
HETATM   16  C30 UNL     1      17.388  21.670  13.451  1.00  0.00    -0.017 C 
HETATM   17  C31 UNL     1      15.963  21.618  13.081  1.00  0.00    -0.003 C 
HETATM   18  C32 UNL     1      15.696  21.465  11.606  1.00  0.00     0.021 C 
HETATM   19  C33 UNL     1      15.434  20.297  13.694  1.00  0.00     0.021 C 
ENDROOT
BRANCH  10  20
HETATM   20  C14 UNL     1      22.173  25.443  13.892  1.00  0.00    -0.016 C 
HETATM   21  C15 UNL     1      23.286  25.226  14.531  1.00  0.00     0.001 C 
BRANCH  21  22
HETATM   22  C16 UNL     1      24.491  26.130  14.373  1.00  0.00     0.145 C 
BRANCH  22  23
HETATM   23  O3  UNL     1      25.479  25.337  13.859  1.00  0.00    -0.391 OA
ATOM     24  H3  UNL     1      25.645  25.673  12.985  1.00  0.00     0.210 HD
ENDBRANCH  22  23
BRANCH  22  25
HETATM   25  C17 UNL     1      24.722  26.727  15.707  1.00  0.00     0.079 C 
BRANCH  25  26
HETATM   26  C18 UNL     1      24.466  28.139  15.956  1.00  0.00    -0.005 C 
HETATM   27 BR1  UNL     1      26.058  29.136  16.471  1.00  0.00    -0.059 Br
BRANCH  26  28
HETATM   28  C19 UNL     1      23.237  28.646  16.567  1.00  0.00     0.274 C 
BRANCH  28  29
HETATM   29  N1  UNL     1      22.274  27.660  16.944  1.00  0.00    -0.071 N 
ATOM     30  H12 UNL     1      21.367  27.786  16.496  1.00  0.00     0.277 HD
ATOM     31  H11 UNL     1      22.473  26.733  16.567  1.00  0.00     0.277 HD
BRANCH  29  32
HETATM   32  C20 UNL     1      22.206  27.690  18.456  1.00  0.00     0.236 C 
BRANCH  32  33
HETATM   33  C21 UNL     1      23.065  26.620  18.999  1.00  0.00     0.054 C 
BRANCH  33  34
HETATM   34  C22 UNL     1      24.045  26.989  20.011  1.00  0.00    -0.027 C 
HETATM   35  C23 UNL     1      25.326  26.351  20.219  1.00  0.00     0.001 C 
BRANCH  35  36
HETATM   36  C24 UNL     1      26.366  26.167  19.199  1.00  0.00     0.202 C 
HETATM   37  C25 UNL     1      27.470  27.255  19.494  1.00  0.00     0.044 C 
BRANCH  36  38
HETATM   38  N2  UNL     1      27.174  24.936  19.482  1.00  0.00    -0.072 N 
ATOM     39  H23 UNL     1      26.764  24.107  19.052  1.00  0.00     0.275 HD
ATOM     40  H22 UNL     1      28.063  24.944  18.982  1.00  0.00     0.275 HD
ATOM     41  H21 UNL     1      27.306  24.815  20.487  1.00  0.00     0.275 HD
ENDBRANCH  36  38
ENDBRANCH  35  36
ENDBRANCH  33  34
ENDBRANCH  32  33
ENDBRANCH  29  32
ENDBRANCH  28  29
ENDBRANCH  26  28
ENDBRANCH  25  26
ENDBRANCH  22  25
ENDBRANCH  21  22
ENDBRANCH  10  20
BRANCH  14  42
HETATM   42  O5  UNL     1      17.673  23.759  11.238  1.00  0.00    -0.391 OA
ATOM     43  H5  UNL     1      16.979  23.738  11.887  1.00  0.00     0.210 HD
ENDBRANCH  14  42
BRANCH   1  44
HETATM   44  C5  UNL     1      13.740  22.783  13.267  1.00  0.00     0.061 C 
BRANCH  44  45
HETATM   45  C4  UNL     1      13.197  23.996  12.645  1.00  0.00    -0.022 C 
HETATM   46  C2  UNL     1      12.396  24.094  11.611  1.00  0.00    -0.091 C 
HETATM   47  C1  UNL     1      11.892  22.932  10.872  1.00  0.00     0.042 C 
HETATM   48  C3  UNL     1      11.967  25.457  11.164  1.00  0.00     0.042 C 
ENDBRANCH  44  45
ENDBRANCH   1  44
TORSDOF 15
ENDMDL
MODEL 4
REMARK VINA RESULT: -7.066991844      2.082      2.904
REMARK  15 active torsions:
REMARK  status: ('A' for Active; 'I' for Inactive)
REMARK    1  A    between atoms: C4_4  and  C5_5 
REMARK    2  A    between atoms: C5_5  and  C6_6 
REMARK    3  A    between atoms: C13_15  and  C14_16 
REMARK    4  A    between atoms: C15_17  and  C16_18 
REMARK    5  A    between atoms: C16_18  and  O3_19 
REMARK    6  A    between atoms: C16_18  and  C17_21 
REMARK    7  A    between atoms: C17_21  and  C18_22 
REMARK    8  A    between atoms: C18_22  and  C19_24 
REMARK    9  A    between atoms: C19_24  and  N1_25 
REMARK   10  A    between atoms: N1_25  and  C20_28 
REMARK   11  A    between atoms: C20_28  and  C21_29 
REMARK   12  A    between atoms: C21_29  and  C22_30 
REMARK   13  A    between atoms: C23_31  and  C24_32 
REMARK   14  A    between atoms: C24_32  and  N2_34 
REMARK   15  A    between atoms: C28_41  and  O5_42 
ROOT
HETATM    1  C6  UNL     1      15.242  22.760  13.679  1.00  0.00     0.146 C 
HETATM    2  O1  UNL     1      15.412  23.002  15.063  1.00  0.00    -0.315 OA
HETATM    3  C7  UNL     1      15.696  24.215  15.650  1.00  0.00     0.259 C 
HETATM    4  O2  UNL     1      14.995  24.773  16.540  1.00  0.00    -0.265 OA
HETATM    5  C8  UNL     1      16.918  24.945  15.220  1.00  0.00     0.111 C 
HETATM    6  C9  UNL     1      18.029  24.473  16.088  1.00  0.00     0.014 C 
HETATM    7  C10 UNL     1      19.357  25.150  15.892  1.00  0.00    -0.017 C 
HETATM    8  C11 UNL     1      20.306  24.472  16.860  1.00  0.00     0.010 C 
HETATM    9  C12 UNL     1      19.826  25.275  14.497  1.00  0.00     0.020 C 
HETATM   10  C13 UNL     1      21.040  24.520  14.090  1.00  0.00     0.078 C 
HETATM   11  C26 UNL     1      20.897  23.669  12.883  1.00  0.00     0.137 C 
HETATM   12  O4  UNL     1      21.651  22.718  12.793  1.00  0.00    -0.297 OA
HETATM   13  C27 UNL     1      19.919  23.934  11.849  1.00  0.00     0.114 C 
HETATM   14  C28 UNL     1      18.724  23.009  11.765  1.00  0.00     0.147 C 
HETATM   15  C29 UNL     1      18.490  22.203  12.970  1.00  0.00     0.002 C 
HETATM   16  C30 UNL     1      17.437  21.660  13.500  1.00  0.00    -0.017 C 
HETATM   17  C31 UNL     1      16.008  21.598  13.149  1.00  0.00    -0.003 C 
HETATM   18  C32 UNL     1      15.723  21.442  11.678  1.00  0.00     0.021 C 
HETATM   19  C33 UNL     1      15.496  20.275  13.770  1.00  0.00     0.021 C 
ENDROOT
BRANCH  10  20
HETATM   20  C14 UNL     1      22.203  25.465  13.874  1.00  0.00    -0.016 C 
HETATM   21  C15 UNL     1      23.282  25.332  14.591  1.00  0.00     0.001 C 
BRANCH  21  22
HETATM   22  C16 UNL     1      24.476  26.247  14.421  1.00  0.00     0.145 C 
BRANCH  22  23
HETATM   23  O3  UNL     1      25.446  25.481  13.838  1.00  0.00    -0.391 OA
ATOM     24  H3  UNL     1      24.982  24.794  13.372  1.00  0.00     0.210 HD
ENDBRANCH  22  23
BRANCH  22  25
HETATM   25  C17 UNL     1      24.757  26.793  15.767  1.00  0.00     0.079 C 
BRANCH  25  26
HETATM   26  C18 UNL     1      23.866  27.763  16.389  1.00  0.00    -0.005 C 
HETATM   27 BR1  UNL     1      23.066  27.127  18.047  1.00  0.00    -0.059 Br
BRANCH  26  28
HETATM   28  C19 UNL     1      23.002  28.672  15.635  1.00  0.00     0.274 C 
BRANCH  28  29
HETATM   29  N1  UNL     1      21.622  28.671  16.003  1.00  0.00    -0.071 N 
ATOM     30  H12 UNL     1      21.347  27.852  16.545  1.00  0.00     0.277 HD
ATOM     31  H11 UNL     1      21.389  29.371  16.706  1.00  0.00     0.277 HD
BRANCH  29  32
HETATM   32  C20 UNL     1      20.839  28.828  14.716  1.00  0.00     0.236 C 
BRANCH  32  33
HETATM   33  C21 UNL     1      19.566  29.514  15.007  1.00  0.00     0.054 C 
BRANCH  33  34
HETATM   34  C22 UNL     1      18.412  28.686  15.331  1.00  0.00    -0.027 C 
HETATM   35  C23 UNL     1      17.228  28.530  14.515  1.00  0.00     0.001 C 
BRANCH  35  36
HETATM   36  C24 UNL     1      17.208  28.108  13.109  1.00  0.00     0.202 C 
HETATM   37  C25 UNL     1      15.793  27.451  12.866  1.00  0.00     0.044 C 
BRANCH  36  38
HETATM   38  N2  UNL     1      17.070  29.294  12.202  1.00  0.00    -0.072 N 
ATOM     39  H23 UNL     1      17.771  29.288  11.461  1.00  0.00     0.275 HD
ATOM     40  H22 UNL     1      16.234  29.230  11.620  1.00  0.00     0.275 HD
ATOM     41  H21 UNL     1      17.093  30.162  12.737  1.00  0.00     0.275 HD
ENDBRANCH  36  38
ENDBRANCH  35  36
ENDBRANCH  33  34
ENDBRANCH  32  33
ENDBRANCH  29  32
ENDBRANCH  28  29
ENDBRANCH  26  28
ENDBRANCH  25  26
ENDBRANCH  22  25
ENDBRANCH  21  22
ENDBRANCH  10  20
BRANCH  14  42
HETATM   42  O5  UNL     1      17.680  23.749  11.282  1.00  0.00    -0.391 OA
ATOM     43  H5  UNL     1      17.057  23.137  10.906  1.00  0.00     0.210 HD
ENDBRANCH  14  42
BRANCH   1  44
HETATM   44  C5  UNL     1      13.780  22.749  13.363  1.00  0.00     0.061 C 
BRANCH  44  45
HETATM   45  C4  UNL     1      13.209  23.980  12.805  1.00  0.00    -0.022 C 
HETATM   46  C2  UNL     1      12.445  24.118  11.748  1.00  0.00    -0.091 C 
HETATM   47  C1  UNL     1      12.022  22.992  10.910  1.00  0.00     0.042 C 
HETATM   48  C3  UNL     1      11.973  25.491  11.380  1.00  0.00     0.042 C 
ENDBRANCH  44  45
ENDBRANCH   1  44
TORSDOF 15
ENDMDL
MODEL 5
REMARK VINA RESULT: -7.048075210      2.771      5.486
REMARK  15 active torsions:
REMARK  status: ('A' for Active; 'I' for Inactive)
REMARK    1  A    between atoms: C4_4  and  C5_5 
REMARK    2  A    between atoms: C5_5  and  C6_6 
REMARK    3  A    between atoms: C13_15  and  C14_16 
REMARK    4  A    between atoms: C15_17  and  C16_18 
REMARK    5  A    between atoms: C16_18  and  O3_19 
REMARK    6  A    between atoms: C16_18  and  C17_21 
REMARK    7  A    between atoms: C17_21  and  C18_22 
REMARK    8  A    between atoms: C18_22  and  C19_24 
REMARK    9  A    between atoms: C19_24  and  N1_25 
REMARK   10  A    between atoms: N1_25  and  C20_28 
REMARK   11  A    between atoms: C20_28  and  C21_29 
REMARK   12  A    between atoms: C21_29  and  C22_30 
REMARK   13  A    between atoms: C23_31  and  C24_32 
REMARK   14  A    between atoms: C24_32  and  N2_34 
REMARK   15  A    between atoms: C28_41  and  O5_42 
ROOT
HETATM    1  C6  UNL     1      15.187  22.795  13.695  1.00  0.00     0.146 C 
HETATM    2  O1  UNL     1      15.354  23.081  15.072  1.00  0.00    -0.315 OA
HETATM    3  C7  UNL     1      15.646  24.310  15.619  1.00  0.00     0.259 C 
HETATM    4  O2  UNL     1      14.946  24.903  16.487  1.00  0.00    -0.265 OA
HETATM    5  C8  UNL     1      16.877  25.014  15.172  1.00  0.00     0.111 C 
HETATM    6  C9  UNL     1      17.979  24.560  16.060  1.00  0.00     0.014 C 
HETATM    7  C10 UNL     1      19.314  25.219  15.848  1.00  0.00    -0.017 C 
HETATM    8  C11 UNL     1      20.253  24.564  16.842  1.00  0.00     0.010 C 
HETATM    9  C12 UNL     1      19.791  25.294  14.452  1.00  0.00     0.020 C 
HETATM   10  C13 UNL     1      21.000  24.515  14.076  1.00  0.00     0.078 C 
HETATM   11  C26 UNL     1      20.854  23.626  12.897  1.00  0.00     0.137 C 
HETATM   12  O4  UNL     1      21.600  22.666  12.842  1.00  0.00    -0.297 OA
HETATM   13  C27 UNL     1      19.883  23.866  11.850  1.00  0.00     0.114 C 
HETATM   14  C28 UNL     1      18.680  22.950  11.790  1.00  0.00     0.147 C 
HETATM   15  C29 UNL     1      18.434  22.185  13.020  1.00  0.00     0.002 C 
HETATM   16  C30 UNL     1      17.374  21.669  13.563  1.00  0.00    -0.017 C 
HETATM   17  C31 UNL     1      15.946  21.609  13.207  1.00  0.00    -0.003 C 
HETATM   18  C32 UNL     1      15.666  21.408  11.740  1.00  0.00     0.021 C 
HETATM   19  C33 UNL     1      15.419  20.311  13.869  1.00  0.00     0.021 C 
ENDROOT
BRANCH  10  20
HETATM   20  C14 UNL     1      22.173  25.442  13.835  1.00  0.00    -0.016 C 
HETATM   21  C15 UNL     1      23.302  25.222  14.443  1.00  0.00     0.001 C 
BRANCH  21  22
HETATM   22  C16 UNL     1      24.509  26.115  14.243  1.00  0.00     0.145 C 
BRANCH  22  23
HETATM   23  O3  UNL     1      25.507  25.290  13.806  1.00  0.00    -0.391 OA
ATOM     24  H3  UNL     1      26.004  25.803  13.179  1.00  0.00     0.210 HD
ENDBRANCH  22  23
BRANCH  22  25
HETATM   25  C17 UNL     1      24.713  26.807  15.534  1.00  0.00     0.079 C 
BRANCH  25  26
HETATM   26  C18 UNL     1      24.005  28.040  15.849  1.00  0.00    -0.005 C 
HETATM   27 BR1  UNL     1      22.594  27.807  17.173  1.00  0.00    -0.059 Br
BRANCH  26  28
HETATM   28  C19 UNL     1      23.717  29.085  14.867  1.00  0.00     0.274 C 
BRANCH  28  29
HETATM   29  N1  UNL     1      24.839  29.584  14.137  1.00  0.00    -0.071 N 
ATOM     30  H12 UNL     1      25.191  30.473  14.492  1.00  0.00     0.277 HD
ATOM     31  H11 UNL     1      25.691  29.043  14.284  1.00  0.00     0.277 HD
BRANCH  29  32
HETATM   32  C20 UNL     1      24.409  29.645  12.686  1.00  0.00     0.236 C 
BRANCH  32  33
HETATM   33  C21 UNL     1      25.332  28.828  11.876  1.00  0.00     0.054 C 
BRANCH  33  34
HETATM   34  C22 UNL     1      26.585  28.413  12.492  1.00  0.00    -0.027 C 
HETATM   35  C23 UNL     1      27.823  28.145  11.792  1.00  0.00     0.001 C 
BRANCH  35  36
HETATM   36  C24 UNL     1      28.510  29.072  10.884  1.00  0.00     0.202 C 
HETATM   37  C25 UNL     1      29.811  29.548  11.641  1.00  0.00     0.044 C 
BRANCH  36  38
HETATM   38  N2  UNL     1      29.160  28.325   9.758  1.00  0.00    -0.072 N 
ATOM     39  H23 UNL     1      28.658  27.466   9.534  1.00  0.00     0.275 HD
ATOM     40  H22 UNL     1      29.042  28.807   8.866  1.00  0.00     0.275 HD
ATOM     41  H21 UNL     1      30.143  28.146   9.964  1.00  0.00     0.275 HD
ENDBRANCH  36  38
ENDBRANCH  35  36
ENDBRANCH  33  34
ENDBRANCH  32  33
ENDBRANCH  29  32
ENDBRANCH  28  29
ENDBRANCH  26  28
ENDBRANCH  25  26
ENDBRANCH  22  25
ENDBRANCH  21  22
ENDBRANCH  10  20
BRANCH  14  42
HETATM   42  O5  UNL     1      17.645  23.682  11.278  1.00  0.00    -0.391 OA
ATOM     43  H5  UNL     1      17.604  23.492  10.348  1.00  0.00     0.210 HD
ENDBRANCH  14  42
BRANCH   1  44
HETATM   44  C5  UNL     1      13.727  22.786  13.372  1.00  0.00     0.061 C 
BRANCH  44  45
HETATM   45  C4  UNL     1      13.184  23.975  12.705  1.00  0.00    -0.022 C 
HETATM   46  C2  UNL     1      12.427  24.036  11.637  1.00  0.00    -0.091 C 
HETATM   47  C1  UNL     1      11.981  22.849  10.899  1.00  0.00     0.042 C 
HETATM   48  C3  UNL     1      11.987  25.380  11.145  1.00  0.00     0.042 C 
ENDBRANCH  44  45
ENDBRANCH   1  44
TORSDOF 15
ENDMDL
