MODEL 1
REMARK VINA RESULT: -7.736752829      0.000      0.000
REMARK  16 active torsions:
REMARK  status: ('A' for Active; 'I' for Inactive)
REMARK    1  A    between atoms: C2_2  and  C3_3 
REMARK    2  A    between atoms: C3_3  and  O2_5 
REMARK    3  A    between atoms: O2_5  and  C4_6 
REMARK    4  A    between atoms: C6_8  and  N1_9 
REMARK    5  A    between atoms: N1_9  and  C7_11 
REMARK    6  A    between atoms: C7_11  and  C8_12 
REMARK    7  A    between atoms: C7_11  and  C9_14 
REMARK       I    between atoms: C9_14  and  N2_16 
REMARK       I    between atoms: N2_16  and  C10_18 
REMARK    8  A    between atoms: C10_18  and  C11_20 
REMARK    9  A    between atoms: C11_20  and  N3_21 
REMARK   10  A    between atoms: C11_20  and  C15_26 
REMARK   11  A    between atoms: N3_21  and  C12_23 
REMARK   12  A    between atoms: C18_29  and  C19_30 
REMARK   13  A    between atoms: C21_32  and  C22_33 
REMARK   14  A    between atoms: C22_33  and  C23_34 
REMARK   15  A    between atoms: C23_34  and  C24_35 
REMARK   16  A    between atoms: C32_45  and  O7_46 
ROOT
HETATM    1  C4  UNL     1      16.938  22.034  12.373  1.00  0.00     0.138 C 
HETATM    2  C5  UNL     1      15.967  22.499  13.474  1.00  0.00     0.058 C 
HETATM    3  C6  UNL     1      16.345  23.961  13.615  1.00  0.00     0.088 C 
HETATM    4  C18 UNL     1      17.878  23.916  13.435  1.00  0.00     0.050 C 
HETATM    5  C33 UNL     1      18.231  22.593  13.006  1.00  0.00     0.022 C 
HETATM    6  C34 UNL     1      19.227  22.529  11.846  1.00  0.00     0.013 C 
ENDROOT
BRANCH   3   7
HETATM    7  N1  UNL     1      15.712  24.799  12.739  1.00  0.00    -0.403 N 
ATOM      8  H1  UNL     1      15.235  24.340  11.962  1.00  0.00     0.154 HD
BRANCH   7   9
HETATM    9  C7  UNL     1      15.626  26.164  12.756  1.00  0.00     0.184 C 
BRANCH   9  10
HETATM   10  C8  UNL     1      15.646  26.937  14.027  1.00  0.00     0.149 C 
HETATM   11 CL1  UNL     1      17.101  27.982  14.139  1.00  0.00    -0.128 Cl
ENDBRANCH   9  10
BRANCH   9  12
HETATM   12  C9  UNL     1      14.285  26.566  12.096  1.00  0.00     0.247 C 
HETATM   13  O3  UNL     1      13.995  27.781  12.038  1.00  0.00    -0.271 OA
HETATM   14  N2  UNL     1      13.492  25.525  11.609  1.00  0.00    -0.294 N 
HETATM   15  C10 UNL     1      12.306  25.601  10.876  1.00  0.00     0.247 C 
ATOM     16  H2  UNL     1      13.824  24.583  11.815  1.00  0.00     0.171 HD
HETATM   17  O4  UNL     1      11.628  24.553  10.582  1.00  0.00    -0.271 OA
BRANCH  15  18
HETATM   18  C11 UNL     1      11.747  26.875  10.374  1.00  0.00     0.173 C 
BRANCH  18  19
HETATM   19  N3  UNL     1      10.366  26.745   9.914  1.00  0.00    -0.406 N 
ATOM     20  H3  UNL     1      10.083  26.047   9.225  1.00  0.00     0.154 HD
BRANCH  19  21
HETATM   21  C12 UNL     1       9.444  27.657  10.492  1.00  0.00     0.069 C 
HETATM   22  C13 UNL     1       8.223  27.896   9.615  1.00  0.00     0.031 C 
HETATM   23  C14 UNL     1       8.919  26.977  11.769  1.00  0.00     0.031 C 
ENDBRANCH  19  21
ENDBRANCH  18  19
BRANCH  18  24
HETATM   24  C15 UNL     1      12.515  27.124   9.048  1.00  0.00     0.009 C 
HETATM   25  C16 UNL     1      11.599  26.578   7.943  1.00  0.00     0.012 C 
HETATM   26  C17 UNL     1      12.726  28.580   8.783  1.00  0.00     0.012 C 
ENDBRANCH  18  24
ENDBRANCH  15  18
ENDBRANCH   9  12
ENDBRANCH   7   9
ENDBRANCH   3   7
BRANCH   4  27
HETATM   27  C19 UNL     1      18.558  24.661  14.476  1.00  0.00    -0.018 A 
HETATM   28  C20 UNL     1      18.004  24.641  15.741  1.00  0.00     0.018 A 
HETATM   29  C21 UNL     1      18.532  25.368  16.824  1.00  0.00    -0.050 A 
HETATM   30  C29 UNL     1      19.652  26.146  16.635  1.00  0.00    -0.053 A 
HETATM   31  C30 UNL     1      20.270  27.010  17.692  1.00  0.00     0.049 C 
HETATM   32  C31 UNL     1      20.215  26.174  15.372  1.00  0.00     0.044 A 
HETATM   33  C32 UNL     1      19.667  25.438  14.315  1.00  0.00     0.072 A 
BRANCH  29  34
HETATM   34  C22 UNL     1      17.948  25.269  18.160  1.00  0.00     0.059 C 
BRANCH  34  35
HETATM   35  C23 UNL     1      16.676  26.013  18.402  1.00  0.00     0.052 C 
HETATM   36  C25 UNL     1      16.448  27.246  17.611  1.00  0.00     0.021 C 
HETATM   37  C26 UNL     1      15.385  28.012  18.418  1.00  0.00     0.001 C 
HETATM   38  C27 UNL     1      15.442  27.476  19.806  1.00  0.00     0.001 C 
HETATM   39  C28 UNL     1      16.657  26.595  19.833  1.00  0.00     0.021 C 
BRANCH  35  40
HETATM   40  C24 UNL     1      15.525  25.075  18.340  1.00  0.00     0.182 C 
HETATM   41  O5  UNL     1      15.367  24.243  19.263  1.00  0.00    -0.647 OA
HETATM   42  O6  UNL     1      14.618  25.102  17.270  1.00  0.00    -0.647 OA
ENDBRANCH  35  40
ENDBRANCH  34  35
ENDBRANCH  29  34
BRANCH  33  43
HETATM   43  O7  UNL     1      20.257  25.494  13.083  1.00  0.00    -0.360 OA
ATOM     44  H7  UNL     1      20.229  24.724  12.528  1.00  0.00     0.217 HD
ENDBRANCH  33  43
ENDBRANCH   4  27
BRANCH   1  45
HETATM   45  O2  UNL     1      17.028  20.651  12.340  1.00  0.00    -0.312 OA
BRANCH  45  46
HETATM   46  C3  UNL     1      15.846  19.868  12.295  1.00  0.00     0.282 C 
HETATM   47  O1  UNL     1      15.033  20.187  11.379  1.00  0.00    -0.260 OA
BRANCH  46  48
HETATM   48  C2  UNL     1      15.596  18.792  13.224  1.00  0.00     0.072 C 
HETATM   49  C1  UNL     1      15.650  18.986  14.525  1.00  0.00     0.017 C 
ENDBRANCH  46  48
ENDBRANCH  45  46
ENDBRANCH   1  45
TORSDOF 16
ENDMDL
MODEL 2
REMARK VINA RESULT: -7.689262795      1.503      1.910
REMARK  16 active torsions:
REMARK  status: ('A' for Active; 'I' for Inactive)
REMARK    1  A    between atoms: C2_2  and  C3_3 
REMARK    2  A    between atoms: C3_3  and  O2_5 
REMARK    3  A    between atoms: O2_5  and  C4_6 
REMARK    4  A    between atoms: C6_8  and  N1_9 
REMARK    5  A    between atoms: N1_9  and  C7_11 
REMARK    6  A    between atoms: C7_11  and  C8_12 
REMARK    7  A    between atoms: C7_11  and  C9_14 
REMARK       I    between atoms: C9_14  and  N2_16 
REMARK       I    between atoms: N2_16  and  C10_18 
REMARK    8  A    between atoms: C10_18  and  C11_20 
REMARK    9  A    between atoms: C11_20  and  N3_21 
REMARK   10  A    between atoms: C11_20  and  C15_26 
REMARK   11  A    between atoms: N3_21  and  C12_23 
REMARK   12  A    between atoms: C18_29  and  C19_30 
REMARK   13  A    between atoms: C21_32  and  C22_33 
REMARK   14  A    between atoms: C22_33  and  C23_34 
REMARK   15  A    between atoms: C23_34  and  C24_35 
REMARK   16  A    between atoms: C32_45  and  O7_46 
ROOT
HETATM    1  C4  UNL     1      16.761  22.006  12.384  1.00  0.00     0.138 C 
HETATM    2  C5  UNL     1      16.217  22.430  13.760  1.00  0.00     0.058 C 
HETATM    3  C6  UNL     1      16.536  23.912  13.771  1.00  0.00     0.088 C 
HETATM    4  C18 UNL     1      17.907  23.950  13.060  1.00  0.00     0.050 C 
HETATM    5  C33 UNL     1      18.160  22.643  12.524  1.00  0.00     0.022 C 
HETATM    6  C34 UNL     1      18.684  22.621  11.086  1.00  0.00     0.013 C 
ENDROOT
BRANCH   3   7
HETATM    7  N1  UNL     1      15.588  24.702  13.181  1.00  0.00    -0.403 N 
ATOM      8  H1  UNL     1      14.699  24.244  12.983  1.00  0.00     0.154 HD
BRANCH   7   9
HETATM    9  C7  UNL     1      15.662  26.020  12.820  1.00  0.00     0.184 C 
BRANCH   9  10
HETATM   10  C8  UNL     1      15.911  27.095  13.818  1.00  0.00     0.149 C 
HETATM   11 CL1  UNL     1      15.942  26.446  15.491  1.00  0.00    -0.128 Cl
ENDBRANCH   9  10
BRANCH   9  12
HETATM   12  C9  UNL     1      14.312  26.415  12.175  1.00  0.00     0.247 C 
HETATM   13  O3  UNL     1      14.038  27.631  12.074  1.00  0.00    -0.271 OA
HETATM   14  N2  UNL     1      13.494  25.367  11.749  1.00  0.00    -0.294 N 
HETATM   15  C10 UNL     1      12.292  25.430  11.041  1.00  0.00     0.247 C 
ATOM     16  H2  UNL     1      13.817  24.429  11.987  1.00  0.00     0.171 HD
HETATM   17  O4  UNL     1      11.593  24.382  10.807  1.00  0.00    -0.271 OA
BRANCH  15  18
HETATM   18  C11 UNL     1      11.740  26.691  10.500  1.00  0.00     0.173 C 
BRANCH  18  19
HETATM   19  N3  UNL     1      10.347  26.562  10.075  1.00  0.00    -0.406 N 
ATOM     20  H3  UNL     1      10.025  25.794   9.486  1.00  0.00     0.154 HD
BRANCH  19  21
HETATM   21  C12 UNL     1       9.473  27.580  10.539  1.00  0.00     0.069 C 
HETATM   22  C13 UNL     1       8.345  27.879   9.561  1.00  0.00     0.031 C 
HETATM   23  C14 UNL     1       8.798  27.016  11.802  1.00  0.00     0.031 C 
ENDBRANCH  19  21
ENDBRANCH  18  19
BRANCH  18  24
HETATM   24  C15 UNL     1      12.482  26.876   9.150  1.00  0.00     0.009 C 
HETATM   25  C16 UNL     1      11.558  26.252   8.093  1.00  0.00     0.012 C 
HETATM   26  C17 UNL     1      12.664  28.317   8.798  1.00  0.00     0.012 C 
ENDBRANCH  18  24
ENDBRANCH  15  18
ENDBRANCH   9  12
ENDBRANCH   7   9
ENDBRANCH   3   7
BRANCH   4  27
HETATM   27  C19 UNL     1      18.867  24.746  13.800  1.00  0.00    -0.018 A 
HETATM   28  C20 UNL     1      19.127  24.380  15.106  1.00  0.00     0.018 A 
HETATM   29  C21 UNL     1      19.993  25.101  15.950  1.00  0.00    -0.050 A 
HETATM   30  C29 UNL     1      20.618  26.231  15.471  1.00  0.00    -0.053 A 
HETATM   31  C30 UNL     1      21.512  27.113  16.288  1.00  0.00     0.049 C 
HETATM   32  C31 UNL     1      20.365  26.606  14.164  1.00  0.00     0.044 A 
HETATM   33  C32 UNL     1      19.500  25.866  13.350  1.00  0.00     0.072 A 
BRANCH  29  34
HETATM   34  C22 UNL     1      20.285  24.643  17.306  1.00  0.00     0.059 C 
BRANCH  34  35
HETATM   35  C23 UNL     1      19.202  24.797  18.323  1.00  0.00     0.052 C 
HETATM   36  C25 UNL     1      18.049  23.870  18.234  1.00  0.00     0.021 C 
HETATM   37  C26 UNL     1      16.939  24.583  19.026  1.00  0.00     0.001 C 
HETATM   38  C27 UNL     1      17.314  26.024  19.075  1.00  0.00     0.001 C 
HETATM   39  C28 UNL     1      18.482  26.153  18.141  1.00  0.00     0.021 C 
BRANCH  35  40
HETATM   40  C24 UNL     1      19.794  24.842  19.685  1.00  0.00     0.182 C 
HETATM   41  O5  UNL     1      19.816  23.797  20.374  1.00  0.00    -0.647 OA
HETATM   42  O6  UNL     1      20.322  26.030  20.213  1.00  0.00    -0.647 OA
ENDBRANCH  35  40
ENDBRANCH  34  35
ENDBRANCH  29  34
BRANCH  33  43
HETATM   43  O7  UNL     1      19.279  26.273  12.063  1.00  0.00    -0.360 OA
ATOM     44  H7  UNL     1      19.858  26.926  11.685  1.00  0.00     0.217 HD
ENDBRANCH  33  43
ENDBRANCH   4  27
BRANCH   1  45
HETATM   45  O2  UNL     1      16.912  20.630  12.311  1.00  0.00    -0.312 OA
BRANCH  45  46
HETATM   46  C3  UNL     1      15.765  19.795  12.273  1.00  0.00     0.282 C 
HETATM   47  O1  UNL     1      14.875  20.154  11.448  1.00  0.00    -0.260 OA
BRANCH  46  48
HETATM   48  C2  UNL     1      15.632  18.628  13.112  1.00  0.00     0.072 C 
HETATM   49  C1  UNL     1      15.896  18.680  14.401  1.00  0.00     0.017 C 
ENDBRANCH  46  48
ENDBRANCH  45  46
ENDBRANCH   1  45
TORSDOF 16
ENDMDL
MODEL 3
REMARK VINA RESULT: -7.643026973      1.837      2.455
REMARK  16 active torsions:
REMARK  status: ('A' for Active; 'I' for Inactive)
REMARK    1  A    between atoms: C2_2  and  C3_3 
REMARK    2  A    between atoms: C3_3  and  O2_5 
REMARK    3  A    between atoms: O2_5  and  C4_6 
REMARK    4  A    between atoms: C6_8  and  N1_9 
REMARK    5  A    between atoms: N1_9  and  C7_11 
REMARK    6  A    between atoms: C7_11  and  C8_12 
REMARK    7  A    between atoms: C7_11  and  C9_14 
REMARK       I    between atoms: C9_14  and  N2_16 
REMARK       I    between atoms: N2_16  and  C10_18 
REMARK    8  A    between atoms: C10_18  and  C11_20 
REMARK    9  A    between atoms: C11_20  and  N3_21 
REMARK   10  A    between atoms: C11_20  and  C15_26 
REMARK   11  A    between atoms: N3_21  and  C12_23 
REMARK   12  A    between atoms: C18_29  and  C19_30 
REMARK   13  A    between atoms: C21_32  and  C22_33 
REMARK   14  A    between atoms: C22_33  and  C23_34 
REMARK   15  A    between atoms: C23_34  and  C24_35 
REMARK   16  A    between atoms: C32_45  and  O7_46 
ROOT
HETATM    1  C4  UNL     1      16.349  22.231  13.027  1.00  0.00     0.138 C 
HETATM    2  C5  UNL     1      15.830  23.170  14.131  1.00  0.00     0.058 C 
HETATM    3  C6  UNL     1      16.379  24.508  13.677  1.00  0.00     0.088 C 
HETATM    4  C18 UNL     1      17.763  24.114  13.117  1.00  0.00     0.050 C 
HETATM    5  C33 UNL     1      17.826  22.681  13.069  1.00  0.00     0.022 C 
HETATM    6  C34 UNL     1      18.391  22.097  11.772  1.00  0.00     0.013 C 
ENDROOT
BRANCH   3   7
HETATM    7  N1  UNL     1      15.590  25.171  12.779  1.00  0.00    -0.403 N 
ATOM      8  H1  UNL     1      14.878  24.603  12.319  1.00  0.00     0.154 HD
BRANCH   7   9
HETATM    9  C7  UNL     1      15.618  26.488  12.409  1.00  0.00     0.184 C 
BRANCH   9  10
HETATM   10  C8  UNL     1      15.864  27.576  13.393  1.00  0.00     0.149 C 
HETATM   11 CL1  UNL     1      17.467  28.342  13.140  1.00  0.00    -0.128 Cl
ENDBRANCH   9  10
BRANCH   9  12
HETATM   12  C9  UNL     1      14.240  26.842  11.798  1.00  0.00     0.247 C 
HETATM   13  O3  UNL     1      13.926  28.049  11.708  1.00  0.00    -0.271 OA
HETATM   14  N2  UNL     1      13.445  25.769  11.390  1.00  0.00    -0.294 N 
HETATM   15  C10 UNL     1      12.224  25.797  10.712  1.00  0.00     0.247 C 
ATOM     16  H2  UNL     1      13.803  24.842  11.616  1.00  0.00     0.171 HD
HETATM   17  O4  UNL     1      11.553  24.728  10.492  1.00  0.00    -0.271 OA
BRANCH  15  18
HETATM   18  C11 UNL     1      11.620  27.041  10.189  1.00  0.00     0.173 C 
BRANCH  18  19
HETATM   19  N3  UNL     1      10.214  26.876   9.823  1.00  0.00    -0.406 N 
ATOM     20  H3  UNL     1       9.905  26.179   9.145  1.00  0.00     0.154 HD
BRANCH  19  21
HETATM   21  C12 UNL     1       9.309  27.754  10.476  1.00  0.00     0.069 C 
HETATM   22  C13 UNL     1       8.042  28.002   9.668  1.00  0.00     0.031 C 
HETATM   23  C14 UNL     1       8.858  27.024  11.753  1.00  0.00     0.031 C 
ENDBRANCH  19  21
ENDBRANCH  18  19
BRANCH  18  24
HETATM   24  C15 UNL     1      12.300  27.236   8.808  1.00  0.00     0.009 C 
HETATM   25  C16 UNL     1      11.254  26.789   7.775  1.00  0.00     0.012 C 
HETATM   26  C17 UNL     1      12.623  28.669   8.534  1.00  0.00     0.012 C 
ENDBRANCH  18  24
ENDBRANCH  15  18
ENDBRANCH   9  12
ENDBRANCH   7   9
ENDBRANCH   3   7
BRANCH   4  27
HETATM   27  C19 UNL     1      18.810  24.975  13.631  1.00  0.00    -0.018 A 
HETATM   28  C20 UNL     1      18.671  25.448  14.921  1.00  0.00     0.018 A 
HETATM   29  C21 UNL     1      19.585  26.337  15.518  1.00  0.00    -0.050 A 
HETATM   30  C29 UNL     1      20.675  26.770  14.797  1.00  0.00    -0.053 A 
HETATM   31  C30 UNL     1      21.683  27.758  15.301  1.00  0.00     0.049 C 
HETATM   32  C31 UNL     1      20.825  26.302  13.504  1.00  0.00     0.044 A 
HETATM   33  C32 UNL     1      19.899  25.418  12.940  1.00  0.00     0.072 A 
BRANCH  29  34
HETATM   34  C22 UNL     1      19.430  26.763  16.906  1.00  0.00     0.059 C 
BRANCH  34  35
HETATM   35  C23 UNL     1      19.814  25.782  17.964  1.00  0.00     0.052 C 
HETATM   36  C25 UNL     1      20.353  24.475  17.518  1.00  0.00     0.021 C 
HETATM   37  C26 UNL     1      20.159  23.558  18.738  1.00  0.00     0.001 C 
HETATM   38  C27 UNL     1      19.107  24.191  19.580  1.00  0.00     0.001 C 
HETATM   39  C28 UNL     1      18.564  25.313  18.743  1.00  0.00     0.021 C 
BRANCH  35  40
HETATM   40  C24 UNL     1      20.683  26.442  18.972  1.00  0.00     0.182 C 
HETATM   41  O5  UNL     1      20.170  27.236  19.793  1.00  0.00    -0.647 OA
HETATM   42  O6  UNL     1      22.065  26.197  19.017  1.00  0.00    -0.647 OA
ENDBRANCH  35  40
ENDBRANCH  34  35
ENDBRANCH  29  34
BRANCH  33  43
HETATM   43  O7  UNL     1      20.087  24.980  11.658  1.00  0.00    -0.360 OA
ATOM     44  H7  UNL     1      19.386  25.100  11.027  1.00  0.00     0.217 HD
ENDBRANCH  33  43
ENDBRANCH   4  27
BRANCH   1  45
HETATM   45  O2  UNL     1      16.283  20.906  13.428  1.00  0.00    -0.312 OA
BRANCH  45  46
HETATM   46  C3  UNL     1      15.648  19.947  12.597  1.00  0.00     0.282 C 
HETATM   47  O1  UNL     1      15.110  20.423  11.555  1.00  0.00    -0.260 OA
BRANCH  46  48
HETATM   48  C2  UNL     1      15.623  18.541  12.920  1.00  0.00     0.072 C 
HETATM   49  C1  UNL     1      15.234  18.119  14.105  1.00  0.00     0.017 C 
ENDBRANCH  46  48
ENDBRANCH  45  46
ENDBRANCH   1  45
TORSDOF 16
ENDMDL
MODEL 4
REMARK VINA RESULT: -7.422092622      2.019      2.853
REMARK  16 active torsions:
REMARK  status: ('A' for Active; 'I' for Inactive)
REMARK    1  A    between atoms: C2_2  and  C3_3 
REMARK    2  A    between atoms: C3_3  and  O2_5 
REMARK    3  A    between atoms: O2_5  and  C4_6 
REMARK    4  A    between atoms: C6_8  and  N1_9 
REMARK    5  A    between atoms: N1_9  and  C7_11 
REMARK    6  A    between atoms: C7_11  and  C8_12 
REMARK    7  A    between atoms: C7_11  and  C9_14 
REMARK       I    between atoms: C9_14  and  N2_16 
REMARK       I    between atoms: N2_16  and  C10_18 
REMARK    8  A    between atoms: C10_18  and  C11_20 
REMARK    9  A    between atoms: C11_20  and  N3_21 
REMARK   10  A    between atoms: C11_20  and  C15_26 
REMARK   11  A    between atoms: N3_21  and  C12_23 
REMARK   12  A    between atoms: C18_29  and  C19_30 
REMARK   13  A    between atoms: C21_32  and  C22_33 
REMARK   14  A    between atoms: C22_33  and  C23_34 
REMARK   15  A    between atoms: C23_34  and  C24_35 
REMARK   16  A    between atoms: C32_45  and  O7_46 
ROOT
HETATM    1  C4  UNL     1      16.598  22.395  12.848  1.00  0.00     0.138 C 
HETATM    2  C5  UNL     1      16.089  23.291  13.992  1.00  0.00     0.058 C 
HETATM    3  C6  UNL     1      16.660  24.639  13.600  1.00  0.00     0.088 C 
HETATM    4  C18 UNL     1      18.040  24.249  13.027  1.00  0.00     0.050 C 
HETATM    5  C33 UNL     1      18.081  22.819  12.915  1.00  0.00     0.022 C 
HETATM    6  C34 UNL     1      18.642  22.285  11.595  1.00  0.00     0.013 C 
ENDROOT
BRANCH   3   7
HETATM    7  N1  UNL     1      15.885  25.354  12.729  1.00  0.00    -0.403 N 
ATOM      8  H1  UNL     1      15.075  24.859  12.357  1.00  0.00     0.154 HD
BRANCH   7   9
HETATM    9  C7  UNL     1      16.040  26.639  12.287  1.00  0.00     0.184 C 
BRANCH   9  10
HETATM   10  C8  UNL     1      16.162  27.785  13.227  1.00  0.00     0.149 C 
HETATM   11 CL1  UNL     1      17.804  28.508  13.175  1.00  0.00    -0.128 Cl
ENDBRANCH   9  10
BRANCH   9  12
HETATM   12  C9  UNL     1      14.809  26.998  11.420  1.00  0.00     0.247 C 
HETATM   13  O3  UNL     1      14.916  27.938  10.601  1.00  0.00    -0.271 OA
HETATM   14  N2  UNL     1      13.659  26.232  11.621  1.00  0.00    -0.294 N 
HETATM   15  C10 UNL     1      12.457  26.258  10.911  1.00  0.00     0.247 C 
ATOM     16  H2  UNL     1      13.703  25.564  12.391  1.00  0.00     0.171 HD
HETATM   17  O4  UNL     1      11.444  25.565  11.278  1.00  0.00    -0.271 OA
BRANCH  15  18
HETATM   18  C11 UNL     1      12.260  27.067   9.688  1.00  0.00     0.173 C 
BRANCH  18  19
HETATM   19  N3  UNL     1      11.575  28.331   9.951  1.00  0.00    -0.406 N 
ATOM     20  H3  UNL     1      10.584  28.375  10.190  1.00  0.00     0.154 HD
BRANCH  19  21
HETATM   21  C12 UNL     1      12.384  29.494   9.850  1.00  0.00     0.069 C 
HETATM   22  C13 UNL     1      12.902  29.730   8.438  1.00  0.00     0.031 C 
HETATM   23  C14 UNL     1      11.458  30.682  10.164  1.00  0.00     0.031 C 
ENDBRANCH  19  21
ENDBRANCH  18  19
BRANCH  18  24
HETATM   24  C15 UNL     1      11.196  26.274   8.883  1.00  0.00     0.009 C 
HETATM   25  C16 UNL     1       9.938  27.155   8.901  1.00  0.00     0.012 C 
HETATM   26  C17 UNL     1      11.595  26.083   7.456  1.00  0.00     0.012 C 
ENDBRANCH  18  24
ENDBRANCH  15  18
ENDBRANCH   9  12
ENDBRANCH   7   9
ENDBRANCH   3   7
BRANCH   4  27
HETATM   27  C19 UNL     1      19.098  25.070  13.583  1.00  0.00    -0.018 A 
HETATM   28  C20 UNL     1      18.934  25.535  14.873  1.00  0.00     0.018 A 
HETATM   29  C21 UNL     1      19.857  26.388  15.507  1.00  0.00    -0.050 A 
HETATM   30  C29 UNL     1      20.984  26.790  14.826  1.00  0.00    -0.053 A 
HETATM   31  C30 UNL     1      22.007  27.740  15.371  1.00  0.00     0.049 C 
HETATM   32  C31 UNL     1      21.159  26.329  13.534  1.00  0.00     0.044 A 
HETATM   33  C32 UNL     1      20.223  25.482  12.931  1.00  0.00     0.072 A 
BRANCH  29  34
HETATM   34  C22 UNL     1      19.672  26.807  16.894  1.00  0.00     0.059 C 
BRANCH  34  35
HETATM   35  C23 UNL     1      19.927  25.784  17.952  1.00  0.00     0.052 C 
HETATM   36  C25 UNL     1      20.493  24.484  17.519  1.00  0.00     0.021 C 
HETATM   37  C26 UNL     1      20.158  23.529  18.679  1.00  0.00     0.001 C 
HETATM   38  C27 UNL     1      19.031  24.152  19.426  1.00  0.00     0.001 C 
HETATM   39  C28 UNL     1      18.595  25.311  18.576  1.00  0.00     0.021 C 
BRANCH  35  40
HETATM   40  C24 UNL     1      20.693  26.395  19.069  1.00  0.00     0.182 C 
HETATM   41  O5  UNL     1      20.121  27.213  19.824  1.00  0.00    -0.647 OA
HETATM   42  O6  UNL     1      22.042  26.076  19.289  1.00  0.00    -0.647 OA
ENDBRANCH  35  40
ENDBRANCH  34  35
ENDBRANCH  29  34
BRANCH  33  43
HETATM   43  O7  UNL     1      20.437  25.049  11.652  1.00  0.00    -0.360 OA
ATOM     44  H7  UNL     1      19.733  25.132  11.018  1.00  0.00     0.217 HD
ENDBRANCH  33  43
ENDBRANCH   4  27
BRANCH   1  45
HETATM   45  O2  UNL     1      16.509  21.054  13.189  1.00  0.00    -0.312 OA
BRANCH  45  46
HETATM   46  C3  UNL     1      15.689  20.184  12.426  1.00  0.00     0.282 C 
HETATM   47  O1  UNL     1      15.108  20.729  11.443  1.00  0.00    -0.260 OA
BRANCH  46  48
HETATM   48  C2  UNL     1      15.534  18.786  12.751  1.00  0.00     0.072 C 
HETATM   49  C1  UNL     1      15.590  18.364  13.997  1.00  0.00     0.017 C 
ENDBRANCH  46  48
ENDBRANCH  45  46
ENDBRANCH   1  45
TORSDOF 16
ENDMDL
MODEL 5
REMARK VINA RESULT: -7.396162401      1.946      2.672
REMARK  16 active torsions:
REMARK  status: ('A' for Active; 'I' for Inactive)
REMARK    1  A    between atoms: C2_2  and  C3_3 
REMARK    2  A    between atoms: C3_3  and  O2_5 
REMARK    3  A    between atoms: O2_5  and  C4_6 
REMARK    4  A    between atoms: C6_8  and  N1_9 
REMARK    5  A    between atoms: N1_9  and  C7_11 
REMARK    6  A    between atoms: C7_11  and  C8_12 
REMARK    7  A    between atoms: C7_11  and  C9_14 
REMARK       I    between atoms: C9_14  and  N2_16 
REMARK       I    between atoms: N2_16  and  C10_18 
REMARK    8  A    between atoms: C10_18  and  C11_20 
REMARK    9  A    between atoms: C11_20  and  N3_21 
REMARK   10  A    between atoms: C11_20  and  C15_26 
REMARK   11  A    between atoms: N3_21  and  C12_23 
REMARK   12  A    between atoms: C18_29  and  C19_30 
REMARK   13  A    between atoms: C21_32  and  C22_33 
REMARK   14  A    between atoms: C22_33  and  C23_34 
REMARK   15  A    between atoms: C23_34  and  C24_35 
REMARK   16  A    between atoms: C32_45  and  O7_46 
ROOT
HETATM    1  C4  UNL     1      15.541  22.195  13.830  1.00  0.00     0.138 C 
HETATM    2  C5  UNL     1      15.518  23.466  14.699  1.00  0.00     0.058 C 
HETATM    3  C6  UNL     1      16.258  24.452  13.816  1.00  0.00     0.088 C 
HETATM    4  C18 UNL     1      17.348  23.560  13.182  1.00  0.00     0.050 C 
HETATM    5  C33 UNL     1      17.053  22.197  13.522  1.00  0.00     0.022 C 
HETATM    6  C34 UNL     1      17.161  21.201  12.365  1.00  0.00     0.013 C 
ENDROOT
BRANCH   3   7
HETATM    7  N1  UNL     1      15.472  25.096  12.900  1.00  0.00    -0.403 N 
ATOM      8  H1  UNL     1      14.705  24.543  12.517  1.00  0.00     0.154 HD
BRANCH   7   9
HETATM    9  C7  UNL     1      15.568  26.375  12.425  1.00  0.00     0.184 C 
BRANCH   9  10
HETATM   10  C8  UNL     1      15.894  27.522  13.315  1.00  0.00     0.149 C 
HETATM   11 CL1  UNL     1      17.663  27.667  13.579  1.00  0.00    -0.128 Cl
ENDBRANCH   9  10
BRANCH   9  12
HETATM   12  C9  UNL     1      14.201  26.758  11.808  1.00  0.00     0.247 C 
HETATM   13  O3  UNL     1      13.914  27.972  11.715  1.00  0.00    -0.271 OA
HETATM   14  N2  UNL     1      13.384  25.703  11.396  1.00  0.00    -0.294 N 
HETATM   15  C10 UNL     1      12.168  25.757  10.712  1.00  0.00     0.247 C 
ATOM     16  H2  UNL     1      13.721  24.768  11.625  1.00  0.00     0.171 HD
HETATM   17  O4  UNL     1      11.474  24.703  10.490  1.00  0.00    -0.271 OA
BRANCH  15  18
HETATM   18  C11 UNL     1      11.593  27.014  10.186  1.00  0.00     0.173 C 
BRANCH  18  19
HETATM   19  N3  UNL     1      10.191  26.874   9.795  1.00  0.00    -0.406 N 
ATOM     20  H3  UNL     1       9.883  26.194   9.100  1.00  0.00     0.154 HD
BRANCH  19  21
HETATM   21  C12 UNL     1       9.287  27.752  10.450  1.00  0.00     0.069 C 
HETATM   22  C13 UNL     1       8.019  27.999   9.646  1.00  0.00     0.031 C 
HETATM   23  C14 UNL     1       8.840  27.023  11.730  1.00  0.00     0.031 C 
ENDBRANCH  19  21
ENDBRANCH  18  19
BRANCH  18  24
HETATM   24  C15 UNL     1      12.300  27.204   8.817  1.00  0.00     0.009 C 
HETATM   25  C16 UNL     1      11.266  26.776   7.765  1.00  0.00     0.012 C 
HETATM   26  C17 UNL     1      12.647  28.633   8.555  1.00  0.00     0.012 C 
ENDBRANCH  18  24
ENDBRANCH  15  18
ENDBRANCH   9  12
ENDBRANCH   7   9
ENDBRANCH   3   7
BRANCH   4  27
HETATM   27  C19 UNL     1      18.658  24.175  13.274  1.00  0.00    -0.018 A 
HETATM   28  C20 UNL     1      19.245  24.242  14.523  1.00  0.00     0.018 A 
HETATM   29  C21 UNL     1      20.485  24.865  14.758  1.00  0.00    -0.050 A 
HETATM   30  C29 UNL     1      21.161  25.443  13.707  1.00  0.00    -0.053 A 
HETATM   31  C30 UNL     1      22.457  26.185  13.840  1.00  0.00     0.049 C 
HETATM   32  C31 UNL     1      20.583  25.381  12.452  1.00  0.00     0.044 A 
HETATM   33  C32 UNL     1      19.348  24.754  12.251  1.00  0.00     0.072 A 
BRANCH  29  34
HETATM   34  C22 UNL     1      21.097  24.859  16.084  1.00  0.00     0.059 C 
BRANCH  34  35
HETATM   35  C23 UNL     1      20.367  25.578  17.171  1.00  0.00     0.052 C 
HETATM   36  C25 UNL     1      19.448  26.669  16.767  1.00  0.00     0.021 C 
HETATM   37  C26 UNL     1      19.277  27.503  18.049  1.00  0.00     0.001 C 
HETATM   38  C27 UNL     1      20.443  27.184  18.919  1.00  0.00     0.001 C 
HETATM   39  C28 UNL     1      21.360  26.367  18.055  1.00  0.00     0.021 C 
BRANCH  35  40
HETATM   40  C24 UNL     1      19.722  24.596  18.079  1.00  0.00     0.182 C 
HETATM   41  O5  UNL     1      20.437  23.919  18.852  1.00  0.00    -0.647 OA
HETATM   42  O6  UNL     1      18.330  24.411  18.084  1.00  0.00    -0.647 OA
ENDBRANCH  35  40
ENDBRANCH  34  35
ENDBRANCH  29  34
BRANCH  33  43
HETATM   43  O7  UNL     1      18.814  24.715  10.993  1.00  0.00    -0.360 OA
ATOM     44  H7  UNL     1      17.870  24.775  10.895  1.00  0.00     0.217 HD
ENDBRANCH  33  43
ENDBRANCH   4  27
BRANCH   1  45
HETATM   45  O2  UNL     1      15.249  21.071  14.586  1.00  0.00    -0.312 OA
BRANCH  45  46
HETATM   46  C3  UNL     1      16.235  20.524  15.448  1.00  0.00     0.282 C 
HETATM   47  O1  UNL     1      16.557  19.327  15.194  1.00  0.00    -0.260 OA
BRANCH  46  48
HETATM   48  C2  UNL     1      16.822  21.281  16.527  1.00  0.00     0.072 C 
HETATM   49  C1  UNL     1      16.252  21.337  17.712  1.00  0.00     0.017 C 
ENDBRANCH  46  48
ENDBRANCH  45  46
ENDBRANCH   1  45
TORSDOF 16
ENDMDL
