MODEL 1
REMARK VINA RESULT: -7.645573396      0.000      0.000
REMARK  14 active torsions:
REMARK  status: ('A' for Active; 'I' for Inactive)
REMARK    1  A    between atoms: C2_2  and  N1_3 
REMARK    2  A    between atoms: N1_3  and  C3_4 
REMARK    3  A    between atoms: N1_3  and  C9_10 
REMARK    4  A    between atoms: C3_4  and  C4_5 
REMARK    5  A    between atoms: C9_10  and  C10_11 
REMARK    6  A    between atoms: C12_13  and  N2_14 
REMARK    7  A    between atoms: N2_14  and  C13_16 
REMARK    8  A    between atoms: C19_24  and  O1_25 
REMARK       I    between atoms: N4_32  and  C25_33 
REMARK       I    between atoms: C25_33  and  N5_35 
REMARK    9  A    between atoms: N5_35  and  C26_37 
REMARK   10  A    between atoms: C26_37  and  C28_39 
REMARK   11  A    between atoms: C26_37  and  C31_44 
REMARK   12  A    between atoms: C28_39  and  C29_40 
REMARK   13  A    between atoms: C29_40  and  C30_41 
REMARK   14  A    between atoms: C31_44  and  C32_45 
ROOT
HETATM    1  C10 UNL     1      16.625  24.007  15.729  1.00  0.00     0.136 C 
HETATM    2  C11 UNL     1      15.293  24.420  16.148  1.00  0.00     0.077 C 
HETATM    3  C12 UNL     1      14.855  25.692  15.388  1.00  0.00     0.179 C 
HETATM    4  N3  UNL     1      14.734  26.730  16.410  1.00  0.00    -0.368 N 
ATOM      5  H3  UNL     1      13.857  27.249  16.445  1.00  0.00     0.161 HD
HETATM    6  C17 UNL     1      15.754  27.085  17.379  1.00  0.00     0.045 A 
HETATM    7  C18 UNL     1      15.158  27.757  18.391  1.00  0.00     0.066 A 
HETATM    8  C19 UNL     1      15.928  28.191  19.471  1.00  0.00     0.072 A 
HETATM    9  C21 UNL     1      17.286  27.932  19.496  1.00  0.00     0.061 A 
HETATM   10  C22 UNL     1      17.899  27.248  18.464  1.00  0.00     0.050 A 
HETATM   11 CL1  UNL     1      19.614  26.939  18.528  1.00  0.00    -0.083 Cl
HETATM   12  C23 UNL     1      17.110  26.826  17.402  1.00  0.00     0.028 A 
HETATM   13  C24 UNL     1      18.032  26.180  16.475  1.00  0.00     0.112 C 
HETATM   14  N4  UNL     1      17.650  25.035  15.763  1.00  0.00    -0.299 N 
HETATM   15  C25 UNL     1      18.594  24.741  14.676  1.00  0.00     0.323 C 
HETATM   16  O2  UNL     1      18.322  23.802  13.895  1.00  0.00    -0.247 OA
HETATM   17  N5  UNL     1      19.780  25.473  14.500  1.00  0.00    -0.333 N 
ATOM     18  H5  UNL     1      19.945  26.214  15.181  1.00  0.00     0.165 HD
ENDROOT
BRANCH   1  19
HETATM   19  C9  UNL     1      17.247  22.828  16.435  1.00  0.00     0.093 C 
BRANCH  19  20
HETATM   20  N1  UNL     1      16.606  21.581  16.434  1.00  0.00    -0.352 N 
BRANCH  20  21
HETATM   21  C2  UNL     1      16.358  20.997  17.651  1.00  0.00     0.064 C 
HETATM   22  C1  UNL     1      15.614  21.657  18.762  1.00  0.00     0.055 C 
ENDBRANCH  20  21
BRANCH  20  23
HETATM   23  C3  UNL     1      16.687  20.922  15.233  1.00  0.00     0.072 C 
BRANCH  23  24
HETATM   24  C4  UNL     1      15.683  19.981  14.687  1.00  0.00     0.024 C 
HETATM   25  C5  UNL     1      15.535  20.393  13.190  1.00  0.00     0.010 C 
HETATM   26  C6  UNL     1      15.608  19.139  12.392  1.00  0.00     0.001 C 
HETATM   27  C7  UNL     1      15.295  18.009  13.328  1.00  0.00     0.001 C 
HETATM   28  C8  UNL     1      15.984  18.541  14.608  1.00  0.00     0.010 C 
ENDBRANCH  23  24
ENDBRANCH  20  23
ENDBRANCH  19  20
ENDBRANCH   1  19
BRANCH  17  29
HETATM   29  C26 UNL     1      20.797  25.319  13.487  1.00  0.00     0.041 C 
HETATM   30  C27 UNL     1      21.491  26.725  13.390  1.00  0.00     0.039 C 
BRANCH  29  31
HETATM   31  C28 UNL     1      20.272  25.132  12.102  1.00  0.00     0.041 C 
BRANCH  31  32
HETATM   32  C29 UNL     1      20.399  23.817  11.441  1.00  0.00     0.116 C 
BRANCH  32  33
HETATM   33  C30 UNL     1      19.115  23.605  10.676  1.00  0.00     0.172 C 
HETATM   34  O3  UNL     1      18.588  24.564  10.065  1.00  0.00    -0.648 OA
HETATM   35  O4  UNL     1      18.559  22.353  10.671  1.00  0.00    -0.648 OA
ENDBRANCH  32  33
ENDBRANCH  31  32
ENDBRANCH  29  31
BRANCH  29  36
HETATM   36  C31 UNL     1      21.823  24.382  13.977  1.00  0.00     0.143 C 
BRANCH  36  37
HETATM   37  C32 UNL     1      22.978  24.913  14.698  1.00  0.00     0.174 C 
HETATM   38  O5  UNL     1      22.901  25.737  15.612  1.00  0.00    -0.648 OA
HETATM   39  O6  UNL     1      24.237  24.458  14.329  1.00  0.00    -0.648 OA
ENDBRANCH  36  37
ENDBRANCH  29  36
ENDBRANCH  17  29
BRANCH   3  40
HETATM   40  N2  UNL     1      13.625  25.502  14.741  1.00  0.00    -0.394 N 
ATOM     41  H2  UNL     1      12.750  25.627  15.250  1.00  0.00     0.156 HD
BRANCH  40  42
HETATM   42  C13 UNL     1      13.613  25.134  13.375  1.00  0.00     0.016 C 
HETATM   43  C14 UNL     1      13.474  23.650  13.103  1.00  0.00     0.037 C 
HETATM   44  C15 UNL     1      12.492  25.797  12.585  1.00  0.00     0.037 C 
HETATM   45  C16 UNL     1      14.904  25.610  12.732  1.00  0.00     0.037 C 
ENDBRANCH  40  42
ENDBRANCH   3  40
BRANCH   8  46
HETATM   46  O1  UNL     1      15.361  28.879  20.525  1.00  0.00    -0.356 OA
HETATM   47  C20 UNL     1      13.986  28.743  20.785  1.00  0.00     0.210 C 
ENDBRANCH   8  46
TORSDOF 14
ENDMDL
MODEL 2
REMARK VINA RESULT: -7.597096887      3.208      7.466
REMARK  14 active torsions:
REMARK  status: ('A' for Active; 'I' for Inactive)
REMARK    1  A    between atoms: C2_2  and  N1_3 
REMARK    2  A    between atoms: N1_3  and  C3_4 
REMARK    3  A    between atoms: N1_3  and  C9_10 
REMARK    4  A    between atoms: C3_4  and  C4_5 
REMARK    5  A    between atoms: C9_10  and  C10_11 
REMARK    6  A    between atoms: C12_13  and  N2_14 
REMARK    7  A    between atoms: N2_14  and  C13_16 
REMARK    8  A    between atoms: C19_24  and  O1_25 
REMARK       I    between atoms: N4_32  and  C25_33 
REMARK       I    between atoms: C25_33  and  N5_35 
REMARK    9  A    between atoms: N5_35  and  C26_37 
REMARK   10  A    between atoms: C26_37  and  C28_39 
REMARK   11  A    between atoms: C26_37  and  C31_44 
REMARK   12  A    between atoms: C28_39  and  C29_40 
REMARK   13  A    between atoms: C29_40  and  C30_41 
REMARK   14  A    between atoms: C31_44  and  C32_45 
ROOT
HETATM    1  C10 UNL     1      17.220  25.274  13.273  1.00  0.00     0.136 C 
HETATM    2  C11 UNL     1      16.718  26.475  12.619  1.00  0.00     0.077 C 
HETATM    3  C12 UNL     1      15.774  27.253  13.564  1.00  0.00     0.179 C 
HETATM    4  N3  UNL     1      14.461  27.203  12.924  1.00  0.00    -0.368 N 
ATOM      5  H3  UNL     1      13.976  28.090  12.787  1.00  0.00     0.161 HD
HETATM    6  C17 UNL     1      13.788  26.002  12.467  1.00  0.00     0.045 A 
HETATM    7  C18 UNL     1      12.833  26.365  11.580  1.00  0.00     0.066 A 
HETATM    8  C19 UNL     1      12.054  25.380  10.972  1.00  0.00     0.072 A 
HETATM    9  C21 UNL     1      12.265  24.049  11.279  1.00  0.00     0.061 A 
HETATM   10  C22 UNL     1      13.238  23.673  12.186  1.00  0.00     0.050 A 
HETATM   11 CL1  UNL     1      13.475  21.985  12.551  1.00  0.00    -0.083 Cl
HETATM   12  C23 UNL     1      13.999  24.673  12.776  1.00  0.00     0.028 A 
HETATM   13  C24 UNL     1      14.896  23.978  13.693  1.00  0.00     0.112 C 
HETATM   14  N4  UNL     1      16.218  24.408  13.868  1.00  0.00    -0.299 N 
HETATM   15  C25 UNL     1      16.834  23.778  15.044  1.00  0.00     0.323 C 
HETATM   16  O2  UNL     1      17.982  24.146  15.378  1.00  0.00    -0.247 OA
HETATM   17  N5  UNL     1      16.178  22.782  15.786  1.00  0.00    -0.333 N 
ATOM     18  H5  UNL     1      15.251  22.520  15.449  1.00  0.00     0.165 HD
ENDROOT
BRANCH   1  19
HETATM   19  C9  UNL     1      18.090  24.347  12.462  1.00  0.00     0.093 C 
BRANCH  19  20
HETATM   20  N1  UNL     1      19.401  24.715  12.128  1.00  0.00    -0.352 N 
BRANCH  20  21
HETATM   21  C2  UNL     1      20.157  23.800  11.439  1.00  0.00     0.064 C 
HETATM   22  C1  UNL     1      20.853  22.642  12.068  1.00  0.00     0.055 C 
ENDBRANCH  20  21
BRANCH  20  23
HETATM   23  C3  UNL     1      19.891  25.752  12.881  1.00  0.00     0.072 C 
BRANCH  23  24
HETATM   24  C4  UNL     1      20.901  25.645  13.958  1.00  0.00     0.024 C 
HETATM   25  C5  UNL     1      22.106  26.493  13.449  1.00  0.00     0.010 C 
HETATM   26  C6  UNL     1      22.521  27.368  14.579  1.00  0.00     0.001 C 
HETATM   27  C7  UNL     1      21.977  26.748  15.832  1.00  0.00     0.001 C 
HETATM   28  C8  UNL     1      20.629  26.217  15.288  1.00  0.00     0.010 C 
ENDBRANCH  23  24
ENDBRANCH  20  23
ENDBRANCH  19  20
ENDBRANCH   1  19
BRANCH  17  29
HETATM   29  C26 UNL     1      16.636  22.078  16.959  1.00  0.00     0.041 C 
HETATM   30  C27 UNL     1      18.084  22.628  17.226  1.00  0.00     0.039 C 
BRANCH  29  31
HETATM   31  C28 UNL     1      16.887  20.621  16.753  1.00  0.00     0.041 C 
BRANCH  31  32
HETATM   32  C29 UNL     1      16.307  19.936  15.580  1.00  0.00     0.116 C 
BRANCH  32  33
HETATM   33  C30 UNL     1      16.298  18.463  15.914  1.00  0.00     0.172 C 
HETATM   34  O3  UNL     1      17.370  17.884  16.206  1.00  0.00    -0.648 OA
HETATM   35  O4  UNL     1      15.102  17.797  15.889  1.00  0.00    -0.648 OA
ENDBRANCH  32  33
ENDBRANCH  31  32
ENDBRANCH  29  31
BRANCH  29  36
HETATM   36  C31 UNL     1      15.818  22.488  18.114  1.00  0.00     0.143 C 
BRANCH  36  37
HETATM   37  C32 UNL     1      15.295  23.852  18.162  1.00  0.00     0.174 C 
HETATM   38  O5  UNL     1      15.750  24.739  18.888  1.00  0.00    -0.648 OA
HETATM   39  O6  UNL     1      14.222  24.164  17.338  1.00  0.00    -0.648 OA
ENDBRANCH  36  37
ENDBRANCH  29  36
ENDBRANCH  17  29
BRANCH   3  40
HETATM   40  N2  UNL     1      16.189  28.584  13.718  1.00  0.00    -0.394 N 
ATOM     41  H2  UNL     1      15.909  29.293  13.041  1.00  0.00     0.156 HD
BRANCH  40  42
HETATM   42  C13 UNL     1      17.003  28.931  14.823  1.00  0.00     0.016 C 
HETATM   43  C14 UNL     1      17.028  27.922  15.952  1.00  0.00     0.037 C 
HETATM   44  C15 UNL     1      18.462  29.155  14.447  1.00  0.00     0.037 C 
HETATM   45  C16 UNL     1      16.517  30.254  15.387  1.00  0.00     0.037 C 
ENDBRANCH  40  42
ENDBRANCH   3  40
BRANCH   8  46
HETATM   46  O1  UNL     1      11.070  25.706  10.060  1.00  0.00    -0.356 OA
HETATM   47  C20 UNL     1      11.331  25.591   8.683  1.00  0.00     0.210 C 
ENDBRANCH   8  46
TORSDOF 14
ENDMDL
MODEL 3
REMARK VINA RESULT: -7.458560321      2.725      5.661
REMARK  14 active torsions:
REMARK  status: ('A' for Active; 'I' for Inactive)
REMARK    1  A    between atoms: C2_2  and  N1_3 
REMARK    2  A    between atoms: N1_3  and  C3_4 
REMARK    3  A    between atoms: N1_3  and  C9_10 
REMARK    4  A    between atoms: C3_4  and  C4_5 
REMARK    5  A    between atoms: C9_10  and  C10_11 
REMARK    6  A    between atoms: C12_13  and  N2_14 
REMARK    7  A    between atoms: N2_14  and  C13_16 
REMARK    8  A    between atoms: C19_24  and  O1_25 
REMARK       I    between atoms: N4_32  and  C25_33 
REMARK       I    between atoms: C25_33  and  N5_35 
REMARK    9  A    between atoms: N5_35  and  C26_37 
REMARK   10  A    between atoms: C26_37  and  C28_39 
REMARK   11  A    between atoms: C26_37  and  C31_44 
REMARK   12  A    between atoms: C28_39  and  C29_40 
REMARK   13  A    between atoms: C29_40  and  C30_41 
REMARK   14  A    between atoms: C31_44  and  C32_45 
ROOT
HETATM    1  C10 UNL     1      16.321  24.943  15.429  1.00  0.00     0.136 C 
HETATM    2  C11 UNL     1      15.055  24.680  14.759  1.00  0.00     0.077 C 
HETATM    3  C12 UNL     1      15.299  24.113  13.342  1.00  0.00     0.179 C 
HETATM    4  N3  UNL     1      14.770  25.121  12.426  1.00  0.00    -0.368 N 
ATOM      5  H3  UNL     1      14.105  24.806  11.719  1.00  0.00     0.161 HD
HETATM    6  C17 UNL     1      15.108  26.532  12.436  1.00  0.00     0.045 A 
HETATM    7  C18 UNL     1      14.147  27.201  11.758  1.00  0.00     0.066 A 
HETATM    8  C19 UNL     1      14.229  28.589  11.643  1.00  0.00     0.072 A 
HETATM    9  C21 UNL     1      15.288  29.265  12.221  1.00  0.00     0.061 A 
HETATM   10  C22 UNL     1      16.273  28.586  12.913  1.00  0.00     0.050 A 
HETATM   11 CL1  UNL     1      17.595  29.471  13.629  1.00  0.00    -0.083 Cl
HETATM   12  C23 UNL     1      16.167  27.205  13.012  1.00  0.00     0.028 A 
HETATM   13  C24 UNL     1      17.350  26.784  13.753  1.00  0.00     0.112 C 
HETATM   14  N4  UNL     1      17.280  25.741  14.686  1.00  0.00    -0.299 N 
HETATM   15  C25 UNL     1      18.620  25.279  15.074  1.00  0.00     0.323 C 
HETATM   16  O2  UNL     1      18.706  24.284  15.827  1.00  0.00    -0.247 OA
HETATM   17  N5  UNL     1      19.787  25.923  14.633  1.00  0.00    -0.333 N 
ATOM     18  H5  UNL     1      19.642  26.735  14.033  1.00  0.00     0.165 HD
ENDROOT
BRANCH   1  19
HETATM   19  C9  UNL     1      16.270  25.584  16.794  1.00  0.00     0.093 C 
BRANCH  19  20
HETATM   20  N1  UNL     1      16.367  24.798  17.951  1.00  0.00    -0.352 N 
BRANCH  20  21
HETATM   21  C2  UNL     1      15.545  23.702  18.041  1.00  0.00     0.064 C 
HETATM   22  C1  UNL     1      16.024  22.290  18.031  1.00  0.00     0.055 C 
ENDBRANCH  20  21
BRANCH  20  23
HETATM   23  C3  UNL     1      16.956  25.445  19.008  1.00  0.00     0.072 C 
BRANCH  23  24
HETATM   24  C4  UNL     1      18.381  25.357  19.399  1.00  0.00     0.024 C 
HETATM   25  C5  UNL     1      18.383  25.632  20.933  1.00  0.00     0.010 C 
HETATM   26  C6  UNL     1      19.229  24.579  21.556  1.00  0.00     0.001 C 
HETATM   27  C7  UNL     1      20.102  24.023  20.469  1.00  0.00     0.001 C 
HETATM   28  C8  UNL     1      19.102  24.077  19.288  1.00  0.00     0.010 C 
ENDBRANCH  23  24
ENDBRANCH  20  23
ENDBRANCH  19  20
ENDBRANCH   1  19
BRANCH  17  29
HETATM   29  C26 UNL     1      21.164  25.592  14.911  1.00  0.00     0.041 C 
HETATM   30  C27 UNL     1      21.263  25.544  16.479  1.00  0.00     0.039 C 
BRANCH  29  31
HETATM   31  C28 UNL     1      22.144  26.665  14.569  1.00  0.00     0.041 C 
BRANCH  31  32
HETATM   32  C29 UNL     1      23.479  26.667  15.201  1.00  0.00     0.116 C 
BRANCH  32  33
HETATM   33  C30 UNL     1      24.441  26.154  14.156  1.00  0.00     0.172 C 
HETATM   34  O3  UNL     1      24.877  26.932  13.276  1.00  0.00    -0.648 OA
HETATM   35  O4  UNL     1      24.812  24.837  14.204  1.00  0.00    -0.648 OA
ENDBRANCH  32  33
ENDBRANCH  31  32
ENDBRANCH  29  31
BRANCH  29  36
HETATM   36  C31 UNL     1      21.433  24.223  14.437  1.00  0.00     0.143 C 
BRANCH  36  37
HETATM   37  C32 UNL     1      21.154  23.890  13.041  1.00  0.00     0.174 C 
HETATM   38  O5  UNL     1      20.633  24.669  12.239  1.00  0.00    -0.648 OA
HETATM   39  O6  UNL     1      21.496  22.620  12.597  1.00  0.00    -0.648 OA
ENDBRANCH  36  37
ENDBRANCH  29  36
ENDBRANCH  17  29
BRANCH   3  40
HETATM   40  N2  UNL     1      14.631  22.893  13.159  1.00  0.00    -0.394 N 
ATOM     41  H2  UNL     1      13.614  22.867  13.085  1.00  0.00     0.156 HD
BRANCH  40  42
HETATM   42  C13 UNL     1      15.385  21.698  13.079  1.00  0.00     0.016 C 
HETATM   43  C14 UNL     1      15.334  20.814  14.308  1.00  0.00     0.037 C 
HETATM   44  C15 UNL     1      14.970  20.802  11.918  1.00  0.00     0.037 C 
HETATM   45  C16 UNL     1      16.838  22.056  12.819  1.00  0.00     0.037 C 
ENDBRANCH  40  42
ENDBRANCH   3  40
BRANCH   8  46
HETATM   46  O1  UNL     1      13.269  29.311  10.962  1.00  0.00    -0.356 OA
HETATM   47  C20 UNL     1      13.051  29.063   9.596  1.00  0.00     0.210 C 
ENDBRANCH   8  46
TORSDOF 14
ENDMDL
MODEL 4
REMARK VINA RESULT: -7.331899742      1.360      1.657
REMARK  14 active torsions:
REMARK  status: ('A' for Active; 'I' for Inactive)
REMARK    1  A    between atoms: C2_2  and  N1_3 
REMARK    2  A    between atoms: N1_3  and  C3_4 
REMARK    3  A    between atoms: N1_3  and  C9_10 
REMARK    4  A    between atoms: C3_4  and  C4_5 
REMARK    5  A    between atoms: C9_10  and  C10_11 
REMARK    6  A    between atoms: C12_13  and  N2_14 
REMARK    7  A    between atoms: N2_14  and  C13_16 
REMARK    8  A    between atoms: C19_24  and  O1_25 
REMARK       I    between atoms: N4_32  and  C25_33 
REMARK       I    between atoms: C25_33  and  N5_35 
REMARK    9  A    between atoms: N5_35  and  C26_37 
REMARK   10  A    between atoms: C26_37  and  C28_39 
REMARK   11  A    between atoms: C26_37  and  C31_44 
REMARK   12  A    between atoms: C28_39  and  C29_40 
REMARK   13  A    between atoms: C29_40  and  C30_41 
REMARK   14  A    between atoms: C31_44  and  C32_45 
ROOT
HETATM    1  C10 UNL     1      16.334  24.256  16.366  1.00  0.00     0.136 C 
HETATM    2  C11 UNL     1      14.908  24.509  16.515  1.00  0.00     0.077 C 
HETATM    3  C12 UNL     1      14.478  25.718  15.652  1.00  0.00     0.179 C 
HETATM    4  N3  UNL     1      14.045  26.737  16.606  1.00  0.00    -0.368 N 
ATOM      5  H3  UNL     1      13.123  27.149  16.461  1.00  0.00     0.161 HD
HETATM    6  C17 UNL     1      14.813  27.214  17.740  1.00  0.00     0.045 A 
HETATM    7  C18 UNL     1      13.961  27.814  18.603  1.00  0.00     0.066 A 
HETATM    8  C19 UNL     1      14.455  28.341  19.798  1.00  0.00     0.072 A 
HETATM    9  C21 UNL     1      15.804  28.245  20.086  1.00  0.00     0.061 A 
HETATM   10  C22 UNL     1      16.678  27.634  19.207  1.00  0.00     0.050 A 
HETATM   11 CL1  UNL     1      18.373  27.532  19.602  1.00  0.00    -0.083 Cl
HETATM   12  C23 UNL     1      16.161  27.119  18.026  1.00  0.00     0.028 A 
HETATM   13  C24 UNL     1      17.311  26.584  17.307  1.00  0.00     0.112 C 
HETATM   14  N4  UNL     1      17.207  25.399  16.565  1.00  0.00    -0.299 N 
HETATM   15  C25 UNL     1      18.369  25.215  15.685  1.00  0.00     0.323 C 
HETATM   16  O2  UNL     1      18.361  24.248  14.891  1.00  0.00    -0.247 OA
HETATM   17  N5  UNL     1      19.473  26.082  15.717  1.00  0.00    -0.333 N 
ATOM     18  H5  UNL     1      19.418  26.840  16.398  1.00  0.00     0.165 HD
ENDROOT
BRANCH   1  19
HETATM   19  C9  UNL     1      16.942  23.162  17.207  1.00  0.00     0.093 C 
BRANCH  19  20
HETATM   20  N1  UNL     1      16.459  21.849  17.121  1.00  0.00    -0.352 N 
BRANCH  20  21
HETATM   21  C2  UNL     1      16.030  21.257  18.283  1.00  0.00     0.064 C 
HETATM   22  C1  UNL     1      15.151  21.919  19.289  1.00  0.00     0.055 C 
ENDBRANCH  20  21
BRANCH  20  23
HETATM   23  C3  UNL     1      16.859  21.187  15.988  1.00  0.00     0.072 C 
BRANCH  23  24
HETATM   24  C4  UNL     1      16.009  20.874  14.817  1.00  0.00     0.024 C 
HETATM   25  C5  UNL     1      16.747  21.533  13.612  1.00  0.00     0.010 C 
HETATM   26  C6  UNL     1      16.798  20.511  12.531  1.00  0.00     0.001 C 
HETATM   27  C7  UNL     1      15.730  19.502  12.835  1.00  0.00     0.001 C 
HETATM   28  C8  UNL     1      15.837  19.478  14.379  1.00  0.00     0.010 C 
ENDBRANCH  23  24
ENDBRANCH  20  23
ENDBRANCH  19  20
ENDBRANCH   1  19
BRANCH  17  29
HETATM   29  C26 UNL     1      20.675  26.047  14.919  1.00  0.00     0.041 C 
HETATM   30  C27 UNL     1      20.593  27.319  14.001  1.00  0.00     0.039 C 
BRANCH  29  31
HETATM   31  C28 UNL     1      20.725  24.941  13.918  1.00  0.00     0.041 C 
BRANCH  31  32
HETATM   32  C29 UNL     1      20.627  25.251  12.478  1.00  0.00     0.116 C 
BRANCH  32  33
HETATM   33  C30 UNL     1      20.500  23.924  11.768  1.00  0.00     0.172 C 
HETATM   34  O3  UNL     1      19.823  23.842  10.717  1.00  0.00    -0.648 OA
HETATM   35  O4  UNL     1      21.138  22.836  12.303  1.00  0.00    -0.648 OA
ENDBRANCH  32  33
ENDBRANCH  31  32
ENDBRANCH  29  31
BRANCH  29  36
HETATM   36  C31 UNL     1      21.841  26.245  15.799  1.00  0.00     0.143 C 
BRANCH  36  37
HETATM   37  C32 UNL     1      21.632  26.796  17.137  1.00  0.00     0.174 C 
HETATM   38  O5  UNL     1      21.675  27.999  17.400  1.00  0.00    -0.648 OA
HETATM   39  O6  UNL     1      21.370  25.906  18.170  1.00  0.00    -0.648 OA
ENDBRANCH  36  37
ENDBRANCH  29  36
ENDBRANCH  17  29
BRANCH   3  40
HETATM   40  N2  UNL     1      13.425  25.380  14.790  1.00  0.00    -0.394 N 
ATOM     41  H2  UNL     1      12.462  25.383  15.126  1.00  0.00     0.156 HD
BRANCH  40  42
HETATM   42  C13 UNL     1      13.714  25.035  13.448  1.00  0.00     0.016 C 
HETATM   43  C14 UNL     1      13.656  23.555  13.131  1.00  0.00     0.037 C 
HETATM   44  C15 UNL     1      12.783  25.702  12.443  1.00  0.00     0.037 C 
HETATM   45  C16 UNL     1      15.107  25.534  13.108  1.00  0.00     0.037 C 
ENDBRANCH  40  42
ENDBRANCH   3  40
BRANCH   8  46
HETATM   46  O1  UNL     1      13.621  28.960  20.708  1.00  0.00    -0.356 OA
HETATM   47  C20 UNL     1      14.174  29.665  21.790  1.00  0.00     0.210 C 
ENDBRANCH   8  46
TORSDOF 14
ENDMDL
MODEL 5
REMARK VINA RESULT: -7.277196022      2.639      5.846
REMARK  14 active torsions:
REMARK  status: ('A' for Active; 'I' for Inactive)
REMARK    1  A    between atoms: C2_2  and  N1_3 
REMARK    2  A    between atoms: N1_3  and  C3_4 
REMARK    3  A    between atoms: N1_3  and  C9_10 
REMARK    4  A    between atoms: C3_4  and  C4_5 
REMARK    5  A    between atoms: C9_10  and  C10_11 
REMARK    6  A    between atoms: C12_13  and  N2_14 
REMARK    7  A    between atoms: N2_14  and  C13_16 
REMARK    8  A    between atoms: C19_24  and  O1_25 
REMARK       I    between atoms: N4_32  and  C25_33 
REMARK       I    between atoms: C25_33  and  N5_35 
REMARK    9  A    between atoms: N5_35  and  C26_37 
REMARK   10  A    between atoms: C26_37  and  C28_39 
REMARK   11  A    between atoms: C26_37  and  C31_44 
REMARK   12  A    between atoms: C28_39  and  C29_40 
REMARK   13  A    between atoms: C29_40  and  C30_41 
REMARK   14  A    between atoms: C31_44  and  C32_45 
ROOT
HETATM    1  C10 UNL     1      16.629  25.218  15.570  1.00  0.00     0.136 C 
HETATM    2  C11 UNL     1      15.317  24.810  15.086  1.00  0.00     0.077 C 
HETATM    3  C12 UNL     1      15.449  24.007  13.772  1.00  0.00     0.179 C 
HETATM    4  N3  UNL     1      14.794  24.825  12.753  1.00  0.00    -0.368 N 
ATOM      5  H3  UNL     1      14.079  24.374  12.182  1.00  0.00     0.161 HD
HETATM    6  C17 UNL     1      15.074  26.223  12.483  1.00  0.00     0.045 A 
HETATM    7  C18 UNL     1      14.026  26.738  11.800  1.00  0.00     0.066 A 
HETATM    8  C19 UNL     1      14.040  28.086  11.438  1.00  0.00     0.072 A 
HETATM    9  C21 UNL     1      15.120  28.878  11.781  1.00  0.00     0.061 A 
HETATM   10  C22 UNL     1      16.193  28.356  12.477  1.00  0.00     0.050 A 
HETATM   11 CL1  UNL     1      17.539  29.385  12.892  1.00  0.00    -0.083 Cl
HETATM   12  C23 UNL     1      16.154  27.012  12.825  1.00  0.00     0.028 A 
HETATM   13  C24 UNL     1      17.418  26.757  13.504  1.00  0.00     0.112 C 
HETATM   14  N4  UNL     1      17.480  25.894  14.607  1.00  0.00    -0.299 N 
HETATM   15  C25 UNL     1      18.868  25.540  14.933  1.00  0.00     0.323 C 
HETATM   16  O2  UNL     1      19.066  24.696  15.835  1.00  0.00    -0.247 OA
HETATM   17  N5  UNL     1      19.961  26.123  14.271  1.00  0.00    -0.333 N 
ATOM     18  H5  UNL     1      19.727  26.813  13.557  1.00  0.00     0.165 HD
ENDROOT
BRANCH   1  19
HETATM   19  C9  UNL     1      16.681  26.088  16.801  1.00  0.00     0.093 C 
BRANCH  19  20
HETATM   20  N1  UNL     1      16.175  25.621  18.022  1.00  0.00    -0.352 N 
BRANCH  20  21
HETATM   21  C2  UNL     1      15.238  26.399  18.656  1.00  0.00     0.064 C 
HETATM   22  C1  UNL     1      14.478  27.501  17.999  1.00  0.00     0.055 C 
ENDBRANCH  20  21
BRANCH  20  23
HETATM   23  C3  UNL     1      16.971  24.679  18.624  1.00  0.00     0.072 C 
BRANCH  23  24
HETATM   24  C4  UNL     1      18.047  24.945  19.604  1.00  0.00     0.024 C 
HETATM   25  C5  UNL     1      19.140  23.881  19.284  1.00  0.00     0.010 C 
HETATM   26  C6  UNL     1      20.440  24.603  19.234  1.00  0.00     0.001 C 
HETATM   27  C7  UNL     1      20.250  25.893  19.976  1.00  0.00     0.001 C 
HETATM   28  C8  UNL     1      18.794  26.214  19.558  1.00  0.00     0.010 C 
ENDBRANCH  23  24
ENDBRANCH  20  23
ENDBRANCH  19  20
ENDBRANCH   1  19
BRANCH  17  29
HETATM   29  C26 UNL     1      21.370  25.880  14.463  1.00  0.00     0.041 C 
HETATM   30  C27 UNL     1      21.616  26.098  16.000  1.00  0.00     0.039 C 
BRANCH  29  31
HETATM   31  C28 UNL     1      22.268  26.905  13.854  1.00  0.00     0.041 C 
BRANCH  31  32
HETATM   32  C29 UNL     1      23.545  27.246  14.513  1.00  0.00     0.116 C 
BRANCH  32  33
HETATM   33  C30 UNL     1      24.634  26.632  13.666  1.00  0.00     0.172 C 
HETATM   34  O3  UNL     1      25.137  27.290  12.725  1.00  0.00    -0.648 OA
HETATM   35  O4  UNL     1      25.046  25.359  13.956  1.00  0.00    -0.648 OA
ENDBRANCH  32  33
ENDBRANCH  31  32
ENDBRANCH  29  31
BRANCH  29  36
HETATM   36  C31 UNL     1      21.652  24.458  14.197  1.00  0.00     0.143 C 
BRANCH  36  37
HETATM   37  C32 UNL     1      21.221  23.878  12.926  1.00  0.00     0.174 C 
HETATM   38  O5  UNL     1      20.549  24.481  12.086  1.00  0.00    -0.648 OA
HETATM   39  O6  UNL     1      21.593  22.568  12.653  1.00  0.00    -0.648 OA
ENDBRANCH  36  37
ENDBRANCH  29  36
ENDBRANCH  17  29
BRANCH   3  40
HETATM   40  N2  UNL     1      14.817  22.758  13.872  1.00  0.00    -0.394 N 
ATOM     41  H2  UNL     1      13.912  22.673  14.333  1.00  0.00     0.156 HD
BRANCH  40  42
HETATM   42  C13 UNL     1      15.452  21.618  13.325  1.00  0.00     0.016 C 
HETATM   43  C14 UNL     1      14.826  21.070  12.059  1.00  0.00     0.037 C 
HETATM   44  C15 UNL     1      16.918  21.853  12.983  1.00  0.00     0.037 C 
HETATM   45  C16 UNL     1      15.447  20.513  14.367  1.00  0.00     0.037 C 
ENDBRANCH  40  42
ENDBRANCH   3  40
BRANCH   8  46
HETATM   46  O1  UNL     1      12.991  28.653  10.742  1.00  0.00    -0.356 OA
HETATM   47  C20 UNL     1      12.745  28.262   9.415  1.00  0.00     0.210 C 
ENDBRANCH   8  46
TORSDOF 14
ENDMDL
