MODEL 1
REMARK VINA RESULT: -7.727567405      0.000      0.000
REMARK  3 active torsions:
REMARK  status: ('A' for Active; 'I' for Inactive)
REMARK    1  A    between atoms: C4_5  and  O1_6 
REMARK    2  A    between atoms: C9_19  and  C10_20 
REMARK    3  A    between atoms: C13_24  and  O3_25 
ROOT
HETATM    1  C1  UNL     1      17.308  13.282  -9.741  1.00  0.00     0.041 C 
HETATM    2  C2  UNL     1      16.062  13.234 -10.666  1.00  0.00     0.120 C 
HETATM    3  C3  UNL     1      16.206  14.288 -11.614  1.00  0.00     0.078 C 
HETATM    4  N1  UNL     1      16.341  15.145 -12.394  1.00  0.00    -0.196 NA
HETATM    5  C4  UNL     1      14.909  13.503  -9.720  1.00  0.00     0.198 C 
HETATM    6  C5  UNL     1      14.480  12.406  -8.879  1.00  0.00     0.071 A 
HETATM    7  N2  UNL     1      13.901  12.638  -7.681  1.00  0.00    -0.332 N 
ATOM      8  H2  UNL     1      13.741  13.593  -7.358  1.00  0.00     0.168 HD
HETATM    9  C6  UNL     1      13.536  11.581  -6.916  1.00  0.00     0.176 A 
HETATM   10  S1  UNL     1      12.810  11.855  -5.459  1.00  0.00    -0.041 SA
HETATM   11  N3  UNL     1      13.725  10.331  -7.309  1.00  0.00    -0.341 N 
ATOM     12  H3  UNL     1      13.430   9.568  -6.699  1.00  0.00     0.167 HD
HETATM   13  C7  UNL     1      14.299  10.037  -8.496  1.00  0.00     0.122 A 
HETATM   14  C8  UNL     1      14.685  11.076  -9.296  1.00  0.00     0.073 A 
HETATM   15  N4  UNL     1      15.247  10.889 -10.556  1.00  0.00    -0.354 N 
ATOM     16  H4  UNL     1      15.128   9.976 -10.996  1.00  0.00     0.166 HD
HETATM   17  C9  UNL     1      15.974  11.876 -11.275  1.00  0.00     0.050 C 
ENDROOT
BRANCH   5  18
HETATM   18  O1  UNL     1      13.811  13.959 -10.485  1.00  0.00    -0.387 OA
ATOM     19  H1  UNL     1      13.216  13.229 -10.612  1.00  0.00     0.210 HD
ENDBRANCH   5  18
BRANCH  17  20
HETATM   20  C10 UNL     1      17.196  11.335 -11.821  1.00  0.00     0.046 A 
HETATM   21  C11 UNL     1      17.690  11.506 -13.129  1.00  0.00     0.157 A 
HETATM   22  O2  UNL     1      18.719  10.694 -13.278  1.00  0.00    -0.331 OA
HETATM   23  C12 UNL     1      18.983   9.990 -12.214  1.00  0.00     0.178 A 
HETATM   24  C13 UNL     1      18.036  10.376 -11.261  1.00  0.00     0.102 A 
BRANCH  24  25
HETATM   25  O3  UNL     1      17.953   9.894  -9.956  1.00  0.00    -0.358 OA
ATOM     26  H3  UNL     1      17.897   8.978  -9.711  1.00  0.00     0.217 HD
ENDBRANCH  24  25
ENDBRANCH  17  20
TORSDOF 3
ENDMDL
MODEL 2
REMARK VINA RESULT: -7.544154907      3.060      6.118
REMARK  3 active torsions:
REMARK  status: ('A' for Active; 'I' for Inactive)
REMARK    1  A    between atoms: C4_5  and  O1_6 
REMARK    2  A    between atoms: C9_19  and  C10_20 
REMARK    3  A    between atoms: C13_24  and  O3_25 
ROOT
HETATM    1  C1  UNL     1      16.221  11.604  -8.047  1.00  0.00     0.041 C 
HETATM    2  C2  UNL     1      15.523  11.223  -9.381  1.00  0.00     0.120 C 
HETATM    3  C3  UNL     1      14.863   9.978  -9.164  1.00  0.00     0.078 C 
HETATM    4  N1  UNL     1      14.315   8.967  -8.973  1.00  0.00    -0.196 NA
HETATM    5  C4  UNL     1      16.677  11.069 -10.351  1.00  0.00     0.198 C 
HETATM    6  C5  UNL     1      17.269  12.285 -10.866  1.00  0.00     0.071 A 
HETATM    7  N2  UNL     1      18.562  12.315 -11.253  1.00  0.00    -0.332 N 
ATOM      8  H2  UNL     1      19.138  11.474 -11.205  1.00  0.00     0.168 HD
HETATM    9  C6  UNL     1      19.082  13.481 -11.707  1.00  0.00     0.176 A 
HETATM   10  S1  UNL     1      20.657  13.523 -12.200  1.00  0.00    -0.041 SA
HETATM   11  N3  UNL     1      18.359  14.588 -11.786  1.00  0.00    -0.341 N 
ATOM     12  H3  UNL     1      18.795  15.441 -12.138  1.00  0.00     0.167 HD
HETATM   13  C7  UNL     1      17.062  14.619 -11.414  1.00  0.00     0.122 A 
HETATM   14  C8  UNL     1      16.501  13.463 -10.947  1.00  0.00     0.073 A 
HETATM   15  N4  UNL     1      15.162  13.371 -10.576  1.00  0.00    -0.354 N 
ATOM     16  H4  UNL     1      14.529  14.101 -10.903  1.00  0.00     0.166 HD
HETATM   17  C9  UNL     1      14.611  12.334  -9.775  1.00  0.00     0.050 C 
ENDROOT
BRANCH   5  18
HETATM   18  O1  UNL     1      16.236  10.272 -11.434  1.00  0.00    -0.387 OA
ATOM     19  H1  UNL     1      15.469  10.687 -11.812  1.00  0.00     0.210 HD
ENDBRANCH   5  18
BRANCH  17  20
HETATM   20  C10 UNL     1      13.759  12.867  -8.738  1.00  0.00     0.046 A 
HETATM   21  C11 UNL     1      12.877  12.145  -7.911  1.00  0.00     0.157 A 
HETATM   22  O2  UNL     1      12.148  13.019  -7.244  1.00  0.00    -0.331 OA
HETATM   23  C12 UNL     1      12.439  14.258  -7.522  1.00  0.00     0.178 A 
HETATM   24  C13 UNL     1      13.468  14.201  -8.468  1.00  0.00     0.102 A 
BRANCH  24  25
HETATM   25  O3  UNL     1      14.110  15.299  -9.037  1.00  0.00    -0.358 OA
ATOM     26  H3  UNL     1      14.014  16.201  -8.754  1.00  0.00     0.217 HD
ENDBRANCH  24  25
ENDBRANCH  17  20
TORSDOF 3
ENDMDL
MODEL 3
REMARK VINA RESULT: -7.454181820      3.126      5.517
REMARK  3 active torsions:
REMARK  status: ('A' for Active; 'I' for Inactive)
REMARK    1  A    between atoms: C4_5  and  O1_6 
REMARK    2  A    between atoms: C9_19  and  C10_20 
REMARK    3  A    between atoms: C13_24  and  O3_25 
ROOT
HETATM    1  C1  UNL     1      17.293  12.868  -9.069  1.00  0.00     0.041 C 
HETATM    2  C2  UNL     1      16.854  12.394 -10.482  1.00  0.00     0.120 C 
HETATM    3  C3  UNL     1      17.496  11.144 -10.719  1.00  0.00     0.078 C 
HETATM    4  N1  UNL     1      18.015  10.115 -10.897  1.00  0.00    -0.196 NA
HETATM    5  C4  UNL     1      17.398  13.471 -11.400  1.00  0.00     0.198 C 
HETATM    6  C5  UNL     1      16.665  14.717 -11.456  1.00  0.00     0.071 A 
HETATM    7  N2  UNL     1      17.292  15.875 -11.757  1.00  0.00    -0.332 N 
ATOM      8  H2  UNL     1      18.290  15.886 -11.968  1.00  0.00     0.168 HD
HETATM    9  C6  UNL     1      16.571  17.022 -11.776  1.00  0.00     0.176 A 
HETATM   10  S1  UNL     1      17.323  18.440 -12.162  1.00  0.00    -0.041 SA
HETATM   11  N3  UNL     1      15.272  17.041 -11.513  1.00  0.00    -0.341 N 
ATOM     12  H3  UNL     1      14.773  17.930 -11.543  1.00  0.00     0.167 HD
HETATM   13  C7  UNL     1      14.593  15.916 -11.206  1.00  0.00     0.122 A 
HETATM   14  C8  UNL     1      15.285  14.737 -11.173  1.00  0.00     0.073 A 
HETATM   15  N4  UNL     1      14.677  13.512 -10.909  1.00  0.00    -0.354 N 
ATOM     16  H4  UNL     1      13.662  13.459 -11.001  1.00  0.00     0.166 HD
HETATM   17  C9  UNL     1      15.365  12.331 -10.522  1.00  0.00     0.050 C 
ENDROOT
BRANCH   5  18
HETATM   18  O1  UNL     1      17.494  12.929 -12.703  1.00  0.00    -0.387 OA
ATOM     19  H1  UNL     1      17.972  13.545 -13.244  1.00  0.00     0.210 HD
ENDBRANCH   5  18
BRANCH  17  20
HETATM   20  C10 UNL     1      14.718  11.688  -9.403  1.00  0.00     0.046 A 
HETATM   21  C11 UNL     1      14.506  10.307  -9.225  1.00  0.00     0.157 A 
HETATM   22  O2  UNL     1      13.713  10.155  -8.182  1.00  0.00    -0.331 OA
HETATM   23  C12 UNL     1      13.363  11.281  -7.627  1.00  0.00     0.178 A 
HETATM   24  C13 UNL     1      13.991  12.282  -8.375  1.00  0.00     0.102 A 
BRANCH  24  25
HETATM   25  O3  UNL     1      13.916  13.651  -8.126  1.00  0.00    -0.358 OA
ATOM     26  H3  UNL     1      14.641  14.261  -8.184  1.00  0.00     0.217 HD
ENDBRANCH  24  25
ENDBRANCH  17  20
TORSDOF 3
ENDMDL
MODEL 4
REMARK VINA RESULT: -7.406893900      3.049      6.164
REMARK  3 active torsions:
REMARK  status: ('A' for Active; 'I' for Inactive)
REMARK    1  A    between atoms: C4_5  and  O1_6 
REMARK    2  A    between atoms: C9_19  and  C10_20 
REMARK    3  A    between atoms: C13_24  and  O3_25 
ROOT
HETATM    1  C1  UNL     1      16.381  11.570  -7.618  1.00  0.00     0.041 C 
HETATM    2  C2  UNL     1      15.327  11.037  -8.626  1.00  0.00     0.120 C 
HETATM    3  C3  UNL     1      15.268   9.623  -8.459  1.00  0.00     0.078 C 
HETATM    4  N1  UNL     1      15.217   8.469  -8.305  1.00  0.00    -0.196 NA
HETATM    5  C4  UNL     1      15.912  11.405  -9.975  1.00  0.00     0.198 C 
HETATM    6  C5  UNL     1      15.791  12.786 -10.389  1.00  0.00     0.071 A 
HETATM    7  N2  UNL     1      16.693  13.338 -11.229  1.00  0.00    -0.332 N 
ATOM      8  H2  UNL     1      17.465  12.784 -11.599  1.00  0.00     0.168 HD
HETATM    9  C6  UNL     1      16.554  14.642 -11.572  1.00  0.00     0.176 A 
HETATM   10  S1  UNL     1      17.641  15.321 -12.613  1.00  0.00    -0.041 SA
HETATM   11  N3  UNL     1      15.560  15.387 -11.113  1.00  0.00    -0.341 N 
ATOM     12  H3  UNL     1      15.496  16.364 -11.403  1.00  0.00     0.167 HD
HETATM   13  C7  UNL     1      14.629  14.891 -10.271  1.00  0.00     0.122 A 
HETATM   14  C8  UNL     1      14.736  13.580  -9.898  1.00  0.00     0.073 A 
HETATM   15  N4  UNL     1      13.808  12.954  -9.069  1.00  0.00    -0.354 N 
ATOM     16  H4  UNL     1      12.900  13.403  -8.951  1.00  0.00     0.166 HD
HETATM   17  C9  UNL     1      14.033  11.735  -8.375  1.00  0.00     0.050 C 
ENDROOT
BRANCH   5  18
HETATM   18  O1  UNL     1      15.317  10.573 -10.953  1.00  0.00    -0.387 OA
ATOM     19  H1  UNL     1      14.753  11.112 -11.494  1.00  0.00     0.210 HD
ENDBRANCH   5  18
BRANCH  17  20
HETATM   20  C10 UNL     1      13.610  11.828  -6.997  1.00  0.00     0.046 A 
HETATM   21  C11 UNL     1      13.719  10.832  -6.007  1.00  0.00     0.157 A 
HETATM   22  O2  UNL     1      13.040  11.241  -4.952  1.00  0.00    -0.331 OA
HETATM   23  C12 UNL     1      12.483  12.408  -5.113  1.00  0.00     0.178 A 
HETATM   24  C13 UNL     1      12.830  12.817  -6.404  1.00  0.00     0.102 A 
BRANCH  24  25
HETATM   25  O3  UNL     1      12.469  14.025  -6.998  1.00  0.00    -0.358 OA
ATOM     26  H3  UNL     1      11.579  14.316  -7.154  1.00  0.00     0.217 HD
ENDBRANCH  24  25
ENDBRANCH  17  20
TORSDOF 3
ENDMDL
MODEL 5
REMARK VINA RESULT: -7.234264878      3.087      4.963
REMARK  3 active torsions:
REMARK  status: ('A' for Active; 'I' for Inactive)
REMARK    1  A    between atoms: C4_5  and  O1_6 
REMARK    2  A    between atoms: C9_19  and  C10_20 
REMARK    3  A    between atoms: C13_24  and  O3_25 
ROOT
HETATM    1  C1  UNL     1      14.327  12.852 -10.810  1.00  0.00     0.041 C 
HETATM    2  C2  UNL     1      14.979  13.912  -9.880  1.00  0.00     0.120 C 
HETATM    3  C3  UNL     1      15.048  13.336  -8.578  1.00  0.00     0.078 C 
HETATM    4  N1  UNL     1      15.113  12.852  -7.520  1.00  0.00    -0.196 NA
HETATM    5  C4  UNL     1      13.997  15.065  -9.917  1.00  0.00     0.198 C 
HETATM    6  C5  UNL     1      14.016  15.907 -11.094  1.00  0.00     0.071 A 
HETATM    7  N2  UNL     1      12.906  16.564 -11.493  1.00  0.00    -0.332 N 
ATOM      8  H2  UNL     1      12.039  16.491 -10.959  1.00  0.00     0.168 HD
HETATM    9  C6  UNL     1      12.963  17.323 -12.615  1.00  0.00     0.176 A 
HETATM   10  S1  UNL     1      11.616  18.145 -13.100  1.00  0.00    -0.041 SA
HETATM   11  N3  UNL     1      14.074  17.442 -13.326  1.00  0.00    -0.341 N 
ATOM     12  H3  UNL     1      14.068  18.028 -14.162  1.00  0.00     0.167 HD
HETATM   13  C7  UNL     1      15.214  16.809 -12.977  1.00  0.00     0.122 A 
HETATM   14  C8  UNL     1      15.197  16.030 -11.853  1.00  0.00     0.073 A 
HETATM   15  N4  UNL     1      16.325  15.368 -11.378  1.00  0.00    -0.354 N 
ATOM     16  H4  UNL     1      17.235  15.676 -11.722  1.00  0.00     0.166 HD
HETATM   17  C9  UNL     1      16.304  14.293 -10.448  1.00  0.00     0.050 C 
ENDROOT
BRANCH   5  18
HETATM   18  O1  UNL     1      14.216  15.865  -8.771  1.00  0.00    -0.387 OA
ATOM     19  H1  UNL     1      13.531  16.523  -8.735  1.00  0.00     0.210 HD
ENDBRANCH   5  18
BRANCH  17  20
HETATM   20  C10 UNL     1      17.156  13.209 -10.877  1.00  0.00     0.046 A 
HETATM   21  C11 UNL     1      17.353  12.756 -12.196  1.00  0.00     0.157 A 
HETATM   22  O2  UNL     1      18.043  11.633 -12.135  1.00  0.00    -0.331 OA
HETATM   23  C12 UNL     1      18.341  11.272 -10.918  1.00  0.00     0.178 A 
HETATM   24  C13 UNL     1      17.797  12.258 -10.088  1.00  0.00     0.102 A 
BRANCH  24  25
HETATM   25  O3  UNL     1      17.892  12.292  -8.699  1.00  0.00    -0.358 OA
ATOM     26  H3  UNL     1      18.583  11.892  -8.185  1.00  0.00     0.217 HD
ENDBRANCH  24  25
ENDBRANCH  17  20
TORSDOF 3
ENDMDL
