MODEL 1
REMARK VINA RESULT: -8.186599838      0.000      0.000
REMARK  6 active torsions:
REMARK  status: ('A' for Active; 'I' for Inactive)
REMARK    1  A    between atoms: C2_2  and  O1_5 
REMARK    2  A    between atoms: O1_5  and  C5_6 
REMARK    3  A    between atoms: C7_8  and  C8_9 
REMARK    4  A    between atoms: C9_10  and  O2_11 
REMARK    5  A    between atoms: C10_15  and  N2_16 
REMARK    6  A    between atoms: N2_16  and  O3_18 
ROOT
HETATM    1  C8  UNL     1      15.295  11.411  -7.371  1.00  0.00     0.082 A 
HETATM    2  C9  UNL     1      14.426  12.473  -7.230  1.00  0.00     0.171 A 
HETATM    3  N1  UNL     1      13.433  12.426  -6.329  1.00  0.00    -0.168 N 
ATOM      4  H1  UNL     1      12.801  13.221  -6.240  1.00  0.00     0.186 HD
HETATM    5  C10 UNL     1      13.254  11.351  -5.542  1.00  0.00     0.705 A 
HETATM    6  N3  UNL     1      14.096  10.328  -5.682  1.00  0.00    -0.179 N 
ATOM      7  H3  UNL     1      13.961   9.512  -5.084  1.00  0.00     0.185 HD
HETATM    8  C11 UNL     1      15.117  10.304  -6.565  1.00  0.00     0.133 A 
HETATM    9  S1  UNL     1      16.109   9.010  -6.677  1.00  0.00    -0.059 SA
ENDROOT
BRANCH   1  10
HETATM   10  C7  UNL     1      16.391  11.425  -8.343  1.00  0.00     0.077 A 
HETATM   11  C6  UNL     1      16.555  10.641  -9.458  1.00  0.00     0.098 A 
HETATM   12  C5  UNL     1      17.731  11.040 -10.033  1.00  0.00     0.209 A 
HETATM   13  O4  UNL     1      18.230  11.992  -9.313  1.00  0.00    -0.212 OA
HETATM   14  N4  UNL     1      17.456  12.228  -8.320  1.00  0.00    -0.258 N 
ATOM     15  H4  UNL     1      17.630  12.937  -7.607  1.00  0.00     0.195 HD
BRANCH  12  16
HETATM   16  O1  UNL     1      18.276  10.513 -11.174  1.00  0.00    -0.319 OA
BRANCH  16  17
HETATM   17  C2  UNL     1      18.586  11.201 -12.342  1.00  0.00     0.059 C 
HETATM   18  C1  UNL     1      19.930  11.872 -12.328  1.00  0.00     0.045 C 
HETATM   19  C3  UNL     1      17.556  12.244 -12.713  1.00  0.00     0.045 C 
HETATM   20  C4  UNL     1      18.579  10.176 -13.485  1.00  0.00     0.045 C 
ENDBRANCH  16  17
ENDBRANCH  12  16
ENDBRANCH   1  10
BRANCH   2  21
HETATM   21  O2  UNL     1      14.625  13.572  -8.051  1.00  0.00    -0.345 OA
ATOM     22  H2  UNL     1      13.881  14.142  -8.204  1.00  0.00     0.219 HD
ENDBRANCH   2  21
BRANCH   5  23
HETATM   23  N2  UNL     1      12.304  11.314  -4.685  1.00  0.00    -0.098 N 
ATOM     24  H2  UNL     1      11.847  10.430  -4.464  1.00  0.00     0.213 HD
BRANCH  23  25
HETATM   25  O3  UNL     1      11.904  12.472  -4.063  1.00  0.00    -0.276 OA
ATOM     26  H3  UNL     1      12.546  13.138  -3.849  1.00  0.00     0.245 HD
ENDBRANCH  23  25
ENDBRANCH   5  23
TORSDOF 6
ENDMDL
MODEL 2
REMARK VINA RESULT: -8.051751562      1.878      2.225
REMARK  6 active torsions:
REMARK  status: ('A' for Active; 'I' for Inactive)
REMARK    1  A    between atoms: C2_2  and  O1_5 
REMARK    2  A    between atoms: O1_5  and  C5_6 
REMARK    3  A    between atoms: C7_8  and  C8_9 
REMARK    4  A    between atoms: C9_10  and  O2_11 
REMARK    5  A    between atoms: C10_15  and  N2_16 
REMARK    6  A    between atoms: N2_16  and  O3_18 
ROOT
HETATM    1  C8  UNL     1      14.831  11.329  -7.536  1.00  0.00     0.082 A 
HETATM    2  C9  UNL     1      14.743  10.357  -6.560  1.00  0.00     0.171 A 
HETATM    3  N1  UNL     1      13.845  10.465  -5.570  1.00  0.00    -0.168 N 
ATOM      4  H1  UNL     1      13.795   9.736  -4.859  1.00  0.00     0.186 HD
HETATM    5  C10 UNL     1      13.009  11.515  -5.497  1.00  0.00     0.705 A 
HETATM    6  N3  UNL     1      13.098  12.451  -6.441  1.00  0.00    -0.179 N 
ATOM      7  H3  UNL     1      12.464  13.248  -6.386  1.00  0.00     0.185 HD
HETATM    8  C11 UNL     1      13.976  12.410  -7.466  1.00  0.00     0.133 A 
HETATM    9  S1  UNL     1      14.024  13.598  -8.587  1.00  0.00    -0.059 SA
ENDROOT
BRANCH   1  10
HETATM   10  C7  UNL     1      15.800  11.245  -8.632  1.00  0.00     0.077 A 
HETATM   11  C6  UNL     1      17.002  11.895  -8.762  1.00  0.00     0.098 A 
HETATM   12  C5  UNL     1      17.529  11.483  -9.956  1.00  0.00     0.209 A 
HETATM   13  O4  UNL     1      16.701  10.649 -10.497  1.00  0.00    -0.212 OA
HETATM   14  N4  UNL     1      15.684  10.500  -9.733  1.00  0.00    -0.258 N 
ATOM     15  H4  UNL     1      14.890   9.892  -9.938  1.00  0.00     0.195 HD
BRANCH  12  16
HETATM   16  O1  UNL     1      18.728  11.891 -10.478  1.00  0.00    -0.319 OA
BRANCH  16  17
HETATM   17  C2  UNL     1      18.962  12.344 -11.772  1.00  0.00     0.059 C 
HETATM   18  C1  UNL     1      20.197  13.187 -11.920  1.00  0.00     0.045 C 
HETATM   19  C3  UNL     1      17.802  13.123 -12.351  1.00  0.00     0.045 C 
HETATM   20  C4  UNL     1      19.122  11.103 -12.661  1.00  0.00     0.045 C 
ENDBRANCH  16  17
ENDBRANCH  12  16
ENDBRANCH   1  10
BRANCH   2  21
HETATM   21  O2  UNL     1      15.614   9.282  -6.652  1.00  0.00    -0.345 OA
ATOM     22  H2  UNL     1      15.780   8.787  -5.859  1.00  0.00     0.219 HD
ENDBRANCH   2  21
BRANCH   5  23
HETATM   23  N2  UNL     1      12.154  11.611  -4.548  1.00  0.00    -0.098 N 
ATOM     24  H2  UNL     1      11.726  10.772  -4.159  1.00  0.00     0.213 HD
BRANCH  23  25
HETATM   25  O3  UNL     1      11.817  12.849  -4.058  1.00  0.00    -0.276 OA
ATOM     26  H3  UNL     1      11.307  13.445  -4.595  1.00  0.00     0.245 HD
ENDBRANCH  23  25
ENDBRANCH   5  23
TORSDOF 6
ENDMDL
MODEL 3
REMARK VINA RESULT: -7.970765241      1.067      1.195
REMARK  6 active torsions:
REMARK  status: ('A' for Active; 'I' for Inactive)
REMARK    1  A    between atoms: C2_2  and  O1_5 
REMARK    2  A    between atoms: O1_5  and  C5_6 
REMARK    3  A    between atoms: C7_8  and  C8_9 
REMARK    4  A    between atoms: C9_10  and  O2_11 
REMARK    5  A    between atoms: C10_15  and  N2_16 
REMARK    6  A    between atoms: N2_16  and  O3_18 
ROOT
HETATM    1  C8  UNL     1      14.811  11.256  -7.622  1.00  0.00     0.082 A 
HETATM    2  C9  UNL     1      13.799  12.193  -7.572  1.00  0.00     0.171 A 
HETATM    3  N1  UNL     1      12.949  12.223  -6.536  1.00  0.00    -0.168 N 
ATOM      4  H1  UNL     1      12.207  12.924  -6.518  1.00  0.00     0.186 HD
HETATM    5  C10 UNL     1      13.053  11.349  -5.521  1.00  0.00     0.705 A 
HETATM    6  N3  UNL     1      14.032  10.446  -5.573  1.00  0.00    -0.179 N 
ATOM      7  H3  UNL     1      14.112   9.783  -4.802  1.00  0.00     0.185 HD
HETATM    8  C11 UNL     1      14.924  10.355  -6.582  1.00  0.00     0.133 A 
HETATM    9  S1  UNL     1      16.098   9.219  -6.574  1.00  0.00    -0.059 SA
ENDROOT
BRANCH   1  10
HETATM   10  C7  UNL     1      15.759  11.192  -8.737  1.00  0.00     0.077 A 
HETATM   11  C6  UNL     1      17.008  11.754  -8.832  1.00  0.00     0.098 A 
HETATM   12  C5  UNL     1      17.488  11.407 -10.065  1.00  0.00     0.209 A 
HETATM   13  O4  UNL     1      16.591  10.691 -10.661  1.00  0.00    -0.212 OA
HETATM   14  N4  UNL     1      15.573  10.557  -9.895  1.00  0.00    -0.258 N 
ATOM     15  H4  UNL     1      14.731  10.033 -10.139  1.00  0.00     0.195 HD
BRANCH  12  16
HETATM   16  O1  UNL     1      18.711  11.764 -10.570  1.00  0.00    -0.319 OA
BRANCH  16  17
HETATM   17  C2  UNL     1      18.969  12.287 -11.833  1.00  0.00     0.059 C 
HETATM   18  C1  UNL     1      20.235  13.091 -11.923  1.00  0.00     0.045 C 
HETATM   19  C3  UNL     1      17.842  13.141 -12.367  1.00  0.00     0.045 C 
HETATM   20  C4  UNL     1      19.091  11.098 -12.796  1.00  0.00     0.045 C 
ENDBRANCH  16  17
ENDBRANCH  12  16
ENDBRANCH   1  10
BRANCH   2  21
HETATM   21  O2  UNL     1      13.706  13.086  -8.629  1.00  0.00    -0.345 OA
ATOM     22  H2  UNL     1      14.050  12.804  -9.469  1.00  0.00     0.219 HD
ENDBRANCH   2  21
BRANCH   5  23
HETATM   23  N2  UNL     1      12.237  11.385  -4.535  1.00  0.00    -0.098 N 
ATOM     24  H2  UNL     1      11.894  10.518  -4.122  1.00  0.00     0.213 HD
BRANCH  23  25
HETATM   25  O3  UNL     1      11.826  12.596  -4.036  1.00  0.00    -0.276 OA
ATOM     26  H3  UNL     1      12.432  13.130  -3.535  1.00  0.00     0.245 HD
ENDBRANCH  23  25
ENDBRANCH   5  23
TORSDOF 6
ENDMDL
MODEL 4
REMARK VINA RESULT: -7.949875742      1.622      1.931
REMARK  6 active torsions:
REMARK  status: ('A' for Active; 'I' for Inactive)
REMARK    1  A    between atoms: C2_2  and  O1_5 
REMARK    2  A    between atoms: O1_5  and  C5_6 
REMARK    3  A    between atoms: C7_8  and  C8_9 
REMARK    4  A    between atoms: C9_10  and  O2_11 
REMARK    5  A    between atoms: C10_15  and  N2_16 
REMARK    6  A    between atoms: N2_16  and  O3_18 
ROOT
HETATM    1  C8  UNL     1      15.081  11.257  -7.341  1.00  0.00     0.082 A 
HETATM    2  C9  UNL     1      14.863  10.283  -6.388  1.00  0.00     0.171 A 
HETATM    3  N1  UNL     1      13.869  10.413  -5.497  1.00  0.00    -0.168 N 
ATOM      4  H1  UNL     1      13.724   9.682  -4.800  1.00  0.00     0.186 HD
HETATM    5  C10 UNL     1      13.061  11.486  -5.504  1.00  0.00     0.705 A 
HETATM    6  N3  UNL     1      13.274  12.424  -6.426  1.00  0.00    -0.179 N 
ATOM      7  H3  UNL     1      12.661  13.238  -6.431  1.00  0.00     0.185 HD
HETATM    8  C11 UNL     1      14.254  12.362  -7.354  1.00  0.00     0.133 A 
HETATM    9  S1  UNL     1      14.453  13.554  -8.454  1.00  0.00    -0.059 SA
ENDROOT
BRANCH   1  10
HETATM   10  C7  UNL     1      16.156  11.151  -8.330  1.00  0.00     0.077 A 
HETATM   11  C6  UNL     1      16.102  10.633  -9.601  1.00  0.00     0.098 A 
HETATM   12  C5  UNL     1      17.362  10.763 -10.118  1.00  0.00     0.209 A 
HETATM   13  O4  UNL     1      18.111  11.319  -9.222  1.00  0.00    -0.212 OA
HETATM   14  N4  UNL     1      17.419  11.551  -8.170  1.00  0.00    -0.258 N 
ATOM     15  H4  UNL     1      17.784  11.986  -7.322  1.00  0.00     0.195 HD
BRANCH  12  16
HETATM   16  O1  UNL     1      17.750  10.369 -11.372  1.00  0.00    -0.319 OA
BRANCH  16  17
HETATM   17  C2  UNL     1      18.243  11.184 -12.385  1.00  0.00     0.059 C 
HETATM   18  C1  UNL     1      19.702  11.521 -12.256  1.00  0.00     0.045 C 
HETATM   19  C3  UNL     1      17.483  12.484 -12.529  1.00  0.00     0.045 C 
HETATM   20  C4  UNL     1      18.044  10.431 -13.707  1.00  0.00     0.045 C 
ENDBRANCH  16  17
ENDBRANCH  12  16
ENDBRANCH   1  10
BRANCH   2  21
HETATM   21  O2  UNL     1      15.708   9.184  -6.396  1.00  0.00    -0.345 OA
ATOM     22  H2  UNL     1      16.041   8.897  -7.238  1.00  0.00     0.219 HD
ENDBRANCH   2  21
BRANCH   5  23
HETATM   23  N2  UNL     1      12.114  11.602  -4.650  1.00  0.00    -0.098 N 
ATOM     24  H2  UNL     1      11.552  10.789  -4.394  1.00  0.00     0.213 HD
BRANCH  23  25
HETATM   25  O3  UNL     1      11.856  12.825  -4.080  1.00  0.00    -0.276 OA
ATOM     26  H3  UNL     1      10.970  13.044  -3.816  1.00  0.00     0.245 HD
ENDBRANCH  23  25
ENDBRANCH   5  23
TORSDOF 6
ENDMDL
MODEL 5
REMARK VINA RESULT: -7.505864066      3.608      4.637
REMARK  6 active torsions:
REMARK  status: ('A' for Active; 'I' for Inactive)
REMARK    1  A    between atoms: C2_2  and  O1_5 
REMARK    2  A    between atoms: O1_5  and  C5_6 
REMARK    3  A    between atoms: C7_8  and  C8_9 
REMARK    4  A    between atoms: C9_10  and  O2_11 
REMARK    5  A    between atoms: C10_15  and  N2_16 
REMARK    6  A    between atoms: N2_16  and  O3_18 
ROOT
HETATM    1  C8  UNL     1      14.682  12.100  -8.522  1.00  0.00     0.082 A 
HETATM    2  C9  UNL     1      13.702  11.363  -7.890  1.00  0.00     0.171 A 
HETATM    3  N1  UNL     1      14.006  10.212  -7.272  1.00  0.00    -0.168 N 
ATOM      4  H1  UNL     1      13.266   9.682  -6.811  1.00  0.00     0.186 HD
HETATM    5  C10 UNL     1      15.265   9.743  -7.249  1.00  0.00     0.705 A 
HETATM    6  N3  UNL     1      16.209  10.458  -7.860  1.00  0.00    -0.179 N 
ATOM      7  H3  UNL     1      17.164  10.102  -7.843  1.00  0.00     0.185 HD
HETATM    8  C11 UNL     1      15.978  11.624  -8.502  1.00  0.00     0.133 A 
HETATM    9  S1  UNL     1      17.190  12.443  -9.229  1.00  0.00    -0.059 SA
ENDROOT
BRANCH   1  10
HETATM   10  C7  UNL     1      14.389  13.361  -9.208  1.00  0.00     0.077 A 
HETATM   11  C6  UNL     1      14.403  13.625 -10.555  1.00  0.00     0.098 A 
HETATM   12  C5  UNL     1      14.058  14.943 -10.687  1.00  0.00     0.209 A 
HETATM   13  O4  UNL     1      13.853  15.427  -9.505  1.00  0.00    -0.212 OA
HETATM   14  N4  UNL     1      14.043  14.512  -8.629  1.00  0.00    -0.258 N 
ATOM     15  H4  UNL     1      13.943  14.646  -7.622  1.00  0.00     0.195 HD
BRANCH  12  16
HETATM   16  O1  UNL     1      13.951  15.621 -11.872  1.00  0.00    -0.319 OA
BRANCH  16  17
HETATM   17  C2  UNL     1      14.946  16.366 -12.497  1.00  0.00     0.059 C 
HETATM   18  C1  UNL     1      15.855  15.564 -13.385  1.00  0.00     0.045 C 
HETATM   19  C3  UNL     1      15.813  17.136 -11.527  1.00  0.00     0.045 C 
HETATM   20  C4  UNL     1      14.243  17.420 -13.363  1.00  0.00     0.045 C 
ENDBRANCH  16  17
ENDBRANCH  12  16
ENDBRANCH   1  10
BRANCH   2  21
HETATM   21  O2  UNL     1      12.408  11.862  -7.926  1.00  0.00    -0.345 OA
ATOM     22  H2  UNL     1      11.758  11.425  -7.390  1.00  0.00     0.219 HD
ENDBRANCH   2  21
BRANCH   5  23
HETATM   23  N2  UNL     1      15.547   8.644  -6.657  1.00  0.00    -0.098 N 
ATOM     24  H2  UNL     1      15.893   7.847  -7.191  1.00  0.00     0.213 HD
BRANCH  23  25
HETATM   25  O3  UNL     1      15.380   8.541  -5.297  1.00  0.00    -0.276 OA
ATOM     26  H3  UNL     1      15.765   7.809  -4.829  1.00  0.00     0.245 HD
ENDBRANCH  23  25
ENDBRANCH   5  23
TORSDOF 6
ENDMDL
