MODEL 1
REMARK VINA RESULT: -6.003334646      0.000      0.000
REMARK  3 active torsions:
REMARK  status: ('A' for Active; 'I' for Inactive)
REMARK    1  A    between atoms: C2_2  and  C3_3 
REMARK    2  A    between atoms: C3_3  and  N2_7 
REMARK    3  A    between atoms: N3_9  and  C4_11 
ROOT
HETATM    1  C4  UNL     1     -19.947  -0.223 -23.942  1.00  0.00     0.191 A 
HETATM    2  O1  UNL     1     -19.851  -1.520 -23.736  1.00  0.00    -0.300 OA
HETATM    3  C5  UNL     1     -20.248  -2.200 -24.767  1.00  0.00     0.176 A 
HETATM    4  C6  UNL     1     -20.651  -1.318 -25.766  1.00  0.00     0.088 A 
HETATM    5  N4  UNL     1     -21.143  -1.186 -27.013  1.00  0.00    -0.330 N 
ATOM      6  H4  UNL     1     -21.388  -1.937 -27.659  1.00  0.00     0.168 HD
HETATM    7  C7  UNL     1     -21.245   0.125 -27.232  1.00  0.00     0.177 A 
HETATM    8  S1  UNL     1     -21.790   0.808 -28.601  1.00  0.00    -0.041 SA
HETATM    9  N5  UNL     1     -20.831   0.826 -26.157  1.00  0.00    -0.328 N 
ATOM     10  H5  UNL     1     -20.808   1.841 -26.068  1.00  0.00     0.168 HD
HETATM   11  C8  UNL     1     -20.453  -0.066 -25.225  1.00  0.00     0.116 A 
ENDROOT
BRANCH   1  12
HETATM   12  N3  UNL     1     -19.614   0.836 -23.062  1.00  0.00    -0.276 N 
HETATM   13  N2  UNL     1     -20.353   1.064 -22.073  1.00  0.00    -0.284 N 
ATOM     14  H2  UNL     1     -20.132   1.820 -21.426  1.00  0.00     0.188 HD
ATOM     15  H3  UNL     1     -18.785   1.406 -23.230  1.00  0.00     0.189 HD
BRANCH  13  16
HETATM   16  C3  UNL     1     -21.500   0.255 -21.871  1.00  0.00     0.112 C 
HETATM   17  N1  UNL     1     -21.502  -0.719 -21.042  1.00  0.00    -0.384 N 
ATOM     18  H12 UNL     1     -22.327  -1.301 -20.896  1.00  0.00     0.157 HD
ATOM     19  H11 UNL     1     -20.658  -0.924 -20.508  1.00  0.00     0.157 HD
BRANCH  16  20
HETATM   20  C2  UNL     1     -22.693   0.546 -22.625  1.00  0.00     0.039 C 
HETATM   21  C1  UNL     1     -23.453  -0.373 -23.186  1.00  0.00     0.015 C 
ENDBRANCH  16  20
ENDBRANCH  13  16
ENDBRANCH   1  12
TORSDOF 3
ENDMDL
MODEL 2
REMARK VINA RESULT: -5.994190683      1.994      2.996
REMARK  3 active torsions:
REMARK  status: ('A' for Active; 'I' for Inactive)
REMARK    1  A    between atoms: C2_2  and  C3_3 
REMARK    2  A    between atoms: C3_3  and  N2_7 
REMARK    3  A    between atoms: N3_9  and  C4_11 
ROOT
HETATM    1  C4  UNL     1     -23.018   0.234 -23.940  1.00  0.00     0.191 A 
HETATM    2  O1  UNL     1     -23.109   1.532 -23.735  1.00  0.00    -0.300 OA
HETATM    3  C5  UNL     1     -22.706   2.209 -24.765  1.00  0.00     0.176 A 
HETATM    4  C6  UNL     1     -22.303   1.324 -25.762  1.00  0.00     0.088 A 
HETATM    5  N4  UNL     1     -21.807   1.189 -27.007  1.00  0.00    -0.330 N 
ATOM      6  H4  UNL     1     -21.557   1.938 -27.653  1.00  0.00     0.168 HD
HETATM    7  C7  UNL     1     -21.711  -0.123 -27.225  1.00  0.00     0.177 A 
HETATM    8  S1  UNL     1     -21.164  -0.809 -28.591  1.00  0.00    -0.041 SA
HETATM    9  N5  UNL     1     -22.131  -0.821 -26.150  1.00  0.00    -0.328 N 
ATOM     10  H5  UNL     1     -22.159  -1.836 -26.061  1.00  0.00     0.168 HD
HETATM   11  C8  UNL     1     -22.508   0.074 -25.221  1.00  0.00     0.116 A 
ENDROOT
BRANCH   1  12
HETATM   12  N3  UNL     1     -23.358  -0.822 -23.060  1.00  0.00    -0.276 N 
HETATM   13  N2  UNL     1     -22.621  -1.056 -22.071  1.00  0.00    -0.284 N 
ATOM     14  H2  UNL     1     -22.848  -1.811 -21.423  1.00  0.00     0.188 HD
ATOM     15  H3  UNL     1     -24.192  -1.386 -23.228  1.00  0.00     0.189 HD
BRANCH  13  16
HETATM   16  C3  UNL     1     -21.469  -0.255 -21.869  1.00  0.00     0.112 C 
HETATM   17  N1  UNL     1     -21.461   0.723 -21.045  1.00  0.00    -0.384 N 
ATOM     18  H12 UNL     1     -20.632   1.299 -20.899  1.00  0.00     0.157 HD
ATOM     19  H11 UNL     1     -22.306   0.938 -20.515  1.00  0.00     0.157 HD
BRANCH  16  20
HETATM   20  C2  UNL     1     -20.275  -0.560 -22.617  1.00  0.00     0.039 C 
HETATM   21  C1  UNL     1     -19.511   0.349 -23.188  1.00  0.00     0.015 C 
ENDBRANCH  16  20
ENDBRANCH  13  16
ENDBRANCH   1  12
TORSDOF 3
ENDMDL
MODEL 3
REMARK VINA RESULT: -5.638244682      1.645      2.048
REMARK  3 active torsions:
REMARK  status: ('A' for Active; 'I' for Inactive)
REMARK    1  A    between atoms: C2_2  and  C3_3 
REMARK    2  A    between atoms: C3_3  and  N2_7 
REMARK    3  A    between atoms: N3_9  and  C4_11 
ROOT
HETATM    1  C4  UNL     1     -22.043  -1.174 -24.423  1.00  0.00     0.191 A 
HETATM    2  O1  UNL     1     -21.048  -1.969 -24.088  1.00  0.00    -0.300 OA
HETATM    3  C5  UNL     1     -20.179  -2.077 -25.044  1.00  0.00     0.176 A 
HETATM    4  C6  UNL     1     -20.592  -1.304 -26.126  1.00  0.00     0.088 A 
HETATM    5  N4  UNL     1     -20.319  -0.891 -27.378  1.00  0.00    -0.330 N 
ATOM      6  H4  UNL     1     -19.509  -1.144 -27.945  1.00  0.00     0.168 HD
HETATM    7  C7  UNL     1     -21.321  -0.084 -27.728  1.00  0.00     0.177 A 
HETATM    8  S1  UNL     1     -21.460   0.676 -29.156  1.00  0.00    -0.041 SA
HETATM    9  N5  UNL     1     -22.222   0.023 -26.730  1.00  0.00    -0.328 N 
ATOM     10  H5  UNL     1     -23.077   0.578 -26.744  1.00  0.00     0.168 HD
HETATM   11  C8  UNL     1     -21.779  -0.737 -25.714  1.00  0.00     0.116 A 
ENDROOT
BRANCH   1  12
HETATM   12  N3  UNL     1     -23.176  -0.809 -23.655  1.00  0.00    -0.276 N 
HETATM   13  N2  UNL     1     -23.052   0.064 -22.761  1.00  0.00    -0.284 N 
ATOM     14  H2  UNL     1     -23.855   0.343 -22.197  1.00  0.00     0.188 HD
ATOM     15  H3  UNL     1     -24.081  -1.249 -23.827  1.00  0.00     0.189 HD
BRANCH  13  16
HETATM   16  C3  UNL     1     -21.781   0.653 -22.546  1.00  0.00     0.112 C 
HETATM   17  N1  UNL     1     -20.845   0.038 -21.931  1.00  0.00    -0.384 N 
ATOM     18  H12 UNL     1     -19.930   0.462 -21.777  1.00  0.00     0.157 HD
ATOM     19  H11 UNL     1     -21.012  -0.906 -21.582  1.00  0.00     0.157 HD
BRANCH  16  20
HETATM   20  C2  UNL     1     -21.546   1.987 -23.041  1.00  0.00     0.039 C 
HETATM   21  C1  UNL     1     -20.971   2.943 -22.339  1.00  0.00     0.015 C 
ENDBRANCH  16  20
ENDBRANCH  13  16
ENDBRANCH   1  12
TORSDOF 3
ENDMDL
MODEL 4
REMARK VINA RESULT: -5.636291450      2.017      2.467
REMARK  3 active torsions:
REMARK  status: ('A' for Active; 'I' for Inactive)
REMARK    1  A    between atoms: C2_2  and  C3_3 
REMARK    2  A    between atoms: C3_3  and  N2_7 
REMARK    3  A    between atoms: N3_9  and  C4_11 
ROOT
HETATM    1  C4  UNL     1     -20.934   1.142 -24.453  1.00  0.00     0.191 A 
HETATM    2  O1  UNL     1     -21.899   1.974 -24.121  1.00  0.00    -0.300 OA
HETATM    3  C5  UNL     1     -22.755   2.123 -25.083  1.00  0.00     0.176 A 
HETATM    4  C6  UNL     1     -22.363   1.342 -26.167  1.00  0.00     0.088 A 
HETATM    5  N4  UNL     1     -22.642   0.950 -27.425  1.00  0.00    -0.330 N 
ATOM      6  H4  UNL     1     -23.435   1.239 -27.997  1.00  0.00     0.168 HD
HETATM    7  C7  UNL     1     -21.669   0.106 -27.772  1.00  0.00     0.177 A 
HETATM    8  S1  UNL     1     -21.549  -0.649 -29.204  1.00  0.00    -0.041 SA
HETATM    9  N5  UNL     1     -20.783  -0.045 -26.767  1.00  0.00    -0.328 N 
ATOM     10  H5  UNL     1     -19.950  -0.633 -26.777  1.00  0.00     0.168 HD
HETATM   11  C8  UNL     1     -21.204   0.725 -25.749  1.00  0.00     0.116 A 
ENDROOT
BRANCH   1  12
HETATM   12  N3  UNL     1     -19.824   0.726 -23.678  1.00  0.00    -0.276 N 
HETATM   13  N2  UNL     1     -19.992  -0.141 -22.786  1.00  0.00    -0.284 N 
ATOM     14  H2  UNL     1     -19.206  -0.457 -22.216  1.00  0.00     0.188 HD
ATOM     15  H3  UNL     1     -18.899   1.125 -23.843  1.00  0.00     0.189 HD
BRANCH  13  16
HETATM   16  C3  UNL     1     -21.289  -0.674 -22.580  1.00  0.00     0.112 C 
HETATM   17  N1  UNL     1     -22.206  -0.012 -21.986  1.00  0.00    -0.384 N 
ATOM     18  H12 UNL     1     -23.140  -0.395 -21.838  1.00  0.00     0.157 HD
ATOM     19  H11 UNL     1     -22.005   0.929 -21.646  1.00  0.00     0.157 HD
BRANCH  16  20
HETATM   20  C2  UNL     1     -21.574  -2.003 -23.061  1.00  0.00     0.039 C 
HETATM   21  C1  UNL     1     -21.931  -3.007 -22.285  1.00  0.00     0.015 C 
ENDBRANCH  16  20
ENDBRANCH  13  16
ENDBRANCH   1  12
TORSDOF 3
ENDMDL
MODEL 5
REMARK VINA RESULT: -5.580970654      2.947      4.959
REMARK  3 active torsions:
REMARK  status: ('A' for Active; 'I' for Inactive)
REMARK    1  A    between atoms: C2_2  and  C3_3 
REMARK    2  A    between atoms: C3_3  and  N2_7 
REMARK    3  A    between atoms: N3_9  and  C4_11 
ROOT
HETATM    1  C4  UNL     1     -21.541   0.963 -25.217  1.00  0.00     0.191 A 
HETATM    2  O1  UNL     1     -22.498   1.848 -25.032  1.00  0.00    -0.300 OA
HETATM    3  C5  UNL     1     -23.326   1.472 -24.108  1.00  0.00     0.176 A 
HETATM    4  C6  UNL     1     -22.923   0.236 -23.610  1.00  0.00     0.088 A 
HETATM    5  N4  UNL     1     -23.179  -0.759 -22.739  1.00  0.00    -0.330 N 
ATOM      6  H4  UNL     1     -23.952  -0.811 -22.076  1.00  0.00     0.168 HD
HETATM    7  C7  UNL     1     -22.214  -1.662 -22.918  1.00  0.00     0.177 A 
HETATM    8  S1  UNL     1     -22.073  -3.058 -22.101  1.00  0.00    -0.041 SA
HETATM    9  N5  UNL     1     -21.357  -1.266 -23.880  1.00  0.00    -0.328 N 
ATOM     10  H5  UNL     1     -20.536  -1.775 -24.207  1.00  0.00     0.168 HD
HETATM   11  C8  UNL     1     -21.787  -0.073 -24.327  1.00  0.00     0.116 A 
ENDROOT
BRANCH   1  12
HETATM   12  N3  UNL     1     -20.459   1.013 -26.130  1.00  0.00    -0.276 N 
HETATM   13  N2  UNL     1     -20.646   0.657 -27.319  1.00  0.00    -0.284 N 
ATOM     14  H2  UNL     1     -19.882   0.687 -27.994  1.00  0.00     0.188 HD
ATOM     15  H3  UNL     1     -19.540   1.333 -25.824  1.00  0.00     0.189 HD
BRANCH  13  16
HETATM   16  C3  UNL     1     -21.935   0.215 -27.710  1.00  0.00     0.112 C 
HETATM   17  N1  UNL     1     -22.893   1.032 -27.929  1.00  0.00    -0.384 N 
ATOM     18  H12 UNL     1     -23.820   0.714 -28.211  1.00  0.00     0.157 HD
ATOM     19  H11 UNL     1     -22.731   2.034 -27.821  1.00  0.00     0.157 HD
BRANCH  16  20
HETATM   20  C2  UNL     1     -22.163  -1.200 -27.863  1.00  0.00     0.039 C 
HETATM   21  C1  UNL     1     -22.373  -1.792 -29.021  1.00  0.00     0.015 C 
ENDBRANCH  16  20
ENDBRANCH  13  16
ENDBRANCH   1  12
TORSDOF 3
ENDMDL
