MODEL 1
REMARK VINA RESULT: -7.650460193      0.000      0.000
REMARK  4 active torsions:
REMARK  status: ('A' for Active; 'I' for Inactive)
REMARK    1  A    between atoms: C3_5  and  O1_6 
REMARK    2  A    between atoms: C4_8  and  N2_9 
REMARK    3  A    between atoms: N3_11  and  C5_13 
REMARK    4  A    between atoms: C11_19  and  O2_20 
ROOT
HETATM    1  C1  UNL     1     -16.125   1.534 -15.800  1.00  0.00     0.071 C 
HETATM    2  C2  UNL     1     -17.318   0.679 -15.995  1.00  0.00     0.043 A 
HETATM    3  N1  UNL     1     -17.416  -0.629 -15.710  1.00  0.00    -0.336 N 
ATOM      4  H1  UNL     1     -16.679  -1.215 -15.318  1.00  0.00     0.168 HD
HETATM    5  C3  UNL     1     -18.676  -1.036 -16.035  1.00  0.00     0.172 A 
HETATM    6  C4  UNL     1     -19.386   0.029 -16.535  1.00  0.00     0.134 A 
HETATM    7  C11 UNL     1     -18.520   1.113 -16.506  1.00  0.00     0.120 A 
ENDROOT
BRANCH   6   8
HETATM    8  N2  UNL     1     -20.741   0.046 -16.996  1.00  0.00    -0.298 N 
HETATM    9  N3  UNL     1     -21.662   0.261 -16.154  1.00  0.00    -0.331 N 
ATOM     10  H3  UNL     1     -21.390   0.413 -15.183  1.00  0.00     0.180 HD
ATOM     11  H2  UNL     1     -20.960  -0.113 -17.979  1.00  0.00     0.187 HD
BRANCH   9  12
HETATM   12  C5  UNL     1     -23.053   0.306 -16.467  1.00  0.00     0.099 C 
HETATM   13  C6  UNL     1     -23.771   1.454 -15.754  1.00  0.00     0.026 C 
HETATM   14  C7  UNL     1     -25.160   1.497 -16.406  1.00  0.00     0.002 C 
HETATM   15  C8  UNL     1     -25.891   0.278 -15.959  1.00  0.00     0.000 C 
HETATM   16  C9  UNL     1     -25.181  -1.003 -16.158  1.00  0.00     0.002 C 
HETATM   17  C10 UNL     1     -23.703  -0.963 -16.059  1.00  0.00     0.026 C 
ENDBRANCH   9  12
ENDBRANCH   6   8
BRANCH   5  18
HETATM   18  O1  UNL     1     -19.184  -2.328 -15.892  1.00  0.00    -0.344 OA
ATOM     19  H1  UNL     1     -19.668  -2.814 -16.550  1.00  0.00     0.219 HD
ENDBRANCH   5  18
BRANCH   7  20
HETATM   20  O2  UNL     1     -18.793   2.407 -16.915  1.00  0.00    -0.356 OA
ATOM     21  H2  UNL     1     -19.241   2.645 -17.718  1.00  0.00     0.218 HD
ENDBRANCH   7  20
TORSDOF 4
ENDMDL
MODEL 2
REMARK VINA RESULT: -7.162017381      0.813      2.087
REMARK  4 active torsions:
REMARK  status: ('A' for Active; 'I' for Inactive)
REMARK    1  A    between atoms: C3_5  and  O1_6 
REMARK    2  A    between atoms: C4_8  and  N2_9 
REMARK    3  A    between atoms: N3_11  and  C5_13 
REMARK    4  A    between atoms: C11_19  and  O2_20 
ROOT
HETATM    1  C1  UNL     1     -16.311  -1.270 -15.653  1.00  0.00     0.071 C 
HETATM    2  C2  UNL     1     -17.434  -0.434 -16.133  1.00  0.00     0.043 A 
HETATM    3  N1  UNL     1     -17.395   0.884 -16.387  1.00  0.00    -0.336 N 
ATOM      4  H1  UNL     1     -16.582   1.491 -16.281  1.00  0.00     0.168 HD
HETATM    5  C3  UNL     1     -18.633   1.267 -16.810  1.00  0.00     0.172 A 
HETATM    6  C4  UNL     1     -19.469   0.176 -16.824  1.00  0.00     0.134 A 
HETATM    7  C11 UNL     1     -18.703  -0.898 -16.395  1.00  0.00     0.120 A 
ENDROOT
BRANCH   6   8
HETATM    8  N2  UNL     1     -20.849   0.130 -17.200  1.00  0.00    -0.298 N 
HETATM    9  N3  UNL     1     -21.726   0.294 -16.301  1.00  0.00    -0.331 N 
ATOM     10  H3  UNL     1     -21.401   0.452 -15.347  1.00  0.00     0.180 HD
ATOM     11  H2  UNL     1     -21.121  -0.031 -18.170  1.00  0.00     0.187 HD
BRANCH   9  12
HETATM   12  C5  UNL     1     -23.134   0.275 -16.527  1.00  0.00     0.099 C 
HETATM   13  C6  UNL     1     -23.855   1.406 -15.793  1.00  0.00     0.026 C 
HETATM   14  C7  UNL     1     -25.283   1.377 -16.357  1.00  0.00     0.002 C 
HETATM   15  C8  UNL     1     -25.931   0.138 -15.842  1.00  0.00     0.000 C 
HETATM   16  C9  UNL     1     -25.180  -1.115 -16.061  1.00  0.00     0.002 C 
HETATM   17  C10 UNL     1     -23.703  -1.012 -16.056  1.00  0.00     0.026 C 
ENDBRANCH   9  12
ENDBRANCH   6   8
BRANCH   5  18
HETATM   18  O1  UNL     1     -19.012   2.559 -17.175  1.00  0.00    -0.344 OA
ATOM     19  H1  UNL     1     -19.578   2.791 -17.902  1.00  0.00     0.219 HD
ENDBRANCH   5  18
BRANCH   7  20
HETATM   20  O2  UNL     1     -19.120  -2.210 -16.247  1.00  0.00    -0.356 OA
ATOM     21  H2  UNL     1     -19.466  -2.756 -16.943  1.00  0.00     0.218 HD
ENDBRANCH   7  20
TORSDOF 4
ENDMDL
MODEL 3
REMARK VINA RESULT: -6.787885754     10.112     11.103
REMARK  4 active torsions:
REMARK  status: ('A' for Active; 'I' for Inactive)
REMARK    1  A    between atoms: C3_5  and  O1_6 
REMARK    2  A    between atoms: C4_8  and  N2_9 
REMARK    3  A    between atoms: N3_11  and  C5_13 
REMARK    4  A    between atoms: C11_19  and  O2_20 
ROOT
HETATM    1  C1  UNL     1     -21.984  -3.122 -22.010  1.00  0.00     0.071 C 
HETATM    2  C2  UNL     1     -22.142  -1.928 -22.870  1.00  0.00     0.043 A 
HETATM    3  N1  UNL     1     -23.003  -0.916 -22.679  1.00  0.00    -0.336 N 
ATOM      4  H1  UNL     1     -23.670  -0.833 -21.912  1.00  0.00     0.168 HD
HETATM    5  C3  UNL     1     -22.830  -0.020 -23.692  1.00  0.00     0.172 A 
HETATM    6  C4  UNL     1     -21.845  -0.471 -24.538  1.00  0.00     0.134 A 
HETATM    7  C11 UNL     1     -21.413  -1.680 -24.011  1.00  0.00     0.120 A 
ENDROOT
BRANCH   6   8
HETATM    8  N2  UNL     1     -21.348   0.158 -25.724  1.00  0.00    -0.298 N 
HETATM    9  N3  UNL     1     -21.251  -0.536 -26.779  1.00  0.00    -0.331 N 
ATOM     10  H3  UNL     1     -21.535  -1.514 -26.730  1.00  0.00     0.180 HD
ATOM     11  H2  UNL     1     -21.077   1.141 -25.719  1.00  0.00     0.187 HD
BRANCH   9  12
HETATM   12  C5  UNL     1     -20.775  -0.045 -28.031  1.00  0.00     0.099 C 
HETATM   13  C6  UNL     1     -20.856   1.479 -28.125  1.00  0.00     0.026 C 
HETATM   14  C7  UNL     1     -20.075   1.824 -29.401  1.00  0.00     0.002 C 
HETATM   15  C8  UNL     1     -20.888   1.344 -30.554  1.00  0.00     0.000 C 
HETATM   16  C9  UNL     1     -21.325  -0.066 -30.487  1.00  0.00     0.002 C 
HETATM   17  C10 UNL     1     -21.584  -0.615 -29.136  1.00  0.00     0.026 C 
ENDBRANCH   9  12
ENDBRANCH   6   8
BRANCH   5  18
HETATM   18  O1  UNL     1     -23.534   1.172 -23.861  1.00  0.00    -0.344 OA
ATOM     19  H1  UNL     1     -23.539   1.712 -24.644  1.00  0.00     0.219 HD
ENDBRANCH   5  18
BRANCH   7  20
HETATM   20  O2  UNL     1     -20.428  -2.506 -24.525  1.00  0.00    -0.356 OA
ATOM     21  H2  UNL     1     -19.567  -2.221 -24.809  1.00  0.00     0.218 HD
ENDBRANCH   7  20
TORSDOF 4
ENDMDL
MODEL 4
REMARK VINA RESULT: -6.782818801     10.003     10.595
REMARK  4 active torsions:
REMARK  status: ('A' for Active; 'I' for Inactive)
REMARK    1  A    between atoms: C3_5  and  O1_6 
REMARK    2  A    between atoms: C4_8  and  N2_9 
REMARK    3  A    between atoms: N3_11  and  C5_13 
REMARK    4  A    between atoms: C11_19  and  O2_20 
ROOT
HETATM    1  C1  UNL     1     -20.897   3.160 -22.002  1.00  0.00     0.071 C 
HETATM    2  C2  UNL     1     -20.776   1.956 -22.855  1.00  0.00     0.043 A 
HETATM    3  N1  UNL     1     -19.939   0.924 -22.663  1.00  0.00    -0.336 N 
ATOM      4  H1  UNL     1     -19.270   0.828 -21.899  1.00  0.00     0.168 HD
HETATM    5  C3  UNL     1     -20.143   0.026 -23.668  1.00  0.00     0.172 A 
HETATM    6  C4  UNL     1     -21.121   0.497 -24.510  1.00  0.00     0.134 A 
HETATM    7  C11 UNL     1     -21.518   1.720 -23.989  1.00  0.00     0.120 A 
ENDROOT
BRANCH   6   8
HETATM    8  N2  UNL     1     -21.643  -0.127 -25.689  1.00  0.00    -0.298 N 
HETATM    9  N3  UNL     1     -21.739   0.565 -26.745  1.00  0.00    -0.331 N 
ATOM     10  H3  UNL     1     -21.437   1.538 -26.703  1.00  0.00     0.180 HD
ATOM     11  H2  UNL     1     -21.930  -1.105 -25.678  1.00  0.00     0.187 HD
BRANCH   9  12
HETATM   12  C5  UNL     1     -22.238   0.079 -27.990  1.00  0.00     0.099 C 
HETATM   13  C6  UNL     1     -22.339  -1.447 -28.019  1.00  0.00     0.026 C 
HETATM   14  C7  UNL     1     -23.121  -1.752 -29.303  1.00  0.00     0.002 C 
HETATM   15  C8  UNL     1     -22.226  -1.426 -30.449  1.00  0.00     0.000 C 
HETATM   16  C9  UNL     1     -21.624  -0.076 -30.427  1.00  0.00     0.002 C 
HETATM   17  C10 UNL     1     -21.337   0.498 -29.092  1.00  0.00     0.026 C 
ENDBRANCH   9  12
ENDBRANCH   6   8
BRANCH   5  18
HETATM   18  O1  UNL     1     -19.471  -1.185 -23.834  1.00  0.00    -0.344 OA
ATOM     19  H1  UNL     1     -19.352  -1.650 -24.654  1.00  0.00     0.219 HD
ENDBRANCH   5  18
BRANCH   7  20
HETATM   20  O2  UNL     1     -22.485   2.568 -24.502  1.00  0.00    -0.356 OA
ATOM     21  H2  UNL     1     -23.361   2.306 -24.762  1.00  0.00     0.218 HD
ENDBRANCH   7  20
TORSDOF 4
ENDMDL
MODEL 5
REMARK VINA RESULT: -6.732221351     11.052     12.390
REMARK  4 active torsions:
REMARK  status: ('A' for Active; 'I' for Inactive)
REMARK    1  A    between atoms: C3_5  and  O1_6 
REMARK    2  A    between atoms: C4_8  and  N2_9 
REMARK    3  A    between atoms: N3_11  and  C5_13 
REMARK    4  A    between atoms: C11_19  and  O2_20 
ROOT
HETATM    1  C1  UNL     1     -22.677  -0.180 -22.759  1.00  0.00     0.071 C 
HETATM    2  C2  UNL     1     -22.650   0.631 -23.997  1.00  0.00     0.043 A 
HETATM    3  N1  UNL     1     -23.271   1.804 -24.195  1.00  0.00    -0.336 N 
ATOM      4  H1  UNL     1     -23.849   2.299 -23.515  1.00  0.00     0.168 HD
HETATM    5  C3  UNL     1     -22.993   2.218 -25.464  1.00  0.00     0.172 A 
HETATM    6  C4  UNL     1     -22.185   1.293 -26.080  1.00  0.00     0.134 A 
HETATM    7  C11 UNL     1     -21.971   0.290 -25.145  1.00  0.00     0.120 A 
ENDROOT
BRANCH   6   8
HETATM    8  N2  UNL     1     -21.658   1.333 -27.410  1.00  0.00    -0.298 N 
HETATM    9  N3  UNL     1     -20.400   1.346 -27.560  1.00  0.00    -0.331 N 
ATOM     10  H3  UNL     1     -19.823   1.328 -26.720  1.00  0.00     0.180 HD
ATOM     11  H2  UNL     1     -22.280   1.350 -28.218  1.00  0.00     0.187 HD
BRANCH   9  12
HETATM   12  C5  UNL     1     -19.735   1.384 -28.821  1.00  0.00     0.099 C 
HETATM   13  C6  UNL     1     -18.707   2.514 -28.900  1.00  0.00     0.026 C 
HETATM   14  C7  UNL     1     -17.932   2.234 -30.195  1.00  0.00     0.002 C 
HETATM   15  C8  UNL     1     -18.861   2.506 -31.328  1.00  0.00     0.000 C 
HETATM   16  C9  UNL     1     -20.170   1.826 -31.261  1.00  0.00     0.002 C 
HETATM   17  C10 UNL     1     -20.724   1.589 -29.907  1.00  0.00     0.026 C 
ENDBRANCH   9  12
ENDBRANCH   6   8
BRANCH   5  18
HETATM   18  O1  UNL     1     -23.450   3.394 -26.061  1.00  0.00    -0.344 OA
ATOM     19  H1  UNL     1     -24.295   3.516 -26.479  1.00  0.00     0.219 HD
ENDBRANCH   5  18
BRANCH   7  20
HETATM   20  O2  UNL     1     -21.215  -0.857 -25.315  1.00  0.00    -0.356 OA
ATOM     21  H2  UNL     1     -20.325  -0.882 -25.646  1.00  0.00     0.218 HD
ENDBRANCH   7  20
TORSDOF 4
ENDMDL
