MODEL 1
REMARK VINA RESULT: -6.898780737      0.000      0.000
REMARK  5 active torsions:
REMARK  status: ('A' for Active; 'I' for Inactive)
REMARK    1  A    between atoms: O1_1  and  C1_3 
REMARK    2  A    between atoms: C2_4  and  O2_5 
REMARK    3  A    between atoms: C3_7  and  O3_8 
REMARK    4  A    between atoms: N1_10  and  C4_11 
REMARK    5  A    between atoms: C11_18  and  O4_19 
ROOT
HETATM    1  C1  UNL     1     -21.388   0.045 -21.114  1.00  0.00     0.155 A 
HETATM    2  C2  UNL     1     -20.779   1.010 -21.886  1.00  0.00     0.155 A 
HETATM    3  C3  UNL     1     -20.810   0.549 -23.178  1.00  0.00     0.182 A 
HETATM    4  N1  UNL     1     -21.406  -0.650 -23.246  1.00  0.00    -0.288 N 
HETATM    5  C11 UNL     1     -21.762  -0.967 -21.990  1.00  0.00     0.182 A 
ENDROOT
BRANCH   4   6
HETATM    6  C4  UNL     1     -21.644  -1.484 -24.424  1.00  0.00     0.164 C 
HETATM    7  C5  UNL     1     -22.060  -0.811 -25.585  1.00  0.00    -0.157 C 
HETATM    8  C6  UNL     1     -22.386  -0.151 -26.777  1.00  0.00     0.086 C 
HETATM    9  C7  UNL     1     -21.286  -0.549 -27.822  1.00  0.00     0.038 C 
HETATM   10  C8  UNL     1     -20.047  -1.119 -27.135  1.00  0.00    -0.030 C 
HETATM   11  C9  UNL     1     -20.091  -2.280 -26.294  1.00  0.00    -0.028 C 
HETATM   12  C10 UNL     1     -20.290  -2.192 -24.780  1.00  0.00     0.064 C 
ENDBRANCH   4   6
BRANCH   3  13
HETATM   13  O3  UNL     1     -20.299   1.223 -24.266  1.00  0.00    -0.344 OA
ATOM     14  H3  UNL     1     -19.391   1.489 -24.362  1.00  0.00     0.219 HD
ENDBRANCH   3  13
BRANCH   5  15
HETATM   15  O4  UNL     1     -22.406  -2.140 -21.674  1.00  0.00    -0.344 OA
ATOM     16  H4  UNL     1     -23.166  -2.510 -22.106  1.00  0.00     0.219 HD
ENDBRANCH   5  15
BRANCH   2  17
HETATM   17  O2  UNL     1     -20.232   2.223 -21.455  1.00  0.00    -0.354 OA
ATOM     18  H2  UNL     1     -19.704   2.376 -20.680  1.00  0.00     0.218 HD
ENDBRANCH   2  17
BRANCH   1  19
HETATM   19  O1  UNL     1     -21.593   0.064 -19.742  1.00  0.00    -0.354 OA
ATOM     20  H1  UNL     1     -21.359  -0.608 -19.112  1.00  0.00     0.218 HD
ENDBRANCH   1  19
TORSDOF 5
ENDMDL
MODEL 2
REMARK VINA RESULT: -6.892615953      1.567      3.149
REMARK  5 active torsions:
REMARK  status: ('A' for Active; 'I' for Inactive)
REMARK    1  A    between atoms: O1_1  and  C1_3 
REMARK    2  A    between atoms: C2_4  and  O2_5 
REMARK    3  A    between atoms: C3_7  and  O3_8 
REMARK    4  A    between atoms: N1_10  and  C4_11 
REMARK    5  A    between atoms: C11_18  and  O4_19 
ROOT
HETATM    1  C1  UNL     1     -21.567  -0.043 -21.121  1.00  0.00     0.155 A 
HETATM    2  C2  UNL     1     -22.176  -1.008 -21.893  1.00  0.00     0.155 A 
HETATM    3  C3  UNL     1     -22.150  -0.544 -23.184  1.00  0.00     0.182 A 
HETATM    4  N1  UNL     1     -21.558   0.658 -23.251  1.00  0.00    -0.288 N 
HETATM    5  C11 UNL     1     -21.199   0.973 -21.995  1.00  0.00     0.182 A 
ENDROOT
BRANCH   4   6
HETATM    6  C4  UNL     1     -21.326   1.495 -24.427  1.00  0.00     0.164 C 
HETATM    7  C5  UNL     1     -20.896   0.828 -25.586  1.00  0.00    -0.157 C 
HETATM    8  C6  UNL     1     -20.556   0.174 -26.777  1.00  0.00     0.086 C 
HETATM    9  C7  UNL     1     -21.658   0.557 -27.827  1.00  0.00     0.038 C 
HETATM   10  C8  UNL     1     -22.907   1.111 -27.145  1.00  0.00    -0.030 C 
HETATM   11  C9  UNL     1     -22.882   2.272 -26.303  1.00  0.00    -0.028 C 
HETATM   12  C10 UNL     1     -22.688   2.186 -24.789  1.00  0.00     0.064 C 
ENDBRANCH   4   6
BRANCH   3  13
HETATM   13  O3  UNL     1     -22.662  -1.216 -24.272  1.00  0.00    -0.344 OA
ATOM     14  H3  UNL     1     -22.141  -1.665 -24.926  1.00  0.00     0.219 HD
ENDBRANCH   3  13
BRANCH   5  15
HETATM   15  O4  UNL     1     -20.558   2.147 -21.677  1.00  0.00    -0.344 OA
ATOM     16  H4  UNL     1     -19.717   2.446 -22.003  1.00  0.00     0.219 HD
ENDBRANCH   5  15
BRANCH   2  17
HETATM   17  O2  UNL     1     -22.717  -2.224 -21.463  1.00  0.00    -0.354 OA
ATOM     18  H2  UNL     1     -23.053  -2.930 -22.003  1.00  0.00     0.218 HD
ENDBRANCH   2  17
BRANCH   1  19
HETATM   19  O1  UNL     1     -21.358  -0.065 -19.749  1.00  0.00    -0.354 OA
ATOM     20  H1  UNL     1     -21.330   0.677 -19.156  1.00  0.00     0.218 HD
ENDBRANCH   1  19
TORSDOF 5
ENDMDL
MODEL 3
REMARK VINA RESULT: -6.676455035      0.071      2.192
REMARK  5 active torsions:
REMARK  status: ('A' for Active; 'I' for Inactive)
REMARK    1  A    between atoms: O1_1  and  C1_3 
REMARK    2  A    between atoms: C2_4  and  O2_5 
REMARK    3  A    between atoms: C3_7  and  O3_8 
REMARK    4  A    between atoms: N1_10  and  C4_11 
REMARK    5  A    between atoms: C11_18  and  O4_19 
ROOT
HETATM    1  C1  UNL     1     -20.780   0.985 -21.910  1.00  0.00     0.155 A 
HETATM    2  C2  UNL     1     -21.392   0.028 -21.130  1.00  0.00     0.155 A 
HETATM    3  C3  UNL     1     -21.781  -0.975 -21.982  1.00  0.00     0.182 A 
HETATM    4  N1  UNL     1     -21.443  -0.688 -23.248  1.00  0.00    -0.288 N 
HETATM    5  C11 UNL     1     -20.831   0.508 -23.214  1.00  0.00     0.182 A 
ENDROOT
BRANCH   4   6
HETATM    6  C4  UNL     1     -21.670  -1.482 -24.455  1.00  0.00     0.164 C 
HETATM    7  C5  UNL     1     -22.082  -0.772 -25.594  1.00  0.00    -0.157 C 
HETATM    8  C6  UNL     1     -22.404  -0.074 -26.765  1.00  0.00     0.086 C 
HETATM    9  C7  UNL     1     -21.295  -0.431 -27.817  1.00  0.00     0.038 C 
HETATM   10  C8  UNL     1     -20.058  -1.019 -27.142  1.00  0.00    -0.030 C 
HETATM   11  C9  UNL     1     -20.102  -2.208 -26.341  1.00  0.00    -0.028 C 
HETATM   12  C10 UNL     1     -20.311  -2.172 -24.826  1.00  0.00     0.064 C 
ENDBRANCH   4   6
BRANCH   3  13
HETATM   13  O3  UNL     1     -22.434  -2.125 -21.597  1.00  0.00    -0.344 OA
ATOM     14  H3  UNL     1     -23.014  -2.632 -22.153  1.00  0.00     0.219 HD
ENDBRANCH   3  13
BRANCH   5  15
HETATM   15  O4  UNL     1     -20.341   1.125 -24.341  1.00  0.00    -0.344 OA
ATOM     16  H4  UNL     1     -20.036   0.705 -25.136  1.00  0.00     0.219 HD
ENDBRANCH   5  15
BRANCH   2  17
HETATM   17  O2  UNL     1     -21.587   0.056 -19.745  1.00  0.00    -0.354 OA
ATOM     18  H2  UNL     1     -22.247  -0.409 -19.245  1.00  0.00     0.218 HD
ENDBRANCH   2  17
BRANCH   1  19
HETATM   19  O1  UNL     1     -20.223   2.186 -21.492  1.00  0.00    -0.354 OA
ATOM     20  H1  UNL     1     -20.579   3.059 -21.606  1.00  0.00     0.218 HD
ENDBRANCH   1  19
TORSDOF 5
ENDMDL
MODEL 4
REMARK VINA RESULT: -6.674790543      1.553      2.824
REMARK  5 active torsions:
REMARK  status: ('A' for Active; 'I' for Inactive)
REMARK    1  A    between atoms: O1_1  and  C1_3 
REMARK    2  A    between atoms: C2_4  and  O2_5 
REMARK    3  A    between atoms: C3_7  and  O3_8 
REMARK    4  A    between atoms: N1_10  and  C4_11 
REMARK    5  A    between atoms: C11_18  and  O4_19 
ROOT
HETATM    1  C1  UNL     1     -22.166  -0.999 -21.919  1.00  0.00     0.155 A 
HETATM    2  C2  UNL     1     -21.563  -0.038 -21.136  1.00  0.00     0.155 A 
HETATM    3  C3  UNL     1     -21.180   0.968 -21.985  1.00  0.00     0.182 A 
HETATM    4  N1  UNL     1     -21.512   0.681 -23.252  1.00  0.00    -0.288 N 
HETATM    5  C11 UNL     1     -22.115  -0.519 -23.222  1.00  0.00     0.182 A 
ENDROOT
BRANCH   4   6
HETATM    6  C4  UNL     1     -21.288   1.480 -24.457  1.00  0.00     0.164 C 
HETATM    7  C5  UNL     1     -20.876   0.773 -25.600  1.00  0.00    -0.157 C 
HETATM    8  C6  UNL     1     -20.555   0.079 -26.773  1.00  0.00     0.086 C 
HETATM    9  C7  UNL     1     -21.666   0.437 -27.822  1.00  0.00     0.038 C 
HETATM   10  C8  UNL     1     -22.902   1.022 -27.144  1.00  0.00    -0.030 C 
HETATM   11  C9  UNL     1     -22.859   2.209 -26.339  1.00  0.00    -0.028 C 
HETATM   12  C10 UNL     1     -22.648   2.169 -24.825  1.00  0.00     0.064 C 
ENDBRANCH   4   6
BRANCH   3  13
HETATM   13  O3  UNL     1     -20.537   2.123 -21.596  1.00  0.00    -0.344 OA
ATOM     14  H3  UNL     1     -20.613   2.523 -20.738  1.00  0.00     0.219 HD
ENDBRANCH   3  13
BRANCH   5  15
HETATM   15  O4  UNL     1     -22.596  -1.138 -24.352  1.00  0.00    -0.344 OA
ATOM     16  H4  UNL     1     -23.435  -0.989 -24.773  1.00  0.00     0.219 HD
ENDBRANCH   5  15
BRANCH   2  17
HETATM   17  O2  UNL     1     -21.373  -0.068 -19.751  1.00  0.00    -0.354 OA
ATOM     18  H2  UNL     1     -21.997   0.174 -19.076  1.00  0.00     0.218 HD
ENDBRANCH   2  17
BRANCH   1  19
HETATM   19  O1  UNL     1     -22.715  -2.205 -21.505  1.00  0.00    -0.354 OA
ATOM     20  H1  UNL     1     -23.420  -2.336 -20.883  1.00  0.00     0.218 HD
ENDBRANCH   1  19
TORSDOF 5
ENDMDL
MODEL 5
REMARK VINA RESULT: -6.660956934      1.186      2.831
REMARK  5 active torsions:
REMARK  status: ('A' for Active; 'I' for Inactive)
REMARK    1  A    between atoms: O1_1  and  C1_3 
REMARK    2  A    between atoms: C2_4  and  O2_5 
REMARK    3  A    between atoms: C3_7  and  O3_8 
REMARK    4  A    between atoms: N1_10  and  C4_11 
REMARK    5  A    between atoms: C11_18  and  O4_19 
ROOT
HETATM    1  C1  UNL     1     -21.372  -0.150 -21.410  1.00  0.00     0.155 A 
HETATM    2  C2  UNL     1     -22.090  -1.209 -21.921  1.00  0.00     0.155 A 
HETATM    3  C3  UNL     1     -21.985  -1.125 -23.287  1.00  0.00     0.182 A 
HETATM    4  N1  UNL     1     -21.241  -0.069 -23.647  1.00  0.00    -0.288 N 
HETATM    5  C11 UNL     1     -20.862   0.533 -22.507  1.00  0.00     0.182 A 
ENDROOT
BRANCH   4   6
HETATM    6  C4  UNL     1     -20.884   0.378 -24.993  1.00  0.00     0.164 C 
HETATM    7  C5  UNL     1     -20.569  -0.633 -25.917  1.00  0.00    -0.157 C 
HETATM    8  C6  UNL     1     -20.343  -1.625 -26.879  1.00  0.00     0.086 C 
HETATM    9  C7  UNL     1     -21.374  -1.372 -28.034  1.00  0.00     0.038 C 
HETATM   10  C8  UNL     1     -22.517  -0.472 -27.571  1.00  0.00    -0.030 C 
HETATM   11  C9  UNL     1     -22.305   0.854 -27.066  1.00  0.00    -0.028 C 
HETATM   12  C10 UNL     1     -22.121   1.147 -25.576  1.00  0.00     0.064 C 
ENDBRANCH   4   6
BRANCH   3  13
HETATM   13  O3  UNL     1     -22.565  -2.003 -24.176  1.00  0.00    -0.344 OA
ATOM     14  H3  UNL     1     -22.878  -1.771 -25.042  1.00  0.00     0.219 HD
ENDBRANCH   3  13
BRANCH   5  15
HETATM   15  O4  UNL     1     -20.078   1.662 -22.488  1.00  0.00    -0.344 OA
ATOM     16  H4  UNL     1     -19.385   1.888 -23.098  1.00  0.00     0.219 HD
ENDBRANCH   5  15
BRANCH   2  17
HETATM   17  O2  UNL     1     -22.792  -2.185 -21.206  1.00  0.00    -0.354 OA
ATOM     18  H2  UNL     1     -22.495  -3.057 -20.974  1.00  0.00     0.218 HD
ENDBRANCH   2  17
BRANCH   1  19
HETATM   19  O1  UNL     1     -21.188   0.181 -20.075  1.00  0.00    -0.354 OA
ATOM     20  H1  UNL     1     -20.499   0.718 -19.702  1.00  0.00     0.218 HD
ENDBRANCH   1  19
TORSDOF 5
ENDMDL
