MODEL 1
REMARK VINA RESULT: -8.392619706      0.000      0.000
REMARK  2 active torsions:
REMARK  status: ('A' for Active; 'I' for Inactive)
REMARK    1  A    between atoms: C9_10  and  C10_11 
REMARK    2  A    between atoms: C10_11  and  C11_12 
ROOT
HETATM    1 BR1  UNL     1      42.783  63.977  84.933  1.00  0.00    -0.085 Br
HETATM    2  C1  UNL     1      42.520  63.364  83.115  1.00  0.00     0.019 C 
HETATM    3  C2  UNL     1      42.017  61.951  83.172  1.00  0.00     0.025 C 
HETATM    4  C3  UNL     1      41.853  61.342  81.798  1.00  0.00    -0.012 C 
HETATM    5  C4  UNL     1      40.513  61.746  81.272  1.00  0.00     0.005 C 
HETATM    6  C5  UNL     1      40.425  63.040  80.602  1.00  0.00     0.005 C 
HETATM    7  C6  UNL     1      41.411  64.086  80.977  1.00  0.00    -0.012 C 
HETATM    8  C7  UNL     1      41.570  64.300  82.442  1.00  0.00     0.025 C 
HETATM    9  C8  UNL     1      42.748  63.913  80.264  1.00  0.00     0.014 C 
HETATM   10  C9  UNL     1      43.630  62.922  80.979  1.00  0.00    -0.034 C 
HETATM   11  C14 UNL     1      42.990  61.579  80.883  1.00  0.00     0.014 C 
HETATM   12  C15 UNL     1      43.842  63.370  82.425  1.00  0.00     0.030 C 
ENDROOT
BRANCH  10  13
HETATM   13  C10 UNL     1      44.992  62.946  80.332  1.00  0.00     0.057 C 
BRANCH  13  14
HETATM   14  C11 UNL     1      46.006  62.176  81.096  1.00  0.00    -0.000 A 
HETATM   15  C12 UNL     1      46.175  60.823  81.201  1.00  0.00     0.102 A 
HETATM   16  N1  UNL     1      47.145  60.385  81.937  1.00  0.00    -0.368 N 
HETATM   17  C13 UNL     1      47.940  61.240  82.563  1.00  0.00     0.138 A 
ATOM     18  H1  UNL     1      47.297  59.381  82.036  1.00  0.00     0.165 HD
HETATM   19  S1  UNL     1      47.277  62.750  82.082  1.00  0.00    -0.088 SA
ENDBRANCH  13  14
ENDBRANCH  10  13
TORSDOF 2
ENDMDL
MODEL 2
REMARK VINA RESULT: -8.319838116      2.186      2.531
REMARK  2 active torsions:
REMARK  status: ('A' for Active; 'I' for Inactive)
REMARK    1  A    between atoms: C9_10  and  C10_11 
REMARK    2  A    between atoms: C10_11  and  C11_12 
ROOT
HETATM    1 BR1  UNL     1      43.522  64.002  84.319  1.00  0.00    -0.085 Br
HETATM    2  C1  UNL     1      43.032  62.972  82.753  1.00  0.00     0.019 C 
HETATM    3  C2  UNL     1      41.949  62.013  83.153  1.00  0.00     0.025 C 
HETATM    4  C3  UNL     1      41.545  61.097  82.020  1.00  0.00    -0.012 C 
HETATM    5  C4  UNL     1      40.533  61.815  81.185  1.00  0.00     0.005 C 
HETATM    6  C5  UNL     1      41.042  62.711  80.149  1.00  0.00     0.005 C 
HETATM    7  C6  UNL     1      42.387  63.308  80.346  1.00  0.00    -0.012 C 
HETATM    8  C7  UNL     1      42.610  63.925  81.683  1.00  0.00     0.025 C 
HETATM    9  C8  UNL     1      43.514  62.360  79.948  1.00  0.00     0.014 C 
HETATM   10  C9  UNL     1      43.850  61.403  81.063  1.00  0.00    -0.034 C 
HETATM   11  C14 UNL     1      42.678  60.507  81.274  1.00  0.00     0.014 C 
HETATM   12  C15 UNL     1      44.224  62.188  82.319  1.00  0.00     0.030 C 
ENDROOT
BRANCH  10  13
HETATM   13  C10 UNL     1      45.085  60.633  80.669  1.00  0.00     0.057 C 
BRANCH  13  14
HETATM   14  C11 UNL     1      45.409  60.765  79.225  1.00  0.00    -0.000 A 
HETATM   15  C12 UNL     1      44.924  60.063  78.157  1.00  0.00     0.102 A 
HETATM   16  N1  UNL     1      45.365  60.365  76.978  1.00  0.00    -0.368 N 
HETATM   17  C13 UNL     1      46.260  61.330  76.833  1.00  0.00     0.138 A 
ATOM     18  H1  UNL     1      45.022  59.860  76.161  1.00  0.00     0.165 HD
HETATM   19  S1  UNL     1      46.492  61.839  78.457  1.00  0.00    -0.088 SA
ENDBRANCH  13  14
ENDBRANCH  10  13
TORSDOF 2
ENDMDL
MODEL 3
REMARK VINA RESULT: -8.232951567      1.726      2.797
REMARK  2 active torsions:
REMARK  status: ('A' for Active; 'I' for Inactive)
REMARK    1  A    between atoms: C9_10  and  C10_11 
REMARK    2  A    between atoms: C10_11  and  C11_12 
ROOT
HETATM    1 BR1  UNL     1      39.429  62.921  80.207  1.00  0.00    -0.085 Br
HETATM    2  C1  UNL     1      41.123  62.684  81.115  1.00  0.00     0.019 C 
HETATM    3  C2  UNL     1      41.333  63.866  82.016  1.00  0.00     0.025 C 
HETATM    4  C3  UNL     1      42.671  63.824  82.719  1.00  0.00    -0.012 C 
HETATM    5  C4  UNL     1      42.523  62.980  83.943  1.00  0.00     0.005 C 
HETATM    6  C5  UNL     1      42.675  61.536  83.777  1.00  0.00     0.005 C 
HETATM    7  C6  UNL     1      42.374  60.954  82.444  1.00  0.00    -0.012 C 
HETATM    8  C7  UNL     1      41.078  61.384  81.850  1.00  0.00     0.025 C 
HETATM    9  C8  UNL     1      43.537  61.095  81.468  1.00  0.00     0.014 C 
HETATM   10  C9  UNL     1      43.538  62.447  80.801  1.00  0.00    -0.034 C 
HETATM   11  C14 UNL     1      43.812  63.477  81.843  1.00  0.00     0.014 C 
HETATM   12  C15 UNL     1      42.205  62.670  80.089  1.00  0.00     0.030 C 
ENDROOT
BRANCH  10  13
HETATM   13  C10 UNL     1      44.592  62.441  79.722  1.00  0.00     0.057 C 
BRANCH  13  14
HETATM   14  C11 UNL     1      45.832  61.734  80.133  1.00  0.00    -0.000 A 
HETATM   15  C12 UNL     1      46.282  60.492  79.781  1.00  0.00     0.102 A 
HETATM   16  N1  UNL     1      47.408  60.089  80.276  1.00  0.00    -0.368 N 
HETATM   17  C13 UNL     1      48.089  60.874  81.097  1.00  0.00     0.138 A 
ATOM     18  H1  UNL     1      47.771  59.167  80.033  1.00  0.00     0.165 HD
HETATM   19  S1  UNL     1      47.079  62.261  81.174  1.00  0.00    -0.088 SA
ENDBRANCH  13  14
ENDBRANCH  10  13
TORSDOF 2
ENDMDL
MODEL 4
REMARK VINA RESULT: -8.189310092      1.267      1.450
REMARK  2 active torsions:
REMARK  status: ('A' for Active; 'I' for Inactive)
REMARK    1  A    between atoms: C9_10  and  C10_11 
REMARK    2  A    between atoms: C10_11  and  C11_12 
ROOT
HETATM    1 BR1  UNL     1      43.190  63.176  85.083  1.00  0.00    -0.085 Br
HETATM    2  C1  UNL     1      42.717  62.972  83.216  1.00  0.00     0.019 C 
HETATM    3  C2  UNL     1      42.252  61.559  83.011  1.00  0.00     0.025 C 
HETATM    4  C3  UNL     1      41.931  61.264  81.563  1.00  0.00    -0.012 C 
HETATM    5  C4  UNL     1      40.529  61.712  81.301  1.00  0.00     0.005 C 
HETATM    6  C5  UNL     1      40.335  63.118  80.955  1.00  0.00     0.005 C 
HETATM    7  C6  UNL     1      41.339  64.099  81.441  1.00  0.00    -0.012 C 
HETATM    8  C7  UNL     1      41.674  63.989  82.887  1.00  0.00     0.025 C 
HETATM    9  C8  UNL     1      42.582  64.150  80.557  1.00  0.00     0.014 C 
HETATM   10  C9  UNL     1      43.564  63.066  80.923  1.00  0.00    -0.034 C 
HETATM   11  C14 UNL     1      42.943  61.750  80.600  1.00  0.00     0.014 C 
HETATM   12  C15 UNL     1      43.944  63.191  82.398  1.00  0.00     0.030 C 
ENDROOT
BRANCH  10  13
HETATM   13  C10 UNL     1      44.835  63.297  80.144  1.00  0.00     0.057 C 
BRANCH  13  14
HETATM   14  C11 UNL     1      45.629  62.055  79.960  1.00  0.00    -0.000 A 
HETATM   15  C12 UNL     1      46.347  61.337  80.875  1.00  0.00     0.102 A 
HETATM   16  N1  UNL     1      46.965  60.275  80.469  1.00  0.00    -0.368 N 
HETATM   17  C13 UNL     1      46.889  59.911  79.197  1.00  0.00     0.138 A 
ATOM     18  H1  UNL     1      47.509  59.718  81.127  1.00  0.00     0.165 HD
HETATM   19  S1  UNL     1      45.889  61.142  78.540  1.00  0.00    -0.088 SA
ENDBRANCH  13  14
ENDBRANCH  10  13
TORSDOF 2
ENDMDL
MODEL 5
REMARK VINA RESULT: -8.183578421      1.918      2.080
REMARK  2 active torsions:
REMARK  status: ('A' for Active; 'I' for Inactive)
REMARK    1  A    between atoms: C9_10  and  C10_11 
REMARK    2  A    between atoms: C10_11  and  C11_12 
ROOT
HETATM    1 BR1  UNL     1      43.241  61.783  84.979  1.00  0.00    -0.085 Br
HETATM    2  C1  UNL     1      42.726  62.351  83.201  1.00  0.00     0.019 C 
HETATM    3  C2  UNL     1      41.955  61.232  82.564  1.00  0.00     0.025 C 
HETATM    4  C3  UNL     1      41.571  61.539  81.134  1.00  0.00    -0.012 C 
HETATM    5  C4  UNL     1      40.304  62.332  81.158  1.00  0.00     0.005 C 
HETATM    6  C5  UNL     1      40.429  63.777  81.330  1.00  0.00     0.005 C 
HETATM    7  C6  UNL     1      41.630  64.292  82.037  1.00  0.00    -0.012 C 
HETATM    8  C7  UNL     1      41.937  63.614  83.326  1.00  0.00     0.025 C 
HETATM    9  C8  UNL     1      42.849  64.390  81.126  1.00  0.00     0.014 C 
HETATM   10  C9  UNL     1      43.564  63.067  81.016  1.00  0.00    -0.034 C 
HETATM   11  C14 UNL     1      42.662  62.110  80.315  1.00  0.00     0.014 C 
HETATM   12  C15 UNL     1      43.968  62.584  82.408  1.00  0.00     0.030 C 
ENDROOT
BRANCH  10  13
HETATM   13  C10 UNL     1      44.851  63.286  80.261  1.00  0.00     0.057 C 
BRANCH  13  14
HETATM   14  C11 UNL     1      45.299  62.076  79.525  1.00  0.00    -0.000 A 
HETATM   15  C12 UNL     1      45.296  61.824  78.181  1.00  0.00     0.102 A 
HETATM   16  N1  UNL     1      45.743  60.680  77.775  1.00  0.00    -0.368 N 
HETATM   17  C13 UNL     1      46.186  59.793  78.652  1.00  0.00     0.138 A 
ATOM     18  H1  UNL     1      45.753  60.461  76.778  1.00  0.00     0.165 HD
HETATM   19  S1  UNL     1      45.958  60.625  80.137  1.00  0.00    -0.088 SA
ENDBRANCH  13  14
ENDBRANCH  10  13
TORSDOF 2
ENDMDL
