MODEL 1
REMARK VINA RESULT: -9.030809021      0.000      0.000
REMARK  2 active torsions:
REMARK  status: ('A' for Active; 'I' for Inactive)
REMARK    1  A    between atoms: C2_2  and  C3_3 
REMARK    2  A    between atoms: C3_3  and  N1_4 
ROOT
HETATM    1  N1  UNL     1      46.284  61.431  84.398  1.00  0.00    -0.371 N 
ATOM      2  H1  UNL     1      46.467  61.691  85.367  1.00  0.00     0.161 HD
HETATM    3  C4  UNL     1      45.126  61.718  83.998  1.00  0.00     0.120 C 
HETATM    4  C5  UNL     1      44.227  62.386  85.009  1.00  0.00     0.089 C 
HETATM    5  C6  UNL     1      43.231  63.278  84.378  1.00  0.00     0.050 C 
HETATM    6  C7  UNL     1      42.832  62.926  83.017  1.00  0.00    -0.016 A 
HETATM    7  C8  UNL     1      41.676  63.522  82.494  1.00  0.00    -0.043 A 
HETATM    8  C9  UNL     1      41.229  63.255  81.240  1.00  0.00    -0.050 A 
HETATM    9  C10 UNL     1      41.921  62.369  80.430  1.00  0.00     0.029 A 
HETATM   10  C11 UNL     1      43.067  61.764  80.919  1.00  0.00     0.046 A 
HETATM   11 BR1  UNL     1      44.053  60.537  79.850  1.00  0.00    -0.048 Br
HETATM   12  C12 UNL     1      43.516  62.039  82.195  1.00  0.00     0.101 A 
HETATM   13  O1  UNL     1      44.658  61.458  82.726  1.00  0.00    -0.296 OA
HETATM   14  C13 UNL     1      40.026  63.869  80.676  1.00  0.00     0.039 C 
HETATM   15  C14 UNL     1      39.170  64.630  81.627  1.00  0.00     0.005 C 
HETATM   16  C15 UNL     1      39.970  65.344  82.695  1.00  0.00     0.005 C 
HETATM   17  C16 UNL     1      40.954  64.459  83.368  1.00  0.00     0.040 C 
ENDROOT
BRANCH   1  18
HETATM   18  C3  UNL     1      47.378  60.815  83.752  1.00  0.00     0.148 C 
BRANCH  18  19
HETATM   19  C2  UNL     1      48.279  60.012  84.572  1.00  0.00    -0.018 C 
HETATM   20  C1  UNL     1      49.141  59.176  84.011  1.00  0.00     0.008 C 
ENDBRANCH  18  19
ENDBRANCH   1  18
TORSDOF 2
ENDMDL
MODEL 2
REMARK VINA RESULT: -8.755593432      1.298      1.454
REMARK  2 active torsions:
REMARK  status: ('A' for Active; 'I' for Inactive)
REMARK    1  A    between atoms: C2_2  and  C3_3 
REMARK    2  A    between atoms: C3_3  and  N1_4 
ROOT
HETATM    1  N1  UNL     1      46.367  62.567  83.625  1.00  0.00    -0.371 N 
ATOM      2  H1  UNL     1      46.594  63.025  84.507  1.00  0.00     0.161 HD
HETATM    3  C4  UNL     1      45.145  62.607  83.325  1.00  0.00     0.120 C 
HETATM    4  C5  UNL     1      44.248  63.316  84.310  1.00  0.00     0.089 C 
HETATM    5  C6  UNL     1      43.067  63.926  83.661  1.00  0.00     0.050 C 
HETATM    6  C7  UNL     1      42.605  63.275  82.437  1.00  0.00    -0.016 A 
HETATM    7  C8  UNL     1      41.324  63.593  81.965  1.00  0.00    -0.043 A 
HETATM    8  C9  UNL     1      40.812  63.038  80.837  1.00  0.00    -0.050 A 
HETATM    9  C10 UNL     1      41.558  62.124  80.111  1.00  0.00     0.029 A 
HETATM   10  C11 UNL     1      42.828  61.790  80.553  1.00  0.00     0.046 A 
HETATM   11 BR1  UNL     1      43.895  60.539  79.595  1.00  0.00    -0.048 Br
HETATM   12  C12 UNL     1      43.344  62.358  81.701  1.00  0.00     0.101 A 
HETATM   13  O1  UNL     1      44.609  62.053  82.180  1.00  0.00    -0.296 OA
HETATM   14  C13 UNL     1      39.478  63.359  80.327  1.00  0.00     0.039 C 
HETATM   15  C14 UNL     1      38.602  64.153  81.232  1.00  0.00     0.005 C 
HETATM   16  C15 UNL     1      39.373  65.160  82.060  1.00  0.00     0.005 C 
HETATM   17  C16 UNL     1      40.545  64.563  82.749  1.00  0.00     0.040 C 
ENDROOT
BRANCH   1  18
HETATM   18  C3  UNL     1      47.480  62.004  82.965  1.00  0.00     0.148 C 
BRANCH  18  19
HETATM   19  C2  UNL     1      48.513  62.919  82.488  1.00  0.00    -0.018 C 
HETATM   20  C1  UNL     1      49.786  62.552  82.470  1.00  0.00     0.008 C 
ENDBRANCH  18  19
ENDBRANCH   1  18
TORSDOF 2
ENDMDL
MODEL 3
REMARK VINA RESULT: -8.381878375      2.161      3.186
REMARK  2 active torsions:
REMARK  status: ('A' for Active; 'I' for Inactive)
REMARK    1  A    between atoms: C2_2  and  C3_3 
REMARK    2  A    between atoms: C3_3  and  N1_4 
ROOT
HETATM    1  N1  UNL     1      45.584  60.977  81.824  1.00  0.00    -0.371 N 
ATOM      2  H1  UNL     1      45.854  60.367  81.053  1.00  0.00     0.161 HD
HETATM    3  C4  UNL     1      44.590  61.710  81.575  1.00  0.00     0.120 C 
HETATM    4  C5  UNL     1      43.986  61.555  80.200  1.00  0.00     0.089 C 
HETATM    5  C6  UNL     1      42.538  61.855  80.183  1.00  0.00     0.050 C 
HETATM    6  C7  UNL     1      42.071  62.802  81.193  1.00  0.00    -0.016 A 
HETATM    7  C8  UNL     1      40.800  63.370  81.027  1.00  0.00    -0.043 A 
HETATM    8  C9  UNL     1      40.284  64.258  81.914  1.00  0.00    -0.050 A 
HETATM    9  C10 UNL     1      41.017  64.632  83.029  1.00  0.00     0.029 A 
HETATM   10  C11 UNL     1      42.276  64.087  83.221  1.00  0.00     0.046 A 
HETATM   11 BR1  UNL     1      43.324  64.567  84.734  1.00  0.00    -0.048 Br
HETATM   12  C12 UNL     1      42.796  63.184  82.315  1.00  0.00     0.101 A 
HETATM   13  O1  UNL     1      44.050  62.613  82.467  1.00  0.00    -0.296 OA
HETATM   14  C13 UNL     1      38.959  64.860  81.758  1.00  0.00     0.039 C 
HETATM   15  C14 UNL     1      38.286  64.635  80.450  1.00  0.00     0.005 C 
HETATM   16  C15 UNL     1      38.586  63.273  79.861  1.00  0.00     0.005 C 
HETATM   17  C16 UNL     1      40.038  62.963  79.837  1.00  0.00     0.040 C 
ENDROOT
BRANCH   1  18
HETATM   18  C3  UNL     1      46.392  60.846  82.973  1.00  0.00     0.148 C 
BRANCH  18  19
HETATM   19  C2  UNL     1      47.718  61.456  82.937  1.00  0.00    -0.018 C 
HETATM   20  C1  UNL     1      47.857  62.767  82.809  1.00  0.00     0.008 C 
ENDBRANCH  18  19
ENDBRANCH   1  18
TORSDOF 2
ENDMDL
MODEL 4
REMARK VINA RESULT: -8.291826081      2.462      3.560
REMARK  2 active torsions:
REMARK  status: ('A' for Active; 'I' for Inactive)
REMARK    1  A    between atoms: C2_2  and  C3_3 
REMARK    2  A    between atoms: C3_3  and  N1_4 
ROOT
HETATM    1  N1  UNL     1      49.467  60.608  82.735  1.00  0.00    -0.371 N 
ATOM      2  H1  UNL     1      49.790  60.731  83.694  1.00  0.00     0.161 HD
HETATM    3  C4  UNL     1      48.215  60.540  82.619  1.00  0.00     0.120 C 
HETATM    4  C5  UNL     1      47.428  60.653  83.902  1.00  0.00     0.089 C 
HETATM    5  C6  UNL     1      46.088  61.242  83.693  1.00  0.00     0.050 C 
HETATM    6  C7  UNL     1      45.498  61.031  82.373  1.00  0.00    -0.016 A 
HETATM    7  C8  UNL     1      44.125  61.271  82.219  1.00  0.00    -0.043 A 
HETATM    8  C9  UNL     1      43.491  61.102  81.031  1.00  0.00    -0.050 A 
HETATM    9  C10 UNL     1      44.201  60.679  79.918  1.00  0.00     0.029 A 
HETATM   10  C11 UNL     1      45.559  60.433  80.040  1.00  0.00     0.046 A 
HETATM   11 BR1  UNL     1      46.580  59.848  78.545  1.00  0.00    -0.048 Br
HETATM   12  C12 UNL     1      46.198  60.607  81.251  1.00  0.00     0.101 A 
HETATM   13  O1  UNL     1      47.555  60.374  81.419  1.00  0.00    -0.296 OA
HETATM   14  C13 UNL     1      42.060  61.349  80.850  1.00  0.00     0.039 C 
HETATM   15  C14 UNL     1      41.270  61.574  82.091  1.00  0.00     0.005 C 
HETATM   16  C15 UNL     1      42.050  62.312  83.158  1.00  0.00     0.005 C 
HETATM   17  C16 UNL     1      43.388  61.718  83.410  1.00  0.00     0.040 C 
ENDROOT
BRANCH   1  18
HETATM   18  C3  UNL     1      50.505  60.543  81.781  1.00  0.00     0.148 C 
BRANCH  18  19
HETATM   19  C2  UNL     1      51.097  61.804  81.344  1.00  0.00    -0.018 C 
HETATM   20  C1  UNL     1      50.885  62.922  82.023  1.00  0.00     0.008 C 
ENDBRANCH  18  19
ENDBRANCH   1  18
TORSDOF 2
ENDMDL
MODEL 5
REMARK VINA RESULT: -8.185149430      1.760      1.849
REMARK  2 active torsions:
REMARK  status: ('A' for Active; 'I' for Inactive)
REMARK    1  A    between atoms: C2_2  and  C3_3 
REMARK    2  A    between atoms: C3_3  and  N1_4 
ROOT
HETATM    1  N1  UNL     1      47.578  61.706  83.518  1.00  0.00    -0.371 N 
ATOM      2  H1  UNL     1      47.739  61.653  84.524  1.00  0.00     0.161 HD
HETATM    3  C4  UNL     1      46.380  61.928  83.201  1.00  0.00     0.120 C 
HETATM    4  C5  UNL     1      45.411  62.074  84.350  1.00  0.00     0.089 C 
HETATM    5  C6  UNL     1      44.275  62.961  84.021  1.00  0.00     0.050 C 
HETATM    6  C7  UNL     1      43.905  63.026  82.609  1.00  0.00    -0.016 A 
HETATM    7  C8  UNL     1      42.658  63.577  82.279  1.00  0.00    -0.043 A 
HETATM    8  C9  UNL     1      42.230  63.678  80.995  1.00  0.00    -0.050 A 
HETATM    9  C10 UNL     1      43.032  63.230  79.957  1.00  0.00     0.029 A 
HETATM   10  C11 UNL     1      44.270  62.681  80.252  1.00  0.00     0.046 A 
HETATM   11 BR1  UNL     1      45.409  62.048  78.866  1.00  0.00    -0.048 Br
HETATM   12  C12 UNL     1      44.700  62.581  81.560  1.00  0.00     0.101 A 
HETATM   13  O1  UNL     1      45.929  62.039  81.902  1.00  0.00    -0.296 OA
HETATM   14  C13 UNL     1      40.934  64.251  80.631  1.00  0.00     0.039 C 
HETATM   15  C14 UNL     1      39.992  64.510  81.754  1.00  0.00     0.005 C 
HETATM   16  C15 UNL     1      40.695  64.942  83.023  1.00  0.00     0.005 C 
HETATM   17  C16 UNL     1      41.820  64.046  83.392  1.00  0.00     0.040 C 
ENDROOT
BRANCH   1  18
HETATM   18  C3  UNL     1      48.738  61.518  82.738  1.00  0.00     0.148 C 
BRANCH  18  19
HETATM   19  C2  UNL     1      49.522  62.702  82.398  1.00  0.00    -0.018 C 
HETATM   20  C1  UNL     1      50.785  62.591  82.016  1.00  0.00     0.008 C 
ENDBRANCH  18  19
ENDBRANCH   1  18
TORSDOF 2
ENDMDL
