MODEL 1
REMARK VINA RESULT: -7.107446158      0.000      0.000
REMARK  3 active torsions:
REMARK  status: ('A' for Active; 'I' for Inactive)
REMARK    1  A    between atoms: C3_6  and  C4_7 
REMARK    2  A    between atoms: C5_8  and  C6_9 
REMARK    3  A    between atoms: C12_15  and  C13_16 
ROOT
HETATM    1  O1  UNL     1     -23.347   8.196 -14.999  1.00  0.00    -0.267 OA
HETATM    2  C1  UNL     1     -22.686   7.492 -15.821  1.00  0.00     0.261 A 
HETATM    3  C2  UNL     1     -21.351   7.330 -15.545  1.00  0.00     0.163 A 
HETATM    4  N1  UNL     1     -20.625   6.596 -16.392  1.00  0.00    -0.352 N 
ATOM      5  H1  UNL     1     -19.632   6.468 -16.197  1.00  0.00     0.166 HD
HETATM    6  C3  UNL     1     -21.158   6.001 -17.519  1.00  0.00     0.115 A 
HETATM    7  C12 UNL     1     -22.489   6.188 -17.748  1.00  0.00     0.081 A 
HETATM    8  N2  UNL     1     -23.244   6.949 -16.876  1.00  0.00    -0.319 N 
ATOM      9  H2  UNL     1     -24.239   7.087 -17.053  1.00  0.00     0.169 HD
ENDROOT
BRANCH   6  10
HETATM   10  C4  UNL     1     -20.244   5.318 -18.399  1.00  0.00    -0.041 C 
HETATM   11  C5  UNL     1     -19.487   4.705 -19.113  1.00  0.00    -0.060 C 
BRANCH  11  12
HETATM   12  C6  UNL     1     -18.582   3.975 -19.959  1.00  0.00     0.018 A 
HETATM   13  C7  UNL     1     -17.381   4.531 -20.308  1.00  0.00     0.020 A 
HETATM   14  C8  UNL     1     -16.511   3.833 -21.117  1.00  0.00     0.001 A 
HETATM   15  C9  UNL     1     -16.839   2.560 -21.591  1.00  0.00     0.000 A 
HETATM   16  C10 UNL     1     -18.036   1.991 -21.251  1.00  0.00     0.001 A 
HETATM   17  C11 UNL     1     -18.889   2.711 -20.439  1.00  0.00     0.020 A 
ENDBRANCH  11  12
ENDBRANCH   6  10
BRANCH   7  18
HETATM   18  C13 UNL     1     -23.130   5.667 -18.932  1.00  0.00    -0.005 A 
HETATM   19  C14 UNL     1     -23.754   6.581 -19.779  1.00  0.00     0.014 A 
HETATM   20  C15 UNL     1     -24.461   6.174 -20.863  1.00  0.00     0.003 A 
HETATM   21  C16 UNL     1     -24.596   4.844 -21.177  1.00  0.00     0.024 A 
HETATM   22  C17 UNL     1     -23.996   3.924 -20.364  1.00  0.00     0.035 A 
HETATM   23 CL1  UNL     1     -24.154   2.216 -20.745  1.00  0.00    -0.084 Cl
HETATM   24  C18 UNL     1     -23.266   4.362 -19.242  1.00  0.00     0.037 A 
ENDBRANCH   7  18
TORSDOF 3
ENDMDL
MODEL 2
REMARK VINA RESULT: -7.086334741      1.183      1.529
REMARK  3 active torsions:
REMARK  status: ('A' for Active; 'I' for Inactive)
REMARK    1  A    between atoms: C3_6  and  C4_7 
REMARK    2  A    between atoms: C5_8  and  C6_9 
REMARK    3  A    between atoms: C12_15  and  C13_16 
ROOT
HETATM    1  O1  UNL     1     -23.627   8.438 -14.755  1.00  0.00    -0.267 OA
HETATM    2  C1  UNL     1     -22.991   7.723 -15.586  1.00  0.00     0.261 A 
HETATM    3  C2  UNL     1     -21.660   7.522 -15.320  1.00  0.00     0.163 A 
HETATM    4  N1  UNL     1     -20.959   6.775 -16.177  1.00  0.00    -0.352 N 
ATOM      5  H1  UNL     1     -19.969   6.619 -15.990  1.00  0.00     0.166 HD
HETATM    6  C3  UNL     1     -21.515   6.203 -17.305  1.00  0.00     0.115 A 
HETATM    7  C12 UNL     1     -22.842   6.429 -17.524  1.00  0.00     0.081 A 
HETATM    8  N2  UNL     1     -23.570   7.203 -16.641  1.00  0.00    -0.319 N 
ATOM      9  H2  UNL     1     -24.562   7.370 -16.811  1.00  0.00     0.169 HD
ENDROOT
BRANCH   6  10
HETATM   10  C4  UNL     1     -20.626   5.502 -18.196  1.00  0.00    -0.041 C 
HETATM   11  C5  UNL     1     -19.862   4.893 -18.905  1.00  0.00    -0.060 C 
BRANCH  11  12
HETATM   12  C6  UNL     1     -18.948   4.169 -19.748  1.00  0.00     0.018 A 
HETATM   13  C7  UNL     1     -17.710   4.691 -20.010  1.00  0.00     0.020 A 
HETATM   14  C8  UNL     1     -16.831   3.999 -20.816  1.00  0.00     0.001 A 
HETATM   15  C9  UNL     1     -17.187   2.768 -21.372  1.00  0.00     0.000 A 
HETATM   16  C10 UNL     1     -18.421   2.234 -21.119  1.00  0.00     0.001 A 
HETATM   17  C11 UNL     1     -19.282   2.946 -20.309  1.00  0.00     0.020 A 
ENDBRANCH  11  12
ENDBRANCH   6  10
BRANCH   7  18
HETATM   18  C13 UNL     1     -23.505   5.935 -18.708  1.00  0.00    -0.005 A 
HETATM   19  C14 UNL     1     -23.817   4.578 -18.751  1.00  0.00     0.014 A 
HETATM   20  C15 UNL     1     -24.354   4.009 -19.858  1.00  0.00     0.003 A 
HETATM   21  C16 UNL     1     -24.614   4.741 -20.991  1.00  0.00     0.024 A 
HETATM   22  C17 UNL     1     -24.317   6.075 -20.979  1.00  0.00     0.035 A 
HETATM   23 CL1  UNL     1     -24.642   7.034 -22.415  1.00  0.00    -0.084 Cl
HETATM   24  C18 UNL     1     -23.760   6.651 -19.821  1.00  0.00     0.037 A 
ENDBRANCH   7  18
TORSDOF 3
ENDMDL
MODEL 3
REMARK VINA RESULT: -7.085836938      0.071      1.017
REMARK  3 active torsions:
REMARK  status: ('A' for Active; 'I' for Inactive)
REMARK    1  A    between atoms: C3_6  and  C4_7 
REMARK    2  A    between atoms: C5_8  and  C6_9 
REMARK    3  A    between atoms: C12_15  and  C13_16 
ROOT
HETATM    1  O1  UNL     1     -23.356   8.230 -15.008  1.00  0.00    -0.267 OA
HETATM    2  C1  UNL     1     -22.702   7.520 -15.829  1.00  0.00     0.261 A 
HETATM    3  C2  UNL     1     -21.370   7.339 -15.550  1.00  0.00     0.163 A 
HETATM    4  N1  UNL     1     -20.651   6.598 -16.397  1.00  0.00    -0.352 N 
ATOM      5  H1  UNL     1     -19.661   6.456 -16.199  1.00  0.00     0.166 HD
HETATM    6  C3  UNL     1     -21.188   6.015 -17.527  1.00  0.00     0.115 A 
HETATM    7  C12 UNL     1     -22.515   6.221 -17.761  1.00  0.00     0.081 A 
HETATM    8  N2  UNL     1     -23.263   6.988 -16.888  1.00  0.00    -0.319 N 
ATOM      9  H2  UNL     1     -24.255   7.142 -17.069  1.00  0.00     0.169 HD
ENDROOT
BRANCH   6  10
HETATM   10  C4  UNL     1     -20.280   5.322 -18.407  1.00  0.00    -0.041 C 
HETATM   11  C5  UNL     1     -19.529   4.702 -19.120  1.00  0.00    -0.060 C 
BRANCH  11  12
HETATM   12  C6  UNL     1     -18.630   3.962 -19.965  1.00  0.00     0.018 A 
HETATM   13  C7  UNL     1     -18.998   2.727 -20.429  1.00  0.00     0.020 A 
HETATM   14  C8  UNL     1     -18.140   2.016 -21.240  1.00  0.00     0.001 A 
HETATM   15  C9  UNL     1     -16.894   2.538 -21.597  1.00  0.00     0.000 A 
HETATM   16  C10 UNL     1     -16.513   3.771 -21.141  1.00  0.00     0.001 A 
HETATM   17  C11 UNL     1     -17.391   4.463 -20.331  1.00  0.00     0.020 A 
ENDBRANCH  11  12
ENDBRANCH   6  10
BRANCH   7  18
HETATM   18  C13 UNL     1     -23.159   5.714 -18.950  1.00  0.00    -0.005 A 
HETATM   19  C14 UNL     1     -23.743   6.641 -19.809  1.00  0.00     0.014 A 
HETATM   20  C15 UNL     1     -24.449   6.251 -20.900  1.00  0.00     0.003 A 
HETATM   21  C16 UNL     1     -24.624   4.924 -21.207  1.00  0.00     0.024 A 
HETATM   22  C17 UNL     1     -24.064   3.990 -20.382  1.00  0.00     0.035 A 
HETATM   23 CL1  UNL     1     -24.271   2.286 -20.754  1.00  0.00    -0.084 Cl
HETATM   24  C18 UNL     1     -23.333   4.412 -19.253  1.00  0.00     0.037 A 
ENDBRANCH   7  18
TORSDOF 3
ENDMDL
MODEL 4
REMARK VINA RESULT: -7.004224668      3.399      6.398
REMARK  3 active torsions:
REMARK  status: ('A' for Active; 'I' for Inactive)
REMARK    1  A    between atoms: C3_6  and  C4_7 
REMARK    2  A    between atoms: C5_8  and  C6_9 
REMARK    3  A    between atoms: C12_15  and  C13_16 
ROOT
HETATM    1  O1  UNL     1     -16.005   2.652 -21.843  1.00  0.00    -0.267 OA
HETATM    2  C1  UNL     1     -16.943   3.170 -21.166  1.00  0.00     0.261 A 
HETATM    3  C2  UNL     1     -16.646   4.341 -20.515  1.00  0.00     0.163 A 
HETATM    4  N1  UNL     1     -17.611   4.913 -19.790  1.00  0.00    -0.352 N 
ATOM      5  H1  UNL     1     -17.402   5.784 -19.303  1.00  0.00     0.166 HD
HETATM    6  C3  UNL     1     -18.879   4.379 -19.672  1.00  0.00     0.115 A 
HETATM    7  C12 UNL     1     -19.126   3.216 -20.340  1.00  0.00     0.081 A 
HETATM    8  N2  UNL     1     -18.131   2.620 -21.089  1.00  0.00    -0.319 N 
ATOM      9  H2  UNL     1     -18.320   1.749 -21.585  1.00  0.00     0.169 HD
ENDROOT
BRANCH   6  10
HETATM   10  C4  UNL     1     -19.795   5.044 -18.781  1.00  0.00    -0.041 C 
HETATM   11  C5  UNL     1     -20.533   5.639 -18.032  1.00  0.00    -0.060 C 
BRANCH  11  12
HETATM   12  C6  UNL     1     -21.407   6.346 -17.135  1.00  0.00     0.018 A 
HETATM   13  C7  UNL     1     -22.764   6.259 -17.301  1.00  0.00     0.020 A 
HETATM   14  C8  UNL     1     -23.604   6.935 -16.443  1.00  0.00     0.001 A 
HETATM   15  C9  UNL     1     -23.090   7.713 -15.402  1.00  0.00     0.000 A 
HETATM   16  C10 UNL     1     -21.736   7.810 -15.224  1.00  0.00     0.001 A 
HETATM   17  C11 UNL     1     -20.917   7.123 -16.097  1.00  0.00     0.020 A 
ENDBRANCH  11  12
ENDBRANCH   6  10
BRANCH   7  18
HETATM   18  C13 UNL     1     -20.397   2.538 -20.228  1.00  0.00    -0.005 A 
HETATM   19  C14 UNL     1     -20.441   1.193 -20.587  1.00  0.00     0.014 A 
HETATM   20  C15 UNL     1     -21.608   0.501 -20.603  1.00  0.00     0.003 A 
HETATM   21  C16 UNL     1     -22.801   1.094 -20.268  1.00  0.00     0.024 A 
HETATM   22  C17 UNL     1     -22.789   2.413 -19.913  1.00  0.00     0.035 A 
HETATM   23 CL1  UNL     1     -24.302   3.194 -19.479  1.00  0.00    -0.084 Cl
HETATM   24  C18 UNL     1     -21.570   3.118 -19.901  1.00  0.00     0.037 A 
ENDBRANCH   7  18
TORSDOF 3
ENDMDL
MODEL 5
REMARK VINA RESULT: -6.691436723      5.360      9.145
REMARK  3 active torsions:
REMARK  status: ('A' for Active; 'I' for Inactive)
REMARK    1  A    between atoms: C3_6  and  C4_7 
REMARK    2  A    between atoms: C5_8  and  C6_9 
REMARK    3  A    between atoms: C12_15  and  C13_16 
ROOT
HETATM    1  O1  UNL     1     -19.968   6.986 -15.456  1.00  0.00    -0.267 OA
HETATM    2  C1  UNL     1     -21.064   7.620 -15.389  1.00  0.00     0.261 A 
HETATM    3  C2  UNL     1     -20.991   8.978 -15.572  1.00  0.00     0.163 A 
HETATM    4  N1  UNL     1     -22.127   9.677 -15.505  1.00  0.00    -0.352 N 
ATOM      5  H1  UNL     1     -22.085  10.688 -15.640  1.00  0.00     0.166 HD
HETATM    6  C3  UNL     1     -23.355   9.094 -15.264  1.00  0.00     0.115 A 
HETATM    7  C12 UNL     1     -23.376   7.742 -15.092  1.00  0.00     0.081 A 
HETATM    8  N2  UNL     1     -22.204   7.015 -15.158  1.00  0.00    -0.319 N 
ATOM      9  H2  UNL     1     -22.225   6.003 -15.027  1.00  0.00     0.169 HD
ENDROOT
BRANCH   6  10
HETATM   10  C4  UNL     1     -24.487   9.975 -15.120  1.00  0.00    -0.041 C 
HETATM   11  C5  UNL     1     -25.430  10.711 -14.952  1.00  0.00    -0.060 C 
BRANCH  11  12
HETATM   12  C6  UNL     1     -26.556  11.582 -14.750  1.00  0.00     0.018 A 
HETATM   13  C7  UNL     1     -26.841  12.549 -15.677  1.00  0.00     0.020 A 
HETATM   14  C8  UNL     1     -27.920  13.385 -15.487  1.00  0.00     0.001 A 
HETATM   15  C9  UNL     1     -28.731  13.261 -14.356  1.00  0.00     0.000 A 
HETATM   16  C10 UNL     1     -28.459  12.300 -13.420  1.00  0.00     0.001 A 
HETATM   17  C11 UNL     1     -27.373  11.475 -13.635  1.00  0.00     0.020 A 
ENDBRANCH  11  12
ENDBRANCH   6  10
BRANCH   7  18
HETATM   18  C13 UNL     1     -24.597   7.043 -14.767  1.00  0.00    -0.005 A 
HETATM   19  C14 UNL     1     -24.961   6.977 -13.423  1.00  0.00     0.014 A 
HETATM   20  C15 UNL     1     -26.040   6.263 -13.015  1.00  0.00     0.003 A 
HETATM   21  C16 UNL     1     -26.823   5.570 -13.905  1.00  0.00     0.024 A 
HETATM   22  C17 UNL     1     -26.491   5.616 -15.230  1.00  0.00     0.035 A 
HETATM   23 CL1  UNL     1     -27.479   4.739 -16.388  1.00  0.00    -0.084 Cl
HETATM   24  C18 UNL     1     -25.368   6.361 -15.638  1.00  0.00     0.037 A 
ENDBRANCH   7  18
TORSDOF 3
ENDMDL
