MODEL 1
REMARK VINA RESULT: -8.340223473      0.000      0.000
REMARK  8 active torsions:
REMARK  status: ('A' for Active; 'I' for Inactive)
REMARK    1  A    between atoms: C2_2  and  C3_3 
REMARK    2  A    between atoms: C3_3  and  N1_4 
REMARK    3  A    between atoms: C3_3  and  C4_8 
REMARK    4  A    between atoms: C7_11  and  C8_12 
REMARK    5  A    between atoms: C8_12  and  C9_13 
REMARK    6  A    between atoms: C11_18  and  C12_19 
REMARK    7  A    between atoms: C12_19  and  C13_20 
REMARK    8  A    between atoms: C17_24  and  O2_25 
ROOT
HETATM    1  C9  UNL     1     -21.422   2.631 -18.234  1.00  0.00     0.046 A 
HETATM    2  C10 UNL     1     -20.791   3.830 -17.922  1.00  0.00     0.257 A 
HETATM    3  O1  UNL     1     -19.527   3.918 -17.942  1.00  0.00    -0.267 OA
HETATM    4  N2  UNL     1     -21.509   4.928 -17.592  1.00  0.00    -0.322 N 
ATOM      5  H2  UNL     1     -21.013   5.791 -17.369  1.00  0.00     0.169 HD
HETATM    6  C11 UNL     1     -22.867   4.923 -17.547  1.00  0.00     0.047 A 
HETATM    7  C20 UNL     1     -23.495   3.762 -17.847  1.00  0.00     0.005 A 
HETATM    8  C21 UNL     1     -24.872   3.680 -17.822  1.00  0.00     0.056 A 
HETATM    9  C22 UNL     1     -25.577   2.525 -18.118  1.00  0.00     0.117 A 
HETATM   10  F1  UNL     1     -26.931   2.565 -18.060  1.00  0.00    -0.206 F 
HETATM   11  C23 UNL     1     -24.878   1.404 -18.454  1.00  0.00     0.043 A 
HETATM   12  C24 UNL     1     -23.480   1.423 -18.498  1.00  0.00     0.016 A 
HETATM   13  C25 UNL     1     -22.813   2.586 -18.197  1.00  0.00    -0.008 A 
ENDROOT
BRANCH   1  14
HETATM   14  C8  UNL     1     -20.717   1.587 -18.548  1.00  0.00     0.055 C 
BRANCH  14  15
HETATM   15  C7  UNL     1     -20.019   1.365 -19.815  1.00  0.00     0.076 A 
HETATM   16  C6  UNL     1     -20.624   1.391 -21.073  1.00  0.00     0.040 A 
HETATM   17  C5  UNL     1     -19.652   1.135 -21.999  1.00  0.00     0.038 A 
HETATM   18  C4  UNL     1     -18.488   0.960 -21.282  1.00  0.00     0.084 A 
HETATM   19  O3  UNL     1     -18.753   1.106 -20.009  1.00  0.00    -0.313 OA
BRANCH  18  20
HETATM   20  C3  UNL     1     -17.161   0.660 -21.851  1.00  0.00     0.240 C 
BRANCH  20  21
HETATM   21  C2  UNL     1     -16.110   1.241 -20.943  1.00  0.00     0.035 C 
HETATM   22  C1  UNL     1     -15.292   0.214 -20.230  1.00  0.00     0.007 C 
ENDBRANCH  20  21
BRANCH  20  23
HETATM   23  N1  UNL     1     -17.022  -0.774 -21.999  1.00  0.00    -0.069 N 
ATOM     24  H13 UNL     1     -16.954  -1.040 -22.981  1.00  0.00     0.275 HD
ATOM     25  H12 UNL     1     -16.105  -1.091 -21.682  1.00  0.00     0.275 HD
ATOM     26  H11 UNL     1     -17.771  -1.282 -21.529  1.00  0.00     0.275 HD
ENDBRANCH  20  23
ENDBRANCH  18  20
ENDBRANCH  14  15
ENDBRANCH   1  14
BRANCH   6  27
HETATM   27  C12 UNL     1     -23.476   6.041 -17.215  1.00  0.00     0.042 C 
BRANCH  27  28
HETATM   28  C13 UNL     1     -23.594   6.447 -15.802  1.00  0.00    -0.031 A 
HETATM   29  C14 UNL     1     -24.759   6.410 -15.097  1.00  0.00     0.011 A 
HETATM   30  C15 UNL     1     -24.768   6.811 -13.777  1.00  0.00     0.004 A 
HETATM   31  C16 UNL     1     -23.596   7.252 -13.168  1.00  0.00     0.037 A 
HETATM   32  C17 UNL     1     -22.414   7.294 -13.870  1.00  0.00     0.069 A 
HETATM   33  C19 UNL     1     -22.437   6.888 -15.183  1.00  0.00     0.048 A 
BRANCH  32  34
HETATM   34  O2  UNL     1     -21.231   7.727 -13.290  1.00  0.00    -0.356 OA
HETATM   35  C18 UNL     1     -21.009   9.113 -13.098  1.00  0.00     0.210 C 
ENDBRANCH  32  34
ENDBRANCH  27  28
ENDBRANCH   6  27
TORSDOF 8
ENDMDL
MODEL 2
REMARK VINA RESULT: -8.094772889      1.914      8.625
REMARK  8 active torsions:
REMARK  status: ('A' for Active; 'I' for Inactive)
REMARK    1  A    between atoms: C2_2  and  C3_3 
REMARK    2  A    between atoms: C3_3  and  N1_4 
REMARK    3  A    between atoms: C3_3  and  C4_8 
REMARK    4  A    between atoms: C7_11  and  C8_12 
REMARK    5  A    between atoms: C8_12  and  C9_13 
REMARK    6  A    between atoms: C11_18  and  C12_19 
REMARK    7  A    between atoms: C12_19  and  C13_20 
REMARK    8  A    between atoms: C17_24  and  O2_25 
ROOT
HETATM    1  C9  UNL     1     -22.490   5.178 -16.979  1.00  0.00     0.046 A 
HETATM    2  C10 UNL     1     -21.207   4.659 -16.840  1.00  0.00     0.257 A 
HETATM    3  O1  UNL     1     -20.304   5.323 -16.249  1.00  0.00    -0.267 OA
HETATM    4  N2  UNL     1     -20.894   3.438 -17.331  1.00  0.00    -0.322 N 
ATOM      5  H2  UNL     1     -19.943   3.089 -17.211  1.00  0.00     0.169 HD
HETATM    6  C11 UNL     1     -21.800   2.659 -17.977  1.00  0.00     0.047 A 
HETATM    7  C20 UNL     1     -23.053   3.151 -18.121  1.00  0.00     0.005 A 
HETATM    8  C21 UNL     1     -24.027   2.418 -18.767  1.00  0.00     0.056 A 
HETATM    9  C22 UNL     1     -25.326   2.861 -18.948  1.00  0.00     0.117 A 
HETATM   10  F1  UNL     1     -26.197   2.052 -19.600  1.00  0.00    -0.206 F 
HETATM   11  C23 UNL     1     -25.669   4.088 -18.464  1.00  0.00     0.043 A 
HETATM   12  C24 UNL     1     -24.727   4.880 -17.799  1.00  0.00     0.016 A 
HETATM   13  C25 UNL     1     -23.446   4.410 -17.637  1.00  0.00    -0.008 A 
ENDROOT
BRANCH   1  14
HETATM   14  C8  UNL     1     -22.773   6.352 -16.503  1.00  0.00     0.055 C 
BRANCH  14  15
HETATM   15  C7  UNL     1     -23.214   6.647 -15.138  1.00  0.00     0.076 A 
HETATM   16  C6  UNL     1     -22.473   7.368 -14.201  1.00  0.00     0.040 A 
HETATM   17  C5  UNL     1     -23.212   7.425 -13.053  1.00  0.00     0.038 A 
HETATM   18  C4  UNL     1     -24.377   6.740 -13.323  1.00  0.00     0.084 A 
HETATM   19  O3  UNL     1     -24.332   6.304 -14.556  1.00  0.00    -0.313 OA
BRANCH  18  20
HETATM   20  C3  UNL     1     -25.493   6.531 -12.382  1.00  0.00     0.240 C 
BRANCH  20  21
HETATM   21  C2  UNL     1     -25.969   7.875 -11.899  1.00  0.00     0.035 C 
HETATM   22  C1  UNL     1     -26.588   7.846 -10.540  1.00  0.00     0.007 C 
ENDBRANCH  20  21
BRANCH  20  23
HETATM   23  N1  UNL     1     -26.543   5.789 -13.049  1.00  0.00    -0.069 N 
ATOM     24  H13 UNL     1     -26.580   4.824 -12.721  1.00  0.00     0.275 HD
ATOM     25  H12 UNL     1     -27.466   6.098 -12.742  1.00  0.00     0.275 HD
ATOM     26  H11 UNL     1     -26.457   5.832 -14.064  1.00  0.00     0.275 HD
ENDBRANCH  20  23
ENDBRANCH  18  20
ENDBRANCH  14  15
ENDBRANCH   1  14
BRANCH   6  27
HETATM   27  C12 UNL     1     -21.400   1.486 -18.419  1.00  0.00     0.042 C 
BRANCH  27  28
HETATM   28  C13 UNL     1     -20.666   1.368 -19.693  1.00  0.00    -0.031 A 
HETATM   29  C14 UNL     1     -21.233   0.947 -20.858  1.00  0.00     0.011 A 
HETATM   30  C15 UNL     1     -20.462   0.869 -21.999  1.00  0.00     0.004 A 
HETATM   31  C16 UNL     1     -19.114   1.217 -21.964  1.00  0.00     0.037 A 
HETATM   32  C17 UNL     1     -18.531   1.643 -20.792  1.00  0.00     0.069 A 
HETATM   33  C19 UNL     1     -19.325   1.710 -19.672  1.00  0.00     0.048 A 
BRANCH  32  34
HETATM   34  O2  UNL     1     -17.192   1.997 -20.726  1.00  0.00    -0.356 OA
HETATM   35  C18 UNL     1     -16.209   0.994 -20.541  1.00  0.00     0.210 C 
ENDBRANCH  32  34
ENDBRANCH  27  28
ENDBRANCH   6  27
TORSDOF 8
ENDMDL
MODEL 3
REMARK VINA RESULT: -7.966131741      4.085      6.743
REMARK  8 active torsions:
REMARK  status: ('A' for Active; 'I' for Inactive)
REMARK    1  A    between atoms: C2_2  and  C3_3 
REMARK    2  A    between atoms: C3_3  and  N1_4 
REMARK    3  A    between atoms: C3_3  and  C4_8 
REMARK    4  A    between atoms: C7_11  and  C8_12 
REMARK    5  A    between atoms: C8_12  and  C9_13 
REMARK    6  A    between atoms: C11_18  and  C12_19 
REMARK    7  A    between atoms: C12_19  and  C13_20 
REMARK    8  A    between atoms: C17_24  and  O2_25 
ROOT
HETATM    1  C9  UNL     1     -25.192   5.910 -15.557  1.00  0.00     0.046 A 
HETATM    2  C10 UNL     1     -26.227   5.270 -14.883  1.00  0.00     0.257 A 
HETATM    3  O1  UNL     1     -26.989   4.462 -15.493  1.00  0.00    -0.267 OA
HETATM    4  N2  UNL     1     -26.443   5.494 -13.567  1.00  0.00    -0.322 N 
ATOM      5  H2  UNL     1     -27.212   5.008 -13.105  1.00  0.00     0.169 HD
HETATM    6  C11 UNL     1     -25.674   6.344 -12.837  1.00  0.00     0.047 A 
HETATM    7  C20 UNL     1     -24.663   6.975 -13.479  1.00  0.00     0.005 A 
HETATM    8  C21 UNL     1     -23.840   7.853 -12.804  1.00  0.00     0.056 A 
HETATM    9  C22 UNL     1     -22.789   8.530 -13.399  1.00  0.00     0.117 A 
HETATM   10  F1  UNL     1     -22.048   9.368 -12.634  1.00  0.00    -0.206 F 
HETATM   11  C23 UNL     1     -22.549   8.323 -14.725  1.00  0.00     0.043 A 
HETATM   12  C24 UNL     1     -23.347   7.444 -15.465  1.00  0.00     0.016 A 
HETATM   13  C25 UNL     1     -24.382   6.789 -14.843  1.00  0.00    -0.008 A 
ENDROOT
BRANCH   1  14
HETATM   14  C8  UNL     1     -24.998   5.684 -16.820  1.00  0.00     0.055 C 
BRANCH  14  15
HETATM   15  C7  UNL     1     -24.171   4.619 -17.390  1.00  0.00     0.076 A 
HETATM   16  C6  UNL     1     -24.657   3.398 -17.860  1.00  0.00     0.040 A 
HETATM   17  C5  UNL     1     -23.585   2.676 -18.305  1.00  0.00     0.038 A 
HETATM   18  C4  UNL     1     -22.482   3.475 -18.093  1.00  0.00     0.084 A 
HETATM   19  O3  UNL     1     -22.875   4.602 -17.557  1.00  0.00    -0.313 OA
BRANCH  18  20
HETATM   20  C3  UNL     1     -21.087   3.122 -18.417  1.00  0.00     0.240 C 
BRANCH  20  21
HETATM   21  C2  UNL     1     -20.183   4.190 -17.861  1.00  0.00     0.035 C 
HETATM   22  C1  UNL     1     -19.085   4.596 -18.789  1.00  0.00     0.007 C 
ENDBRANCH  20  21
BRANCH  20  23
HETATM   23  N1  UNL     1     -20.788   1.815 -17.865  1.00  0.00    -0.069 N 
ATOM     24  H13 UNL     1     -20.014   1.373 -18.361  1.00  0.00     0.275 HD
ATOM     25  H12 UNL     1     -20.364   1.892 -16.940  1.00  0.00     0.275 HD
ATOM     26  H11 UNL     1     -21.609   1.210 -17.847  1.00  0.00     0.275 HD
ENDBRANCH  20  23
ENDBRANCH  18  20
ENDBRANCH  14  15
ENDBRANCH   1  14
BRANCH   6  27
HETATM   27  C12 UNL     1     -25.964   6.496 -11.563  1.00  0.00     0.042 C 
BRANCH  27  28
HETATM   28  C13 UNL     1     -26.904   7.543 -11.120  1.00  0.00    -0.031 A 
HETATM   29  C14 UNL     1     -26.539   8.624 -10.376  1.00  0.00     0.011 A 
HETATM   30  C15 UNL     1     -27.494   9.550 -10.011  1.00  0.00     0.004 A 
HETATM   31  C16 UNL     1     -28.821   9.384 -10.399  1.00  0.00     0.037 A 
HETATM   32  C17 UNL     1     -29.201   8.295 -11.149  1.00  0.00     0.069 A 
HETATM   33  C19 UNL     1     -28.227   7.390 -11.498  1.00  0.00     0.048 A 
BRANCH  32  34
HETATM   34  O2  UNL     1     -30.514   8.103 -11.550  1.00  0.00    -0.356 OA
HETATM   35  C18 UNL     1     -31.176   6.892 -11.232  1.00  0.00     0.210 C 
ENDBRANCH  32  34
ENDBRANCH  27  28
ENDBRANCH   6  27
TORSDOF 8
ENDMDL
MODEL 4
REMARK VINA RESULT: -7.958470293      3.754      6.219
REMARK  8 active torsions:
REMARK  status: ('A' for Active; 'I' for Inactive)
REMARK    1  A    between atoms: C2_2  and  C3_3 
REMARK    2  A    between atoms: C3_3  and  N1_4 
REMARK    3  A    between atoms: C3_3  and  C4_8 
REMARK    4  A    between atoms: C7_11  and  C8_12 
REMARK    5  A    between atoms: C8_12  and  C9_13 
REMARK    6  A    between atoms: C11_18  and  C12_19 
REMARK    7  A    between atoms: C12_19  and  C13_20 
REMARK    8  A    between atoms: C17_24  and  O2_25 
ROOT
HETATM    1  C9  UNL     1     -25.082   6.021 -15.818  1.00  0.00     0.046 A 
HETATM    2  C10 UNL     1     -26.331   5.826 -15.239  1.00  0.00     0.257 A 
HETATM    3  O1  UNL     1     -27.284   5.336 -15.914  1.00  0.00    -0.267 OA
HETATM    4  N2  UNL     1     -26.557   6.154 -13.945  1.00  0.00    -0.322 N 
ATOM      5  H2  UNL     1     -27.486   5.997 -13.553  1.00  0.00     0.169 HD
HETATM    6  C11 UNL     1     -25.591   6.684 -13.150  1.00  0.00     0.047 A 
HETATM    7  C20 UNL     1     -24.370   6.881 -13.700  1.00  0.00     0.005 A 
HETATM    8  C21 UNL     1     -23.340   7.415 -12.954  1.00  0.00     0.056 A 
HETATM    9  C22 UNL     1     -22.069   7.641 -13.453  1.00  0.00     0.117 A 
HETATM   10  F1  UNL     1     -21.137   8.172 -12.624  1.00  0.00    -0.206 F 
HETATM   11  C23 UNL     1     -21.814   7.321 -14.753  1.00  0.00     0.043 A 
HETATM   12  C24 UNL     1     -22.816   6.774 -15.562  1.00  0.00     0.016 A 
HETATM   13  C25 UNL     1     -24.067   6.564 -15.034  1.00  0.00    -0.008 A 
ENDROOT
BRANCH   1  14
HETATM   14  C8  UNL     1     -24.882   5.702 -17.060  1.00  0.00     0.055 C 
BRANCH  14  15
HETATM   15  C7  UNL     1     -24.127   4.545 -17.544  1.00  0.00     0.076 A 
HETATM   16  C6  UNL     1     -24.678   3.293 -17.821  1.00  0.00     0.040 A 
HETATM   17  C5  UNL     1     -23.661   2.483 -18.240  1.00  0.00     0.038 A 
HETATM   18  C4  UNL     1     -22.524   3.260 -18.206  1.00  0.00     0.084 A 
HETATM   19  O3  UNL     1     -22.847   4.459 -17.793  1.00  0.00    -0.313 OA
BRANCH  18  20
HETATM   20  C3  UNL     1     -21.166   2.819 -18.574  1.00  0.00     0.240 C 
BRANCH  20  21
HETATM   21  C2  UNL     1     -20.182   3.856 -18.101  1.00  0.00     0.035 C 
HETATM   22  C1  UNL     1     -19.089   4.144 -19.078  1.00  0.00     0.007 C 
ENDBRANCH  20  21
BRANCH  20  23
HETATM   23  N1  UNL     1     -20.913   1.520 -17.984  1.00  0.00    -0.069 N 
ATOM     24  H13 UNL     1     -20.018   1.141 -18.293  1.00  0.00     0.275 HD
ATOM     25  H12 UNL     1     -20.718   1.599 -16.985  1.00  0.00     0.275 HD
ATOM     26  H11 UNL     1     -21.674   0.864 -18.161  1.00  0.00     0.275 HD
ENDBRANCH  20  23
ENDBRANCH  18  20
ENDBRANCH  14  15
ENDBRANCH   1  14
BRANCH   6  27
HETATM   27  C12 UNL     1     -25.908   6.970 -11.905  1.00  0.00     0.042 C 
BRANCH  27  28
HETATM   28  C13 UNL     1     -26.423   8.304 -11.543  1.00  0.00    -0.031 A 
HETATM   29  C14 UNL     1     -26.938   8.611 -10.320  1.00  0.00     0.011 A 
HETATM   30  C15 UNL     1     -27.396   9.891 -10.078  1.00  0.00     0.004 A 
HETATM   31  C16 UNL     1     -27.332  10.861 -11.075  1.00  0.00     0.037 A 
HETATM   32  C17 UNL     1     -26.815  10.561 -12.313  1.00  0.00     0.069 A 
HETATM   33  C19 UNL     1     -26.367   9.279 -12.524  1.00  0.00     0.048 A 
BRANCH  32  34
HETATM   34  O2  UNL     1     -26.739  11.507 -13.325  1.00  0.00    -0.356 OA
HETATM   35  C18 UNL     1     -27.475  12.712 -13.217  1.00  0.00     0.210 C 
ENDBRANCH  32  34
ENDBRANCH  27  28
ENDBRANCH   6  27
TORSDOF 8
ENDMDL
MODEL 5
REMARK VINA RESULT: -7.905350064      4.033      6.543
REMARK  8 active torsions:
REMARK  status: ('A' for Active; 'I' for Inactive)
REMARK    1  A    between atoms: C2_2  and  C3_3 
REMARK    2  A    between atoms: C3_3  and  N1_4 
REMARK    3  A    between atoms: C3_3  and  C4_8 
REMARK    4  A    between atoms: C7_11  and  C8_12 
REMARK    5  A    between atoms: C8_12  and  C9_13 
REMARK    6  A    between atoms: C11_18  and  C12_19 
REMARK    7  A    between atoms: C12_19  and  C13_20 
REMARK    8  A    between atoms: C17_24  and  O2_25 
ROOT
HETATM    1  C9  UNL     1     -25.191   5.858 -15.634  1.00  0.00     0.046 A 
HETATM    2  C10 UNL     1     -26.250   5.229 -14.988  1.00  0.00     0.257 A 
HETATM    3  O1  UNL     1     -26.998   4.422 -15.615  1.00  0.00    -0.267 OA
HETATM    4  N2  UNL     1     -26.505   5.463 -13.680  1.00  0.00    -0.322 N 
ATOM      5  H2  UNL     1     -27.290   4.985 -13.239  1.00  0.00     0.169 HD
HETATM    6  C11 UNL     1     -25.753   6.313 -12.933  1.00  0.00     0.047 A 
HETATM    7  C20 UNL     1     -24.718   6.934 -13.548  1.00  0.00     0.005 A 
HETATM    8  C21 UNL     1     -23.910   7.811 -12.854  1.00  0.00     0.056 A 
HETATM    9  C22 UNL     1     -22.837   8.477 -13.421  1.00  0.00     0.117 A 
HETATM   10  F1  UNL     1     -22.115   9.316 -12.638  1.00  0.00    -0.206 F 
HETATM   11  C23 UNL     1     -22.559   8.260 -14.737  1.00  0.00     0.043 A 
HETATM   12  C24 UNL     1     -23.340   7.382 -15.496  1.00  0.00     0.016 A 
HETATM   13  C25 UNL     1     -24.398   6.737 -14.901  1.00  0.00    -0.008 A 
ENDROOT
BRANCH   1  14
HETATM   14  C8  UNL     1     -24.961   5.623 -16.889  1.00  0.00     0.055 C 
BRANCH  14  15
HETATM   15  C7  UNL     1     -24.124   4.548 -17.427  1.00  0.00     0.076 A 
HETATM   16  C6  UNL     1     -24.598   3.304 -17.845  1.00  0.00     0.040 A 
HETATM   17  C5  UNL     1     -23.520   2.580 -18.273  1.00  0.00     0.038 A 
HETATM   18  C4  UNL     1     -22.427   3.400 -18.104  1.00  0.00     0.084 A 
HETATM   19  O3  UNL     1     -22.830   4.542 -17.607  1.00  0.00    -0.313 OA
BRANCH  18  20
HETATM   20  C3  UNL     1     -21.030   3.054 -18.428  1.00  0.00     0.240 C 
BRANCH  20  21
HETATM   21  C2  UNL     1     -20.131   4.126 -17.872  1.00  0.00     0.035 C 
HETATM   22  C1  UNL     1     -19.092   4.603 -18.833  1.00  0.00     0.007 C 
ENDBRANCH  20  21
BRANCH  20  23
HETATM   23  N1  UNL     1     -20.725   1.748 -17.879  1.00  0.00    -0.069 N 
ATOM     24  H13 UNL     1     -19.738   1.671 -17.635  1.00  0.00     0.275 HD
ATOM     25  H12 UNL     1     -21.130   1.635 -16.949  1.00  0.00     0.275 HD
ATOM     26  H11 UNL     1     -21.013   0.994 -18.502  1.00  0.00     0.275 HD
ENDBRANCH  20  23
ENDBRANCH  18  20
ENDBRANCH  14  15
ENDBRANCH   1  14
BRANCH   6  27
HETATM   27  C12 UNL     1     -26.080   6.475 -11.669  1.00  0.00     0.042 C 
BRANCH  27  28
HETATM   28  C13 UNL     1     -27.272   7.257 -11.290  1.00  0.00    -0.031 A 
HETATM   29  C14 UNL     1     -28.550   6.808 -11.435  1.00  0.00     0.011 A 
HETATM   30  C15 UNL     1     -29.601   7.616 -11.051  1.00  0.00     0.004 A 
HETATM   31  C16 UNL     1     -29.359   8.880 -10.520  1.00  0.00     0.037 A 
HETATM   32  C17 UNL     1     -28.073   9.344 -10.371  1.00  0.00     0.069 A 
HETATM   33  C19 UNL     1     -27.047   8.516 -10.762  1.00  0.00     0.048 A 
BRANCH  32  34
HETATM   34  O2  UNL     1     -27.802  10.598  -9.845  1.00  0.00    -0.356 OA
HETATM   35  C18 UNL     1     -28.860  11.517  -9.639  1.00  0.00     0.210 C 
ENDBRANCH  32  34
ENDBRANCH  27  28
ENDBRANCH   6  27
TORSDOF 8
ENDMDL
