MODEL 1
REMARK VINA RESULT: -7.775402748      0.000      0.000
REMARK  6 active torsions:
REMARK  status: ('A' for Active; 'I' for Inactive)
REMARK    1  A    between atoms: N1_1  and  C1_5 
REMARK    2  A    between atoms: C1_5  and  C2_6 
REMARK    3  A    between atoms: C2_6  and  C3_7 
REMARK    4  A    between atoms: C2_6  and  C8_19 
REMARK    5  A    between atoms: C2_6  and  C14_26 
REMARK       I    between atoms: C3_7  and  N2_9 
REMARK    6  A    between atoms: C17_29  and  C18_30 
ROOT
HETATM    1  C2  UNL     1     -24.445   6.404 -15.858  1.00  0.00     0.119 C 
ENDROOT
BRANCH   1   2
HETATM    2  C1  UNL     1     -25.372   5.607 -14.954  1.00  0.00     0.258 C 
BRANCH   2   3
HETATM    3  N1  UNL     1     -26.094   6.460 -14.012  1.00  0.00    -0.077 N 
ATOM      4  H13 UNL     1     -25.464   7.116 -13.551  1.00  0.00     0.274 HD
ATOM      5  H12 UNL     1     -26.692   7.125 -14.502  1.00  0.00     0.274 HD
ATOM      6  H11 UNL     1     -26.625   5.918 -13.330  1.00  0.00     0.274 HD
ENDBRANCH   2   3
ENDBRANCH   1   2
BRANCH   1   7
HETATM    7  C3  UNL     1     -25.310   7.176 -16.776  1.00  0.00     0.242 C 
HETATM    8  O1  UNL     1     -26.022   8.096 -16.287  1.00  0.00    -0.271 OA
HETATM    9  N2  UNL     1     -25.412   6.980 -18.158  1.00  0.00    -0.312 N 
HETATM   10  C4  UNL     1     -26.447   6.792 -18.847  1.00  0.00     0.109 A 
ATOM     11  H2  UNL     1     -24.531   6.990 -18.673  1.00  0.00     0.170 HD
HETATM   12  C5  UNL     1     -27.722   6.747 -18.333  1.00  0.00     0.065 A 
HETATM   13  N4  UNL     1     -26.366   6.624 -20.205  1.00  0.00    -0.339 N 
HETATM   14  C6  UNL     1     -28.854   6.545 -19.120  1.00  0.00     0.092 A 
HETATM   15  N3  UNL     1     -28.702   6.388 -20.440  1.00  0.00    -0.362 N 
HETATM   16  C7  UNL     1     -27.460   6.431 -20.959  1.00  0.00     0.181 A 
ATOM     17  H3  UNL     1     -29.511   6.240 -21.043  1.00  0.00     0.165 HD
ATOM     18  H4  UNL     1     -25.451   6.647 -20.655  1.00  0.00     0.168 HD
ENDBRANCH   1   7
BRANCH   1  19
HETATM   19  C8  UNL     1     -23.604   7.286 -15.007  1.00  0.00    -0.034 A 
HETATM   20  C9  UNL     1     -23.561   8.652 -15.122  1.00  0.00     0.012 A 
HETATM   21  C10 UNL     1     -22.779   9.456 -14.323  1.00  0.00     0.043 A 
HETATM   22  C11 UNL     1     -21.990   8.873 -13.350  1.00  0.00     0.116 A 
HETATM   23  F1  UNL     1     -21.224   9.647 -12.567  1.00  0.00    -0.206 F 
HETATM   24  C12 UNL     1     -21.991   7.503 -13.191  1.00  0.00     0.043 A 
HETATM   25  C13 UNL     1     -22.793   6.744 -14.018  1.00  0.00     0.012 A 
ENDBRANCH   1  19
BRANCH   1  26
HETATM   26  C14 UNL     1     -23.661   5.425 -16.651  1.00  0.00    -0.034 A 
HETATM   27  C15 UNL     1     -24.224   4.298 -17.205  1.00  0.00     0.010 A 
HETATM   28  C16 UNL     1     -23.448   3.421 -17.927  1.00  0.00     0.013 A 
HETATM   29  C17 UNL     1     -22.103   3.604 -18.138  1.00  0.00    -0.026 A 
HETATM   30  C24 UNL     1     -21.555   4.736 -17.577  1.00  0.00     0.013 A 
HETATM   31  C25 UNL     1     -22.319   5.641 -16.839  1.00  0.00     0.010 A 
BRANCH  29  32
HETATM   32  C18 UNL     1     -21.306   2.653 -18.923  1.00  0.00    -0.026 A 
HETATM   33  C19 UNL     1     -19.999   3.011 -19.249  1.00  0.00     0.012 A 
HETATM   34  C20 UNL     1     -19.198   2.160 -19.982  1.00  0.00     0.001 A 
HETATM   35  C21 UNL     1     -19.694   0.938 -20.399  1.00  0.00     0.000 A 
HETATM   36  C22 UNL     1     -20.990   0.609 -20.062  1.00  0.00     0.001 A 
HETATM   37  C23 UNL     1     -21.809   1.446 -19.329  1.00  0.00     0.012 A 
ENDBRANCH  29  32
ENDBRANCH   1  26
TORSDOF 6
ENDMDL
MODEL 2
REMARK VINA RESULT: -7.734068584      5.114      9.580
REMARK  6 active torsions:
REMARK  status: ('A' for Active; 'I' for Inactive)
REMARK    1  A    between atoms: N1_1  and  C1_5 
REMARK    2  A    between atoms: C1_5  and  C2_6 
REMARK    3  A    between atoms: C2_6  and  C3_7 
REMARK    4  A    between atoms: C2_6  and  C8_19 
REMARK    5  A    between atoms: C2_6  and  C14_26 
REMARK       I    between atoms: C3_7  and  N2_9 
REMARK    6  A    between atoms: C17_29  and  C18_30 
ROOT
HETATM    1  C2  UNL     1     -25.755   7.704 -13.537  1.00  0.00     0.119 C 
ENDROOT
BRANCH   1   2
HETATM    2  C1  UNL     1     -26.231   7.796 -14.978  1.00  0.00     0.258 C 
BRANCH   2   3
HETATM    3  N1  UNL     1     -25.318   7.131 -15.905  1.00  0.00    -0.077 N 
ATOM      4  H13 UNL     1     -24.346   7.278 -15.635  1.00  0.00     0.274 HD
ATOM      5  H12 UNL     1     -25.364   6.117 -15.803  1.00  0.00     0.274 HD
ATOM      6  H11 UNL     1     -25.479   7.411 -16.872  1.00  0.00     0.274 HD
ENDBRANCH   2   3
ENDBRANCH   1   2
BRANCH   1   7
HETATM    7  C3  UNL     1     -26.114   6.352 -13.057  1.00  0.00     0.242 C 
HETATM    8  O1  UNL     1     -25.772   5.363 -13.762  1.00  0.00    -0.271 OA
HETATM    9  N2  UNL     1     -26.805   6.065 -11.875  1.00  0.00    -0.312 N 
HETATM   10  C4  UNL     1     -27.843   5.370 -11.726  1.00  0.00     0.109 A 
ATOM     11  H2  UNL     1     -26.417   6.471 -11.024  1.00  0.00     0.170 HD
HETATM   12  C5  UNL     1     -28.509   4.742 -12.752  1.00  0.00     0.065 A 
HETATM   13  N4  UNL     1     -28.390   5.182 -10.483  1.00  0.00    -0.339 N 
HETATM   14  C6  UNL     1     -29.653   3.971 -12.559  1.00  0.00     0.092 A 
HETATM   15  N3  UNL     1     -30.133   3.829 -11.317  1.00  0.00    -0.362 N 
HETATM   16  C7  UNL     1     -29.492   4.438 -10.302  1.00  0.00     0.181 A 
ATOM     17  H3  UNL     1     -30.969   3.271 -11.144  1.00  0.00     0.165 HD
ATOM     18  H4  UNL     1     -27.947   5.619  -9.674  1.00  0.00     0.168 HD
ENDBRANCH   1   7
BRANCH   1  19
HETATM   19  C8  UNL     1     -24.286   7.936 -13.512  1.00  0.00    -0.034 A 
HETATM   20  C9  UNL     1     -23.352   6.938 -13.391  1.00  0.00     0.012 A 
HETATM   21  C10 UNL     1     -21.995   7.169 -13.375  1.00  0.00     0.043 A 
HETATM   22  C11 UNL     1     -21.532   8.466 -13.484  1.00  0.00     0.116 A 
HETATM   23  F1  UNL     1     -20.212   8.700 -13.468  1.00  0.00    -0.206 F 
HETATM   24  C12 UNL     1     -22.426   9.509 -13.607  1.00  0.00     0.043 A 
HETATM   25  C13 UNL     1     -23.776   9.223 -13.618  1.00  0.00     0.012 A 
ENDBRANCH   1  19
BRANCH   1  26
HETATM   26  C14 UNL     1     -26.524   8.708 -12.759  1.00  0.00    -0.034 A 
HETATM   27  C15 UNL     1     -26.406   8.837 -11.394  1.00  0.00     0.010 A 
HETATM   28  C16 UNL     1     -27.146   9.782 -10.723  1.00  0.00     0.013 A 
HETATM   29  C17 UNL     1     -28.024  10.634 -11.347  1.00  0.00    -0.026 A 
HETATM   30  C24 UNL     1     -28.130  10.492 -12.714  1.00  0.00     0.013 A 
HETATM   31  C25 UNL     1     -27.391   9.541 -13.418  1.00  0.00     0.010 A 
BRANCH  29  32
HETATM   32  C18 UNL     1     -28.792  11.638 -10.601  1.00  0.00    -0.026 A 
HETATM   33  C19 UNL     1     -29.238  12.763 -11.292  1.00  0.00     0.012 A 
HETATM   34  C20 UNL     1     -29.967  13.742 -10.649  1.00  0.00     0.001 A 
HETATM   35  C21 UNL     1     -30.259  13.608  -9.303  1.00  0.00     0.000 A 
HETATM   36  C22 UNL     1     -29.806  12.486  -8.644  1.00  0.00     0.001 A 
HETATM   37  C23 UNL     1     -29.074  11.494  -9.269  1.00  0.00     0.012 A 
ENDBRANCH  29  32
ENDBRANCH   1  26
TORSDOF 6
ENDMDL
MODEL 3
REMARK VINA RESULT: -7.731851591      5.650      9.979
REMARK  6 active torsions:
REMARK  status: ('A' for Active; 'I' for Inactive)
REMARK    1  A    between atoms: N1_1  and  C1_5 
REMARK    2  A    between atoms: C1_5  and  C2_6 
REMARK    3  A    between atoms: C2_6  and  C3_7 
REMARK    4  A    between atoms: C2_6  and  C8_19 
REMARK    5  A    between atoms: C2_6  and  C14_26 
REMARK       I    between atoms: C3_7  and  N2_9 
REMARK    6  A    between atoms: C17_29  and  C18_30 
ROOT
HETATM    1  C2  UNL     1     -26.432   7.482 -13.213  1.00  0.00     0.119 C 
ENDROOT
BRANCH   1   2
HETATM    2  C1  UNL     1     -27.049   7.636 -14.594  1.00  0.00     0.258 C 
BRANCH   2   3
HETATM    3  N1  UNL     1     -26.209   7.058 -15.642  1.00  0.00    -0.077 N 
ATOM      4  H13 UNL     1     -25.264   6.883 -15.301  1.00  0.00     0.274 HD
ATOM      5  H12 UNL     1     -26.487   6.099 -15.850  1.00  0.00     0.274 HD
ATOM      6  H11 UNL     1     -26.197   7.631 -16.485  1.00  0.00     0.274 HD
ENDBRANCH   2   3
ENDBRANCH   1   2
BRANCH   1   7
HETATM    7  C3  UNL     1     -26.667   6.082 -12.797  1.00  0.00     0.242 C 
HETATM    8  O1  UNL     1     -26.310   5.163 -13.584  1.00  0.00    -0.271 OA
HETATM    9  N2  UNL     1     -27.254   5.677 -11.594  1.00  0.00    -0.312 N 
HETATM   10  C4  UNL     1     -28.231   4.903 -11.422  1.00  0.00     0.109 A 
ATOM     11  H2  UNL     1     -26.836   6.059 -10.745  1.00  0.00     0.170 HD
HETATM   12  C5  UNL     1     -28.923   4.291 -12.441  1.00  0.00     0.065 A 
HETATM   13  N4  UNL     1     -28.677   4.604 -10.161  1.00  0.00    -0.339 N 
HETATM   14  C6  UNL     1     -29.997   3.432 -12.223  1.00  0.00     0.092 A 
HETATM   15  N3  UNL     1     -30.380   3.183 -10.965  1.00  0.00    -0.362 N 
HETATM   16  C7  UNL     1     -29.713   3.775  -9.956  1.00  0.00     0.181 A 
ATOM     17  H3  UNL     1     -31.163   2.558 -10.774  1.00  0.00     0.165 HD
ATOM     18  H4  UNL     1     -28.210   5.023  -9.356  1.00  0.00     0.168 HD
ENDBRANCH   1   7
BRANCH   1  19
HETATM   19  C8  UNL     1     -24.984   7.803 -13.307  1.00  0.00    -0.034 A 
HETATM   20  C9  UNL     1     -23.979   6.906 -13.048  1.00  0.00     0.012 A 
HETATM   21  C10 UNL     1     -22.641   7.217 -13.144  1.00  0.00     0.043 A 
HETATM   22  C11 UNL     1     -22.274   8.496 -13.518  1.00  0.00     0.116 A 
HETATM   23  F1  UNL     1     -20.973   8.809 -13.614  1.00  0.00    -0.206 F 
HETATM   24  C12 UNL     1     -23.242   9.440 -13.788  1.00  0.00     0.043 A 
HETATM   25  C13 UNL     1     -24.568   9.075 -13.677  1.00  0.00     0.012 A 
ENDBRANCH   1  19
BRANCH   1  26
HETATM   26  C14 UNL     1     -27.179   8.383 -12.299  1.00  0.00    -0.034 A 
HETATM   27  C15 UNL     1     -26.720   8.713 -11.044  1.00  0.00     0.010 A 
HETATM   28  C16 UNL     1     -27.456   9.550 -10.238  1.00  0.00     0.013 A 
HETATM   29  C17 UNL     1     -28.657  10.096 -10.617  1.00  0.00    -0.026 A 
HETATM   30  C24 UNL     1     -29.102   9.756 -11.875  1.00  0.00     0.013 A 
HETATM   31  C25 UNL     1     -28.376   8.909 -12.713  1.00  0.00     0.010 A 
BRANCH  29  32
HETATM   32  C18 UNL     1     -29.412  10.994  -9.734  1.00  0.00    -0.026 A 
HETATM   33  C19 UNL     1     -30.768  10.735  -9.546  1.00  0.00     0.012 A 
HETATM   34  C20 UNL     1     -31.533  11.540  -8.727  1.00  0.00     0.001 A 
HETATM   35  C21 UNL     1     -30.949  12.617  -8.084  1.00  0.00     0.000 A 
HETATM   36  C22 UNL     1     -29.606  12.851  -8.288  1.00  0.00     0.001 A 
HETATM   37  C23 UNL     1     -28.823  12.057  -9.104  1.00  0.00     0.012 A 
ENDBRANCH  29  32
ENDBRANCH   1  26
TORSDOF 6
ENDMDL
MODEL 4
REMARK VINA RESULT: -7.645879136      3.219      6.775
REMARK  6 active torsions:
REMARK  status: ('A' for Active; 'I' for Inactive)
REMARK    1  A    between atoms: N1_1  and  C1_5 
REMARK    2  A    between atoms: C1_5  and  C2_6 
REMARK    3  A    between atoms: C2_6  and  C3_7 
REMARK    4  A    between atoms: C2_6  and  C8_19 
REMARK    5  A    between atoms: C2_6  and  C14_26 
REMARK       I    between atoms: C3_7  and  N2_9 
REMARK    6  A    between atoms: C17_29  and  C18_30 
ROOT
HETATM    1  C2  UNL     1     -24.883   7.809 -15.009  1.00  0.00     0.119 C 
ENDROOT
BRANCH   1   2
HETATM    2  C1  UNL     1     -25.559   9.146 -15.271  1.00  0.00     0.258 C 
BRANCH   2   3
HETATM    3  N1  UNL     1     -26.986   8.998 -15.552  1.00  0.00    -0.077 N 
ATOM      4  H13 UNL     1     -27.163   8.182 -16.138  1.00  0.00     0.274 HD
ATOM      5  H12 UNL     1     -27.498   8.713 -14.717  1.00  0.00     0.274 HD
ATOM      6  H11 UNL     1     -27.387   9.841 -15.961  1.00  0.00     0.274 HD
ENDBRANCH   2   3
ENDBRANCH   1   2
BRANCH   1   7
HETATM    7  C3  UNL     1     -24.621   7.200 -16.331  1.00  0.00     0.242 C 
HETATM    8  O1  UNL     1     -25.515   7.297 -17.216  1.00  0.00    -0.271 OA
HETATM    9  N2  UNL     1     -23.455   6.519 -16.697  1.00  0.00    -0.312 N 
HETATM   10  C4  UNL     1     -23.345   5.367 -17.191  1.00  0.00     0.109 A 
ATOM     11  H2  UNL     1     -22.580   7.021 -16.543  1.00  0.00     0.170 HD
HETATM   12  C5  UNL     1     -24.407   4.540 -17.471  1.00  0.00     0.065 A 
HETATM   13  N4  UNL     1     -22.113   4.850 -17.501  1.00  0.00    -0.339 N 
HETATM   14  C6  UNL     1     -24.258   3.271 -18.027  1.00  0.00     0.092 A 
HETATM   15  N3  UNL     1     -23.026   2.829 -18.305  1.00  0.00    -0.362 N 
HETATM   16  C7  UNL     1     -21.975   3.627 -18.036  1.00  0.00     0.181 A 
ATOM     17  H3  UNL     1     -22.885   1.904 -18.712  1.00  0.00     0.165 HD
ATOM     18  H4  UNL     1     -21.280   5.410 -17.320  1.00  0.00     0.168 HD
ENDBRANCH   1   7
BRANCH   1  19
HETATM   19  C8  UNL     1     -23.630   8.058 -14.249  1.00  0.00    -0.034 A 
HETATM   20  C9  UNL     1     -22.845   7.068 -13.714  1.00  0.00     0.012 A 
HETATM   21  C10 UNL     1     -21.685   7.315 -13.016  1.00  0.00     0.043 A 
HETATM   22  C11 UNL     1     -21.274   8.622 -12.835  1.00  0.00     0.116 A 
HETATM   23  F1  UNL     1     -20.145   8.873 -12.156  1.00  0.00    -0.206 F 
HETATM   24  C12 UNL     1     -22.024   9.658 -13.350  1.00  0.00     0.043 A 
HETATM   25  C13 UNL     1     -23.180   9.356 -14.041  1.00  0.00     0.012 A 
ENDBRANCH   1  19
BRANCH   1  26
HETATM   26  C14 UNL     1     -25.859   6.963 -14.278  1.00  0.00    -0.034 A 
HETATM   27  C15 UNL     1     -26.253   5.725 -14.731  1.00  0.00     0.010 A 
HETATM   28  C16 UNL     1     -27.165   4.985 -14.015  1.00  0.00     0.013 A 
HETATM   29  C17 UNL     1     -27.725   5.415 -12.837  1.00  0.00    -0.026 A 
HETATM   30  C24 UNL     1     -27.320   6.656 -12.397  1.00  0.00     0.013 A 
HETATM   31  C25 UNL     1     -26.398   7.427 -13.105  1.00  0.00     0.010 A 
BRANCH  29  32
HETATM   32  C18 UNL     1     -28.688   4.595 -12.092  1.00  0.00    -0.026 A 
HETATM   33  C19 UNL     1     -28.694   4.696 -10.702  1.00  0.00     0.012 A 
HETATM   34  C20 UNL     1     -29.576   3.954  -9.945  1.00  0.00     0.001 A 
HETATM   35  C21 UNL     1     -30.467   3.099 -10.570  1.00  0.00     0.000 A 
HETATM   36  C22 UNL     1     -30.440   3.018 -11.946  1.00  0.00     0.001 A 
HETATM   37  C23 UNL     1     -29.564   3.752 -12.723  1.00  0.00     0.012 A 
ENDBRANCH  29  32
ENDBRANCH   1  26
TORSDOF 6
ENDMDL
MODEL 5
REMARK VINA RESULT: -7.605265593      5.366      9.808
REMARK  6 active torsions:
REMARK  status: ('A' for Active; 'I' for Inactive)
REMARK    1  A    between atoms: N1_1  and  C1_5 
REMARK    2  A    between atoms: C1_5  and  C2_6 
REMARK    3  A    between atoms: C2_6  and  C3_7 
REMARK    4  A    between atoms: C2_6  and  C8_19 
REMARK    5  A    between atoms: C2_6  and  C14_26 
REMARK       I    between atoms: C3_7  and  N2_9 
REMARK    6  A    between atoms: C17_29  and  C18_30 
ROOT
HETATM    1  C2  UNL     1     -26.116   7.770 -13.196  1.00  0.00     0.119 C 
ENDROOT
BRANCH   1   2
HETATM    2  C1  UNL     1     -26.681   7.804 -14.607  1.00  0.00     0.258 C 
BRANCH   2   3
HETATM    3  N1  UNL     1     -26.111   6.761 -15.457  1.00  0.00    -0.077 N 
ATOM      4  H13 UNL     1     -25.884   7.123 -16.383  1.00  0.00     0.274 HD
ATOM      5  H12 UNL     1     -25.173   6.506 -15.148  1.00  0.00     0.274 HD
ATOM      6  H11 UNL     1     -26.714   5.942 -15.519  1.00  0.00     0.274 HD
ENDBRANCH   2   3
ENDBRANCH   1   2
BRANCH   1   7
HETATM    7  C3  UNL     1     -26.480   6.455 -12.625  1.00  0.00     0.242 C 
HETATM    8  O1  UNL     1     -25.823   5.444 -12.998  1.00  0.00    -0.271 OA
HETATM    9  N2  UNL     1     -27.500   6.225 -11.695  1.00  0.00    -0.312 N 
HETATM   10  C4  UNL     1     -28.453   5.407 -11.766  1.00  0.00     0.109 A 
ATOM     11  H2  UNL     1     -27.467   6.796 -10.850  1.00  0.00     0.170 HD
HETATM   12  C5  UNL     1     -28.665   4.554 -12.823  1.00  0.00     0.065 A 
HETATM   13  N4  UNL     1     -29.368   5.305 -10.750  1.00  0.00    -0.339 N 
HETATM   14  C6  UNL     1     -29.724   3.651 -12.873  1.00  0.00     0.092 A 
HETATM   15  N3  UNL     1     -30.581   3.604 -11.846  1.00  0.00    -0.362 N 
HETATM   16  C7  UNL     1     -30.387   4.433 -10.803  1.00  0.00     0.181 A 
ATOM     17  H3  UNL     1     -31.366   2.953 -11.852  1.00  0.00     0.165 HD
ATOM     18  H4  UNL     1     -29.272   5.908  -9.933  1.00  0.00     0.168 HD
ENDBRANCH   1   7
BRANCH   1  19
HETATM   19  C8  UNL     1     -24.643   7.956 -13.276  1.00  0.00    -0.034 A 
HETATM   20  C9  UNL     1     -23.727   6.973 -12.999  1.00  0.00     0.012 A 
HETATM   21  C10 UNL     1     -22.366   7.161 -13.082  1.00  0.00     0.043 A 
HETATM   22  C11 UNL     1     -21.879   8.397 -13.461  1.00  0.00     0.116 A 
HETATM   23  F1  UNL     1     -20.554   8.590 -13.544  1.00  0.00    -0.206 F 
HETATM   24  C12 UNL     1     -22.754   9.424 -13.750  1.00  0.00     0.043 A 
HETATM   25  C13 UNL     1     -24.109   9.182 -13.651  1.00  0.00     0.012 A 
ENDBRANCH   1  19
BRANCH   1  26
HETATM   26  C14 UNL     1     -26.805   8.834 -12.424  1.00  0.00    -0.034 A 
HETATM   27  C15 UNL     1     -26.609   9.016 -11.074  1.00  0.00     0.010 A 
HETATM   28  C16 UNL     1     -27.278  10.016 -10.408  1.00  0.00     0.013 A 
HETATM   29  C17 UNL     1     -28.156  10.874 -11.023  1.00  0.00    -0.026 A 
HETATM   30  C24 UNL     1     -28.341  10.679 -12.374  1.00  0.00     0.013 A 
HETATM   31  C25 UNL     1     -27.676   9.671 -13.073  1.00  0.00     0.010 A 
BRANCH  29  32
HETATM   32  C18 UNL     1     -28.846  11.938 -10.283  1.00  0.00    -0.026 A 
HETATM   33  C19 UNL     1     -28.910  11.830  -8.895  1.00  0.00     0.012 A 
HETATM   34  C20 UNL     1     -29.542  12.798  -8.141  1.00  0.00     0.001 A 
HETATM   35  C21 UNL     1     -30.120  13.888  -8.768  1.00  0.00     0.000 A 
HETATM   36  C22 UNL     1     -30.042  13.969 -10.141  1.00  0.00     0.001 A 
HETATM   37  C23 UNL     1     -29.414  13.011 -10.915  1.00  0.00     0.012 A 
ENDBRANCH  29  32
ENDBRANCH   1  26
TORSDOF 6
ENDMDL
