MODEL 1
REMARK VINA RESULT: -7.583757722      0.000      0.000
REMARK  6 active torsions:
REMARK  status: ('A' for Active; 'I' for Inactive)
REMARK    1  A    between atoms: N3_10  and  C5_11 
REMARK    2  A    between atoms: C5_11  and  C6_12 
REMARK    3  A    between atoms: C6_12  and  N4_13 
REMARK    4  A    between atoms: N5_19  and  C12_20 
REMARK    5  A    between atoms: C12_20  and  C13_21 
REMARK    6  A    between atoms: C13_21  and  C14_22 
ROOT
HETATM    1  N4  UNL     1     -23.398   5.548 -17.438  1.00  0.00    -0.389 N 
HETATM    2  C7  UNL     1     -22.163   5.636 -16.802  1.00  0.00     0.059 C 
HETATM    3  C8  UNL     1     -22.118   6.227 -15.432  1.00  0.00     0.054 C 
HETATM    4  C9  UNL     1     -23.372   6.869 -14.950  1.00  0.00    -0.031 C 
HETATM    5  C10 UNL     1     -23.432   8.351 -15.272  1.00  0.00     0.040 C 
HETATM    6  C11 UNL     1     -23.139   9.186 -14.037  1.00  0.00     0.273 C 
HETATM    7  N5  UNL     1     -24.188   9.033 -13.044  1.00  0.00     0.088 N 
HETATM    8  C20 UNL     1     -24.551   7.645 -12.868  1.00  0.00     0.273 C 
HETATM    9  C21 UNL     1     -23.479   6.757 -13.456  1.00  0.00     0.040 C 
HETATM   10  C22 UNL     1     -24.623   6.250 -15.546  1.00  0.00     0.029 C 
HETATM   11  C23 UNL     1     -24.455   6.424 -17.055  1.00  0.00     0.123 C 
ENDROOT
BRANCH   1  12
HETATM   12  C6  UNL     1     -23.866   4.225 -17.818  1.00  0.00     0.167 C 
BRANCH  12  13
HETATM   13  C5  UNL     1     -22.729   3.311 -17.896  1.00  0.00     0.101 C 
BRANCH  13  14
HETATM   14  N3  UNL     1     -22.783   2.118 -18.608  1.00  0.00    -0.196 N 
HETATM   15  C1  UNL     1     -21.835   1.081 -18.527  1.00  0.00     0.673 C 
HETATM   16  N1  UNL     1     -20.617   1.390 -18.313  1.00  0.00    -0.235 N 
HETATM   17  N2  UNL     1     -22.226  -0.303 -18.686  1.00  0.00    -0.226 N 
ATOM     18  H12 UNL     1     -19.930   0.639 -18.255  1.00  0.00     0.174 HD
ATOM     19  H11 UNL     1     -20.341   2.366 -18.201  1.00  0.00     0.174 HD
HETATM   20  C2  UNL     1     -23.406  -0.522 -19.512  1.00  0.00     0.139 C 
ATOM     21  H2  UNL     1     -21.713  -1.069 -18.250  1.00  0.00     0.177 HD
HETATM   22  C3  UNL     1     -24.462   0.500 -19.203  1.00  0.00     0.041 C 
HETATM   23  C4  UNL     1     -23.928   1.894 -19.515  1.00  0.00     0.148 C 
ENDBRANCH  13  14
ENDBRANCH  12  13
ENDBRANCH   1  12
BRANCH   7  24
HETATM   24  C12 UNL     1     -25.378   9.766 -13.417  1.00  0.00     0.277 C 
BRANCH  24  25
HETATM   25  C13 UNL     1     -26.654   9.212 -12.888  1.00  0.00     0.068 C 
BRANCH  25  26
HETATM   26  C14 UNL     1     -27.314  10.007 -11.838  1.00  0.00    -0.056 A 
HETATM   27  C15 UNL     1     -27.300   9.604 -10.505  1.00  0.00     0.009 A 
HETATM   28  C16 UNL     1     -27.922  10.348  -9.522  1.00  0.00     0.024 A 
HETATM   29  C17 UNL     1     -28.581  11.527  -9.844  1.00  0.00     0.034 A 
HETATM   30 CL1  UNL     1     -29.374  12.458  -8.561  1.00  0.00    -0.084 Cl
HETATM   31  C18 UNL     1     -28.599  11.933 -11.142  1.00  0.00     0.024 A 
HETATM   32  C19 UNL     1     -27.967  11.174 -12.128  1.00  0.00     0.009 A 
ENDBRANCH  25  26
ENDBRANCH  24  25
ENDBRANCH   7  24
TORSDOF 6
ENDMDL
MODEL 2
REMARK VINA RESULT: -7.548685937      0.927      1.170
REMARK  6 active torsions:
REMARK  status: ('A' for Active; 'I' for Inactive)
REMARK    1  A    between atoms: N3_10  and  C5_11 
REMARK    2  A    between atoms: C5_11  and  C6_12 
REMARK    3  A    between atoms: C6_12  and  N4_13 
REMARK    4  A    between atoms: N5_19  and  C12_20 
REMARK    5  A    between atoms: C12_20  and  C13_21 
REMARK    6  A    between atoms: C13_21  and  C14_22 
ROOT
HETATM    1  N4  UNL     1     -23.162   5.586 -17.419  1.00  0.00    -0.389 N 
HETATM    2  C7  UNL     1     -21.984   5.673 -16.683  1.00  0.00     0.059 C 
HETATM    3  C8  UNL     1     -22.054   6.257 -15.311  1.00  0.00     0.054 C 
HETATM    4  C9  UNL     1     -23.346   6.894 -14.931  1.00  0.00    -0.031 C 
HETATM    5  C10 UNL     1     -23.383   8.377 -15.250  1.00  0.00     0.040 C 
HETATM    6  C11 UNL     1     -23.196   9.206 -13.991  1.00  0.00     0.273 C 
HETATM    7  N5  UNL     1     -24.322   9.046 -13.089  1.00  0.00     0.088 N 
HETATM    8  C20 UNL     1     -24.694   7.656 -12.951  1.00  0.00     0.273 C 
HETATM    9  C21 UNL     1     -23.575   6.773 -13.452  1.00  0.00     0.040 C 
HETATM   10  C22 UNL     1     -24.541   6.275 -15.632  1.00  0.00     0.029 C 
HETATM   11  C23 UNL     1     -24.250   6.457 -17.120  1.00  0.00     0.123 C 
ENDROOT
BRANCH   1  12
HETATM   12  C6  UNL     1     -23.593   4.264 -17.844  1.00  0.00     0.167 C 
BRANCH  12  13
HETATM   13  C5  UNL     1     -22.502   3.311 -17.650  1.00  0.00     0.101 C 
BRANCH  13  14
HETATM   14  N3  UNL     1     -21.876   2.673 -18.715  1.00  0.00    -0.196 N 
HETATM   15  C1  UNL     1     -20.490   2.666 -18.956  1.00  0.00     0.673 C 
HETATM   16  N1  UNL     1     -19.813   3.694 -18.623  1.00  0.00    -0.235 N 
HETATM   17  N2  UNL     1     -19.843   1.527 -19.569  1.00  0.00    -0.226 N 
ATOM     18  H12 UNL     1     -18.808   3.690 -18.798  1.00  0.00     0.174 HD
ATOM     19  H11 UNL     1     -20.269   4.498 -18.191  1.00  0.00     0.174 HD
HETATM   20  C2  UNL     1     -20.691   0.734 -20.450  1.00  0.00     0.139 C 
ATOM     21  H2  UNL     1     -18.865   1.295 -19.397  1.00  0.00     0.177 HD
HETATM   22  C3  UNL     1     -22.055   0.557 -19.848  1.00  0.00     0.041 C 
HETATM   23  C4  UNL     1     -22.715   1.921 -19.673  1.00  0.00     0.148 C 
ENDBRANCH  13  14
ENDBRANCH  12  13
ENDBRANCH   1  12
BRANCH   7  24
HETATM   24  C12 UNL     1     -25.479   9.778 -13.555  1.00  0.00     0.277 C 
BRANCH  24  25
HETATM   25  C13 UNL     1     -26.789   9.270 -13.065  1.00  0.00     0.068 C 
BRANCH  25  26
HETATM   26  C14 UNL     1     -27.411  10.043 -11.975  1.00  0.00    -0.056 A 
HETATM   27  C15 UNL     1     -27.316   9.632 -10.648  1.00  0.00     0.009 A 
HETATM   28  C16 UNL     1     -27.902  10.355  -9.628  1.00  0.00     0.024 A 
HETATM   29  C17 UNL     1     -28.607  11.519  -9.906  1.00  0.00     0.034 A 
HETATM   30 CL1  UNL     1     -29.353  12.423  -8.576  1.00  0.00    -0.084 Cl
HETATM   31  C18 UNL     1     -28.706  11.931 -11.198  1.00  0.00     0.024 A 
HETATM   32  C19 UNL     1     -28.109  11.194 -12.222  1.00  0.00     0.009 A 
ENDBRANCH  25  26
ENDBRANCH  24  25
ENDBRANCH   7  24
TORSDOF 6
ENDMDL
MODEL 3
REMARK VINA RESULT: -7.455774377      1.904      2.487
REMARK  6 active torsions:
REMARK  status: ('A' for Active; 'I' for Inactive)
REMARK    1  A    between atoms: N3_10  and  C5_11 
REMARK    2  A    between atoms: C5_11  and  C6_12 
REMARK    3  A    between atoms: C6_12  and  N4_13 
REMARK    4  A    between atoms: N5_19  and  C12_20 
REMARK    5  A    between atoms: C12_20  and  C13_21 
REMARK    6  A    between atoms: C13_21  and  C14_22 
ROOT
HETATM    1  N4  UNL     1     -22.733   5.462 -17.286  1.00  0.00    -0.389 N 
HETATM    2  C7  UNL     1     -21.757   5.707 -16.323  1.00  0.00     0.059 C 
HETATM    3  C8  UNL     1     -22.187   6.302 -15.023  1.00  0.00     0.054 C 
HETATM    4  C9  UNL     1     -23.595   6.779 -14.949  1.00  0.00    -0.031 C 
HETATM    5  C10 UNL     1     -23.738   8.241 -15.331  1.00  0.00     0.040 C 
HETATM    6  C11 UNL     1     -23.922   9.108 -14.098  1.00  0.00     0.273 C 
HETATM    7  N5  UNL     1     -25.188   8.824 -13.445  1.00  0.00     0.088 N 
HETATM    8  C20 UNL     1     -25.415   7.401 -13.329  1.00  0.00     0.273 C 
HETATM    9  C21 UNL     1     -24.119   6.656 -13.547  1.00  0.00     0.040 C 
HETATM   10  C22 UNL     1     -24.533   6.005 -15.857  1.00  0.00     0.029 C 
HETATM   11  C23 UNL     1     -23.955   6.197 -17.258  1.00  0.00     0.123 C 
ENDROOT
BRANCH   1  12
HETATM   12  C6  UNL     1     -22.906   4.090 -17.734  1.00  0.00     0.167 C 
BRANCH  12  13
HETATM   13  C5  UNL     1     -21.633   3.379 -17.625  1.00  0.00     0.101 C 
BRANCH  13  14
HETATM   14  N3  UNL     1     -20.896   3.000 -18.741  1.00  0.00    -0.196 N 
HETATM   15  C1  UNL     1     -19.569   3.385 -19.006  1.00  0.00     0.673 C 
HETATM   16  N1  UNL     1     -19.183   4.536 -18.617  1.00  0.00    -0.235 N 
HETATM   17  N2  UNL     1     -18.661   2.503 -19.706  1.00  0.00    -0.226 N 
ATOM     18  H12 UNL     1     -18.221   4.815 -18.810  1.00  0.00     0.174 HD
ATOM     19  H11 UNL     1     -19.823   5.158 -18.123  1.00  0.00     0.174 HD
HETATM   20  C2  UNL     1     -19.294   1.564 -20.624  1.00  0.00     0.139 C 
ATOM     21  H2  UNL     1     -17.651   2.535 -19.567  1.00  0.00     0.177 HD
HETATM   22  C3  UNL     1     -20.538   0.987 -20.011  1.00  0.00     0.041 C 
HETATM   23  C4  UNL     1     -21.534   2.108 -19.733  1.00  0.00     0.148 C 
ENDBRANCH  13  14
ENDBRANCH  12  13
ENDBRANCH   1  12
BRANCH   7  24
HETATM   24  C12 UNL     1     -26.298   9.398 -14.174  1.00  0.00     0.277 C 
BRANCH  24  25
HETATM   25  C13 UNL     1     -26.180  10.853 -14.464  1.00  0.00     0.068 C 
BRANCH  25  26
HETATM   26  C14 UNL     1     -27.201  11.717 -13.845  1.00  0.00    -0.056 A 
HETATM   27  C15 UNL     1     -27.469  11.661 -12.480  1.00  0.00     0.009 A 
HETATM   28  C16 UNL     1     -28.428  12.468 -11.902  1.00  0.00     0.024 A 
HETATM   29  C17 UNL     1     -29.154  13.362 -12.677  1.00  0.00     0.034 A 
HETATM   30 CL1  UNL     1     -30.383  14.382 -11.908  1.00  0.00    -0.084 Cl
HETATM   31  C18 UNL     1     -28.900  13.427 -14.012  1.00  0.00     0.024 A 
HETATM   32  C19 UNL     1     -27.928  12.608 -14.586  1.00  0.00     0.009 A 
ENDBRANCH  25  26
ENDBRANCH  24  25
ENDBRANCH   7  24
TORSDOF 6
ENDMDL
MODEL 4
REMARK VINA RESULT: -7.432496746      2.070      4.090
REMARK  6 active torsions:
REMARK  status: ('A' for Active; 'I' for Inactive)
REMARK    1  A    between atoms: N3_10  and  C5_11 
REMARK    2  A    between atoms: C5_11  and  C6_12 
REMARK    3  A    between atoms: C6_12  and  N4_13 
REMARK    4  A    between atoms: N5_19  and  C12_20 
REMARK    5  A    between atoms: C12_20  and  C13_21 
REMARK    6  A    between atoms: C13_21  and  C14_22 
ROOT
HETATM    1  N4  UNL     1     -23.725   7.853 -14.118  1.00  0.00    -0.389 N 
HETATM    2  C7  UNL     1     -23.963   6.795 -13.246  1.00  0.00     0.059 C 
HETATM    3  C8  UNL     1     -25.315   6.690 -12.621  1.00  0.00     0.054 C 
HETATM    4  C9  UNL     1     -26.226   7.850 -12.823  1.00  0.00    -0.031 C 
HETATM    5  C10 UNL     1     -26.115   8.881 -11.714  1.00  0.00     0.040 C 
HETATM    6  C11 UNL     1     -27.293   8.780 -10.760  1.00  0.00     0.273 C 
HETATM    7  N5  UNL     1     -28.531   9.154 -11.420  1.00  0.00     0.088 N 
HETATM    8  C20 UNL     1     -28.643   8.538 -12.722  1.00  0.00     0.273 C 
HETATM    9  C21 UNL     1     -27.658   7.397 -12.836  1.00  0.00     0.040 C 
HETATM   10  C22 UNL     1     -25.968   8.589 -14.123  1.00  0.00     0.029 C 
HETATM   11  C23 UNL     1     -24.510   9.039 -14.025  1.00  0.00     0.123 C 
ENDROOT
BRANCH   1  12
HETATM   12  C6  UNL     1     -23.350   7.526 -15.485  1.00  0.00     0.167 C 
BRANCH  12  13
HETATM   13  C5  UNL     1     -22.434   6.388 -15.479  1.00  0.00     0.101 C 
BRANCH  13  14
HETATM   14  N3  UNL     1     -22.369   5.482 -16.531  1.00  0.00    -0.196 N 
HETATM   15  C1  UNL     1     -21.336   4.548 -16.735  1.00  0.00     0.673 C 
HETATM   16  N1  UNL     1     -20.154   4.865 -16.378  1.00  0.00    -0.235 N 
HETATM   17  N2  UNL     1     -21.600   3.261 -17.340  1.00  0.00    -0.226 N 
ATOM     18  H12 UNL     1     -19.405   4.189 -16.526  1.00  0.00     0.174 HD
ATOM     19  H11 UNL     1     -19.967   5.773 -15.952  1.00  0.00     0.174 HD
HETATM   20  C2  UNL     1     -22.739   3.225 -18.248  1.00  0.00     0.139 C 
ATOM     21  H2  UNL     1     -21.031   2.437 -17.143  1.00  0.00     0.177 HD
HETATM   22  C3  UNL     1     -23.887   4.012 -17.684  1.00  0.00     0.041 C 
HETATM   23  C4  UNL     1     -23.471   5.470 -17.516  1.00  0.00     0.148 C 
ENDBRANCH  13  14
ENDBRANCH  12  13
ENDBRANCH   1  12
BRANCH   7  24
HETATM   24  C12 UNL     1     -28.625  10.588 -11.591  1.00  0.00     0.277 C 
BRANCH  24  25
HETATM   25  C13 UNL     1     -29.908  11.195 -11.146  1.00  0.00     0.068 C 
BRANCH  25  26
HETATM   26  C14 UNL     1     -29.792  12.401 -10.307  1.00  0.00    -0.056 A 
HETATM   27  C15 UNL     1     -30.014  13.673 -10.828  1.00  0.00     0.009 A 
HETATM   28  C16 UNL     1     -29.902  14.802 -10.042  1.00  0.00     0.024 A 
HETATM   29  C17 UNL     1     -29.561  14.693  -8.700  1.00  0.00     0.034 A 
HETATM   30 CL1  UNL     1     -29.420  16.161  -7.717  1.00  0.00    -0.084 Cl
HETATM   31  C18 UNL     1     -29.343  13.456  -8.179  1.00  0.00     0.024 A 
HETATM   32  C19 UNL     1     -29.460  12.321  -8.982  1.00  0.00     0.009 A 
ENDBRANCH  25  26
ENDBRANCH  24  25
ENDBRANCH   7  24
TORSDOF 6
ENDMDL
MODEL 5
REMARK VINA RESULT: -7.330294037      0.977      1.215
REMARK  6 active torsions:
REMARK  status: ('A' for Active; 'I' for Inactive)
REMARK    1  A    between atoms: N3_10  and  C5_11 
REMARK    2  A    between atoms: C5_11  and  C6_12 
REMARK    3  A    between atoms: C6_12  and  N4_13 
REMARK    4  A    between atoms: N5_19  and  C12_20 
REMARK    5  A    between atoms: C12_20  and  C13_21 
REMARK    6  A    between atoms: C13_21  and  C14_22 
ROOT
HETATM    1  N4  UNL     1     -23.592   5.528 -17.497  1.00  0.00    -0.389 N 
HETATM    2  C7  UNL     1     -22.308   5.684 -16.982  1.00  0.00     0.059 C 
HETATM    3  C8  UNL     1     -22.164   6.281 -15.622  1.00  0.00     0.054 C 
HETATM    4  C9  UNL     1     -23.399   6.855 -15.019  1.00  0.00    -0.031 C 
HETATM    5  C10 UNL     1     -23.570   8.331 -15.330  1.00  0.00     0.040 C 
HETATM    6  C11 UNL     1     -23.206   9.184 -14.128  1.00  0.00     0.273 C 
HETATM    7  N5  UNL     1     -24.144   8.977 -13.038  1.00  0.00     0.088 N 
HETATM    8  C20 UNL     1     -24.412   7.572 -12.832  1.00  0.00     0.273 C 
HETATM    9  C21 UNL     1     -23.355   6.741 -13.522  1.00  0.00     0.040 C 
HETATM   10  C22 UNL     1     -24.666   6.167 -15.494  1.00  0.00     0.029 C 
HETATM   11  C23 UNL     1     -24.654   6.347 -17.011  1.00  0.00     0.123 C 
ENDROOT
BRANCH   1  12
HETATM   12  C6  UNL     1     -24.022   4.181 -17.834  1.00  0.00     0.167 C 
BRANCH  12  13
HETATM   13  C5  UNL     1     -22.858   3.299 -17.890  1.00  0.00     0.101 C 
BRANCH  13  14
HETATM   14  N3  UNL     1     -22.863   2.109 -18.609  1.00  0.00    -0.196 N 
HETATM   15  C1  UNL     1     -21.866   1.118 -18.544  1.00  0.00     0.673 C 
HETATM   16  N1  UNL     1     -20.661   1.484 -18.341  1.00  0.00    -0.235 N 
HETATM   17  N2  UNL     1     -22.191  -0.282 -18.708  1.00  0.00    -0.226 N 
ATOM     18  H12 UNL     1     -19.938   0.766 -18.295  1.00  0.00     0.174 HD
ATOM     19  H11 UNL     1     -20.431   2.471 -18.226  1.00  0.00     0.174 HD
HETATM   20  C2  UNL     1     -23.368  -0.553 -19.524  1.00  0.00     0.139 C 
ATOM     21  H2  UNL     1     -21.637  -1.025 -18.283  1.00  0.00     0.177 HD
HETATM   22  C3  UNL     1     -24.469   0.415 -19.197  1.00  0.00     0.041 C 
HETATM   23  C4  UNL     1     -24.005   1.835 -19.505  1.00  0.00     0.148 C 
ENDBRANCH  13  14
ENDBRANCH  12  13
ENDBRANCH   1  12
BRANCH   7  24
HETATM   24  C12 UNL     1     -25.402   9.643 -13.293  1.00  0.00     0.277 C 
BRANCH  24  25
HETATM   25  C13 UNL     1     -26.327   9.714 -12.130  1.00  0.00     0.068 C 
BRANCH  25  26
HETATM   26  C14 UNL     1     -27.241  10.870 -12.105  1.00  0.00    -0.056 A 
HETATM   27  C15 UNL     1     -28.147  11.056 -11.064  1.00  0.00     0.009 A 
HETATM   28  C16 UNL     1     -29.005  12.138 -11.043  1.00  0.00     0.024 A 
HETATM   29  C17 UNL     1     -28.982  13.073 -12.069  1.00  0.00     0.034 A 
HETATM   30 CL1  UNL     1     -30.098  14.449 -12.016  1.00  0.00    -0.084 Cl
HETATM   31  C18 UNL     1     -28.100  12.904 -13.089  1.00  0.00     0.024 A 
HETATM   32  C19 UNL     1     -27.237  11.808 -13.101  1.00  0.00     0.009 A 
ENDBRANCH  25  26
ENDBRANCH  24  25
ENDBRANCH   7  24
TORSDOF 6
ENDMDL
