MODEL 1
REMARK VINA RESULT: -7.893918680      0.000      0.000
REMARK  5 active torsions:
REMARK  status: ('A' for Active; 'I' for Inactive)
REMARK    1  A    between atoms: O1_2  and  C2_3 
REMARK    2  A    between atoms: C5_6  and  C6_7 
REMARK    3  A    between atoms: C7_8  and  C8_9 
REMARK    4  A    between atoms: C13_16  and  S1_17 
REMARK    5  A    between atoms: S1_17  and  N2_20 
ROOT
HETATM    1  C6  UNL     1       7.058  33.763  76.100  1.00  0.00    -0.032 C 
HETATM    2  C7  UNL     1       8.372  33.601  75.826  1.00  0.00     0.029 C 
HETATM    3  C18 UNL     1       8.560  32.878  74.581  1.00  0.00     0.161 C 
HETATM    4  O4  UNL     1       9.474  32.184  74.113  1.00  0.00    -0.292 OA
HETATM    5  C19 UNL     1       7.272  33.145  73.838  1.00  0.00     0.088 C 
HETATM    6  C20 UNL     1       6.281  33.168  74.999  1.00  0.00     0.048 C 
ENDROOT
BRANCH   2   7
HETATM    7  C8  UNL     1       9.449  34.097  76.651  1.00  0.00     0.006 A 
HETATM    8  C9  UNL     1       9.632  35.411  77.074  1.00  0.00     0.101 A 
HETATM    9  N1  UNL     1      10.742  35.462  77.819  1.00  0.00    -0.364 N 
HETATM   10  C10 UNL     1      11.321  34.252  77.922  1.00  0.00     0.043 A 
ATOM     11  H1  UNL     1      11.103  36.311  78.254  1.00  0.00     0.165 HD
HETATM   12  C11 UNL     1      12.457  33.810  78.570  1.00  0.00     0.032 A 
HETATM   13  C17 UNL     1      10.501  33.389  77.184  1.00  0.00     0.005 A 
HETATM   14  C12 UNL     1      12.787  32.460  78.475  1.00  0.00     0.027 A 
HETATM   15  C13 UNL     1      12.005  31.578  77.755  1.00  0.00     0.075 A 
HETATM   16  C16 UNL     1      10.887  32.042  77.126  1.00  0.00     0.039 A 
BRANCH  15  17
HETATM   17  S1  UNL     1      12.401  29.881  77.628  1.00  0.00     0.243 S 
HETATM   18  O2  UNL     1      11.724  29.099  78.717  1.00  0.00    -0.206 OA
HETATM   19  O3  UNL     1      11.949  29.299  76.323  1.00  0.00    -0.206 OA
BRANCH  17  20
HETATM   20  N2  UNL     1      14.103  29.715  77.711  1.00  0.00    -0.215 NA
HETATM   21  C14 UNL     1      14.551  28.630  78.519  1.00  0.00     0.129 C 
HETATM   22  C15 UNL     1      14.740  29.759  76.428  1.00  0.00     0.129 C 
ENDBRANCH  17  20
ENDBRANCH  15  17
ENDBRANCH   2   7
BRANCH   1  23
HETATM   23  C5  UNL     1       6.528  34.468  77.273  1.00  0.00    -0.015 A 
HETATM   24  C4  UNL     1       6.382  35.813  77.324  1.00  0.00     0.004 A 
HETATM   25  C3  UNL     1       6.632  36.614  76.237  1.00  0.00     0.054 A 
HETATM   26  C24 UNL     1       5.950  36.413  78.508  1.00  0.00     0.048 A 
HETATM   27  C2  UNL     1       6.463  38.006  76.296  1.00  0.00     0.107 A 
HETATM   28  C26 UNL     1       6.037  38.560  77.481  1.00  0.00     0.151 A 
HETATM   29  C25 UNL     1       5.781  37.773  78.582  1.00  0.00     0.075 A 
HETATM   30  F1  UNL     1       5.879  39.901  77.529  1.00  0.00    -0.203 F 
HETATM   31  N3  UNL     1       5.667  35.702  79.612  1.00  0.00    -0.360 N 
HETATM   32  C22 UNL     1       5.798  34.361  79.591  1.00  0.00     0.091 A 
HETATM   33  C23 UNL     1       5.213  36.371  80.840  1.00  0.00     0.155 C 
HETATM   34  C21 UNL     1       6.224  33.747  78.438  1.00  0.00     0.030 A 
BRANCH  27  35
HETATM   35  O1  UNL     1       6.724  38.776  75.189  1.00  0.00    -0.353 OA
HETATM   36  C1  UNL     1       8.047  39.134  74.838  1.00  0.00     0.210 C 
ENDBRANCH  27  35
ENDBRANCH   1  23
TORSDOF 5
ENDMDL
MODEL 2
REMARK VINA RESULT: -7.667748242      3.711      5.537
REMARK  5 active torsions:
REMARK  status: ('A' for Active; 'I' for Inactive)
REMARK    1  A    between atoms: O1_2  and  C2_3 
REMARK    2  A    between atoms: C5_6  and  C6_7 
REMARK    3  A    between atoms: C7_8  and  C8_9 
REMARK    4  A    between atoms: C13_16  and  S1_17 
REMARK    5  A    between atoms: S1_17  and  N2_20 
ROOT
HETATM    1  C6  UNL     1       6.737  35.774  76.124  1.00  0.00    -0.032 C 
HETATM    2  C7  UNL     1       8.058  35.976  76.332  1.00  0.00     0.029 C 
HETATM    3  C18 UNL     1       8.417  37.363  76.097  1.00  0.00     0.161 C 
HETATM    4  O4  UNL     1       9.468  37.945  75.791  1.00  0.00    -0.292 OA
HETATM    5  C19 UNL     1       7.112  38.091  76.315  1.00  0.00     0.088 C 
HETATM    6  C20 UNL     1       6.126  37.065  75.763  1.00  0.00     0.048 C 
ENDROOT
BRANCH   2   7
HETATM    7  C8  UNL     1       8.988  34.952  76.749  1.00  0.00     0.006 A 
HETATM    8  C9  UNL     1       9.838  34.219  75.926  1.00  0.00     0.101 A 
HETATM    9  N1  UNL     1      10.537  33.373  76.690  1.00  0.00    -0.364 N 
HETATM   10  C10 UNL     1      10.204  33.494  77.988  1.00  0.00     0.043 A 
ATOM     11  H1  UNL     1      11.234  32.719  76.334  1.00  0.00     0.165 HD
HETATM   12  C11 UNL     1      10.640  32.852  79.130  1.00  0.00     0.032 A 
HETATM   13  C17 UNL     1       9.225  34.494  78.024  1.00  0.00     0.005 A 
HETATM   14  C12 UNL     1      10.077  33.221  80.350  1.00  0.00     0.027 A 
HETATM   15  C13 UNL     1       9.108  34.201  80.426  1.00  0.00     0.075 A 
HETATM   16  C16 UNL     1       8.696  34.820  79.282  1.00  0.00     0.039 A 
BRANCH  15  17
HETATM   17  S1  UNL     1       8.393  34.680  81.947  1.00  0.00     0.243 S 
HETATM   18  O2  UNL     1       9.459  35.068  82.932  1.00  0.00    -0.206 OA
HETATM   19  O3  UNL     1       7.489  35.865  81.790  1.00  0.00    -0.206 OA
BRANCH  17  20
HETATM   20  N2  UNL     1       7.449  33.378  82.534  1.00  0.00    -0.215 NA
HETATM   21  C14 UNL     1       8.107  32.561  83.499  1.00  0.00     0.129 C 
HETATM   22  C15 UNL     1       6.132  33.771  82.938  1.00  0.00     0.129 C 
ENDBRANCH  17  20
ENDBRANCH  15  17
ENDBRANCH   2   7
BRANCH   1  23
HETATM   23  C5  UNL     1       6.049  34.489  76.294  1.00  0.00    -0.015 A 
HETATM   24  C4  UNL     1       5.355  34.164  77.410  1.00  0.00     0.004 A 
HETATM   25  C3  UNL     1       5.162  35.060  78.434  1.00  0.00     0.054 A 
HETATM   26  C24 UNL     1       4.801  32.888  77.528  1.00  0.00     0.048 A 
HETATM   27  C2  UNL     1       4.428  34.717  79.579  1.00  0.00     0.107 A 
HETATM   28  C26 UNL     1       3.899  33.451  79.659  1.00  0.00     0.151 A 
HETATM   29  C25 UNL     1       4.081  32.539  78.643  1.00  0.00     0.075 A 
HETATM   30  F1  UNL     1       3.195  33.130  80.767  1.00  0.00    -0.203 F 
HETATM   31  N3  UNL     1       4.926  31.959  76.567  1.00  0.00    -0.360 N 
HETATM   32  C22 UNL     1       5.609  32.254  75.443  1.00  0.00     0.091 A 
HETATM   33  C23 UNL     1       4.327  30.626  76.727  1.00  0.00     0.155 C 
HETATM   34  C21 UNL     1       6.165  33.502  75.303  1.00  0.00     0.030 A 
BRANCH  27  35
HETATM   35  O1  UNL     1       4.256  35.638  80.584  1.00  0.00    -0.353 OA
HETATM   36  C1  UNL     1       4.433  37.022  80.351  1.00  0.00     0.210 C 
ENDBRANCH  27  35
ENDBRANCH   1  23
TORSDOF 5
ENDMDL
MODEL 3
REMARK VINA RESULT: -7.622318823      3.769      8.206
REMARK  5 active torsions:
REMARK  status: ('A' for Active; 'I' for Inactive)
REMARK    1  A    between atoms: O1_2  and  C2_3 
REMARK    2  A    between atoms: C5_6  and  C6_7 
REMARK    3  A    between atoms: C7_8  and  C8_9 
REMARK    4  A    between atoms: C13_16  and  S1_17 
REMARK    5  A    between atoms: S1_17  and  N2_20 
ROOT
HETATM    1  C6  UNL     1       7.165  32.356  78.662  1.00  0.00    -0.032 C 
HETATM    2  C7  UNL     1       6.186  32.954  77.945  1.00  0.00     0.029 C 
HETATM    3  C18 UNL     1       4.884  32.410  78.285  1.00  0.00     0.161 C 
HETATM    4  O4  UNL     1       3.797  32.333  77.694  1.00  0.00    -0.292 OA
HETATM    5  C19 UNL     1       5.098  31.868  79.679  1.00  0.00     0.088 C 
HETATM    6  C20 UNL     1       6.540  31.378  79.569  1.00  0.00     0.048 C 
ENDROOT
BRANCH   2   7
HETATM    7  C8  UNL     1       6.404  34.007  76.981  1.00  0.00     0.006 A 
HETATM    8  C9  UNL     1       6.802  33.848  75.656  1.00  0.00     0.101 A 
HETATM    9  N1  UNL     1       6.891  35.059  75.096  1.00  0.00    -0.364 N 
HETATM   10  C10 UNL     1       6.576  36.031  75.972  1.00  0.00     0.043 A 
ATOM     11  H1  UNL     1       7.164  35.226  74.127  1.00  0.00     0.165 HD
HETATM   12  C11 UNL     1       6.523  37.406  75.866  1.00  0.00     0.032 A 
HETATM   13  C17 UNL     1       6.267  35.363  77.164  1.00  0.00     0.005 A 
HETATM   14  C12 UNL     1       6.151  38.140  76.990  1.00  0.00     0.027 A 
HETATM   15  C13 UNL     1       5.840  37.519  78.183  1.00  0.00     0.075 A 
HETATM   16  C16 UNL     1       5.900  36.157  78.259  1.00  0.00     0.039 A 
BRANCH  15  17
HETATM   17  S1  UNL     1       5.368  38.422  79.602  1.00  0.00     0.243 S 
HETATM   18  O2  UNL     1       6.391  38.268  80.690  1.00  0.00    -0.206 OA
HETATM   19  O3  UNL     1       5.249  39.889  79.316  1.00  0.00    -0.206 OA
BRANCH  17  20
HETATM   20  N2  UNL     1       3.831  37.865  80.111  1.00  0.00    -0.215 NA
HETATM   21  C14 UNL     1       3.853  37.071  81.294  1.00  0.00     0.129 C 
HETATM   22  C15 UNL     1       2.838  38.897  80.147  1.00  0.00     0.129 C 
ENDBRANCH  17  20
ENDBRANCH  15  17
ENDBRANCH   2   7
BRANCH   1  23
HETATM   23  C5  UNL     1       8.592  32.689  78.573  1.00  0.00    -0.015 A 
HETATM   24  C4  UNL     1       9.456  32.031  77.765  1.00  0.00     0.004 A 
HETATM   25  C3  UNL     1       9.037  31.059  76.889  1.00  0.00     0.054 A 
HETATM   26  C24 UNL     1      10.813  32.353  77.802  1.00  0.00     0.048 A 
HETATM   27  C2  UNL     1       9.939  30.394  76.045  1.00  0.00     0.107 A 
HETATM   28  C26 UNL     1      11.268  30.739  76.112  1.00  0.00     0.151 A 
HETATM   29  C25 UNL     1      11.708  31.711  76.983  1.00  0.00     0.075 A 
HETATM   30  F1  UNL     1      12.129  30.091  75.296  1.00  0.00    -0.203 F 
HETATM   31  N3  UNL     1      11.304  33.303  78.615  1.00  0.00    -0.360 N 
HETATM   32  C22 UNL     1      10.468  33.977  79.429  1.00  0.00     0.091 A 
HETATM   33  C23 UNL     1      12.741  33.614  78.625  1.00  0.00     0.155 C 
HETATM   34  C21 UNL     1       9.127  33.677  79.412  1.00  0.00     0.030 A 
BRANCH  27  35
HETATM   35  O1  UNL     1       9.484  29.426  75.182  1.00  0.00    -0.353 OA
HETATM   36  C1  UNL     1       8.630  28.390  75.626  1.00  0.00     0.210 C 
ENDBRANCH  27  35
ENDBRANCH   1  23
TORSDOF 5
ENDMDL
MODEL 4
REMARK VINA RESULT: -7.574471539      3.874      8.059
REMARK  5 active torsions:
REMARK  status: ('A' for Active; 'I' for Inactive)
REMARK    1  A    between atoms: O1_2  and  C2_3 
REMARK    2  A    between atoms: C5_6  and  C6_7 
REMARK    3  A    between atoms: C7_8  and  C8_9 
REMARK    4  A    between atoms: C13_16  and  S1_17 
REMARK    5  A    between atoms: S1_17  and  N2_20 
ROOT
HETATM    1  C6  UNL     1       8.814  35.860  76.519  1.00  0.00    -0.032 C 
HETATM    2  C7  UNL     1       7.468  35.966  76.449  1.00  0.00     0.029 C 
HETATM    3  C18 UNL     1       7.068  37.318  76.104  1.00  0.00     0.161 C 
HETATM    4  O4  UNL     1       6.041  37.989  76.281  1.00  0.00    -0.292 OA
HETATM    5  C19 UNL     1       8.286  37.858  75.391  1.00  0.00     0.088 C 
HETATM    6  C20 UNL     1       9.397  37.169  76.179  1.00  0.00     0.048 C 
ENDROOT
BRANCH   2   7
HETATM    7  C8  UNL     1       6.547  34.875  76.671  1.00  0.00     0.006 A 
HETATM    8  C9  UNL     1       6.453  33.704  75.923  1.00  0.00     0.101 A 
HETATM    9  N1  UNL     1       5.481  32.949  76.445  1.00  0.00    -0.364 N 
HETATM   10  C10 UNL     1       4.910  33.547  77.507  1.00  0.00     0.043 A 
ATOM     11  H1  UNL     1       5.207  32.035  76.084  1.00  0.00     0.165 HD
HETATM   12  C11 UNL     1       3.890  33.170  78.357  1.00  0.00     0.032 A 
HETATM   13  C17 UNL     1       5.586  34.765  77.650  1.00  0.00     0.005 A 
HETATM   14  C12 UNL     1       3.530  34.041  79.383  1.00  0.00     0.027 A 
HETATM   15  C13 UNL     1       4.172  35.251  79.556  1.00  0.00     0.075 A 
HETATM   16  C16 UNL     1       5.179  35.598  78.701  1.00  0.00     0.039 A 
BRANCH  15  17
HETATM   17  S1  UNL     1       3.739  36.355  80.838  1.00  0.00     0.243 S 
HETATM   18  O2  UNL     1       3.572  35.616  82.136  1.00  0.00    -0.206 OA
HETATM   19  O3  UNL     1       4.794  37.396  81.059  1.00  0.00    -0.206 OA
BRANCH  17  20
HETATM   20  N2  UNL     1       2.296  37.162  80.394  1.00  0.00    -0.215 NA
HETATM   21  C14 UNL     1       1.122  36.664  81.030  1.00  0.00     0.129 C 
HETATM   22  C15 UNL     1       2.403  38.589  80.453  1.00  0.00     0.129 C 
ENDBRANCH  17  20
ENDBRANCH  15  17
ENDBRANCH   2   7
BRANCH   1  23
HETATM   23  C5  UNL     1       9.542  34.623  76.826  1.00  0.00    -0.015 A 
HETATM   24  C4  UNL     1       9.727  34.166  78.086  1.00  0.00     0.004 A 
HETATM   25  C3  UNL     1       9.156  34.780  79.174  1.00  0.00     0.054 A 
HETATM   26  C24 UNL     1      10.505  33.026  78.298  1.00  0.00     0.048 A 
HETATM   27  C2  UNL     1       9.341  34.290  80.475  1.00  0.00     0.107 A 
HETATM   28  C26 UNL     1      10.115  33.165  80.643  1.00  0.00     0.151 A 
HETATM   29  C25 UNL     1      10.695  32.534  79.564  1.00  0.00     0.075 A 
HETATM   30  F1  UNL     1      10.288  32.701  81.900  1.00  0.00    -0.203 F 
HETATM   31  N3  UNL     1      11.083  32.354  77.289  1.00  0.00    -0.360 N 
HETATM   32  C22 UNL     1      10.915  32.783  76.022  1.00  0.00     0.091 A 
HETATM   33  C23 UNL     1      11.895  31.157  77.552  1.00  0.00     0.155 C 
HETATM   34  C21 UNL     1      10.155  33.904  75.788  1.00  0.00     0.030 A 
BRANCH  27  35
HETATM   35  O1  UNL     1       8.756  34.931  81.539  1.00  0.00    -0.353 OA
HETATM   36  C1  UNL     1       7.350  34.980  81.687  1.00  0.00     0.210 C 
ENDBRANCH  27  35
ENDBRANCH   1  23
TORSDOF 5
ENDMDL
MODEL 5
REMARK VINA RESULT: -7.566412403      3.121      4.847
REMARK  5 active torsions:
REMARK  status: ('A' for Active; 'I' for Inactive)
REMARK    1  A    between atoms: O1_2  and  C2_3 
REMARK    2  A    between atoms: C5_6  and  C6_7 
REMARK    3  A    between atoms: C7_8  and  C8_9 
REMARK    4  A    between atoms: C13_16  and  S1_17 
REMARK    5  A    between atoms: S1_17  and  N2_20 
ROOT
HETATM    1  C6  UNL     1       6.901  36.048  77.718  1.00  0.00    -0.032 C 
HETATM    2  C7  UNL     1       7.680  35.939  76.618  1.00  0.00     0.029 C 
HETATM    3  C18 UNL     1       8.243  37.225  76.249  1.00  0.00     0.161 C 
HETATM    4  O4  UNL     1       8.668  37.713  75.191  1.00  0.00    -0.292 OA
HETATM    5  C19 UNL     1       8.222  37.990  77.552  1.00  0.00     0.088 C 
HETATM    6  C20 UNL     1       6.935  37.449  78.170  1.00  0.00     0.048 C 
ENDROOT
BRANCH   2   7
HETATM    7  C8  UNL     1       7.935  34.705  75.913  1.00  0.00     0.006 A 
HETATM    8  C9  UNL     1       7.167  34.164  74.885  1.00  0.00     0.101 A 
HETATM    9  N1  UNL     1       7.732  33.016  74.497  1.00  0.00    -0.364 N 
HETATM   10  C10 UNL     1       8.842  32.749  75.210  1.00  0.00     0.043 A 
ATOM     11  H1  UNL     1       7.368  32.418  73.755  1.00  0.00     0.165 HD
HETATM   12  C11 UNL     1       9.745  31.706  75.179  1.00  0.00     0.032 A 
HETATM   13  C17 UNL     1       8.969  33.819  76.104  1.00  0.00     0.005 A 
HETATM   14  C12 UNL     1      10.813  31.732  76.074  1.00  0.00     0.027 A 
HETATM   15  C13 UNL     1      10.972  32.768  76.972  1.00  0.00     0.075 A 
HETATM   16  C16 UNL     1      10.064  33.787  76.980  1.00  0.00     0.039 A 
BRANCH  15  17
HETATM   17  S1  UNL     1      12.306  32.820  78.099  1.00  0.00     0.243 S 
HETATM   18  O2  UNL     1      13.355  31.813  77.723  1.00  0.00    -0.206 OA
HETATM   19  O3  UNL     1      12.972  34.163  78.115  1.00  0.00    -0.206 OA
BRANCH  17  20
HETATM   20  N2  UNL     1      11.697  32.523  79.672  1.00  0.00    -0.215 NA
HETATM   21  C14 UNL     1      10.925  31.331  79.790  1.00  0.00     0.129 C 
HETATM   22  C15 UNL     1      12.689  32.652  80.697  1.00  0.00     0.129 C 
ENDBRANCH  17  20
ENDBRANCH  15  17
ENDBRANCH   2   7
BRANCH   1  23
HETATM   23  C5  UNL     1       6.201  34.930  78.363  1.00  0.00    -0.015 A 
HETATM   24  C4  UNL     1       6.718  34.233  79.401  1.00  0.00     0.004 A 
HETATM   25  C3  UNL     1       7.905  34.586  79.995  1.00  0.00     0.054 A 
HETATM   26  C24 UNL     1       6.025  33.129  79.901  1.00  0.00     0.048 A 
HETATM   27  C2  UNL     1       8.425  33.866  81.081  1.00  0.00     0.107 A 
HETATM   28  C26 UNL     1       7.714  32.784  81.545  1.00  0.00     0.151 A 
HETATM   29  C25 UNL     1       6.522  32.414  80.963  1.00  0.00     0.075 A 
HETATM   30  F1  UNL     1       8.224  32.096  82.590  1.00  0.00    -0.203 F 
HETATM   31  N3  UNL     1       4.850  32.727  79.391  1.00  0.00    -0.360 N 
HETATM   32  C22 UNL     1       4.308  33.403  78.359  1.00  0.00     0.091 A 
HETATM   33  C23 UNL     1       4.150  31.560  79.947  1.00  0.00     0.155 C 
HETATM   34  C21 UNL     1       4.971  34.492  77.847  1.00  0.00     0.030 A 
BRANCH  27  35
HETATM   35  O1  UNL     1       9.616  34.247  81.649  1.00  0.00    -0.353 OA
HETATM   36  C1  UNL     1       9.695  34.615  83.013  1.00  0.00     0.210 C 
ENDBRANCH  27  35
ENDBRANCH   1  23
TORSDOF 5
ENDMDL
