MODEL 1
REMARK VINA RESULT: -7.811449257      0.000      0.000
REMARK  6 active torsions:
REMARK  status: ('A' for Active; 'I' for Inactive)
REMARK    1  A    between atoms: C5_5  and  C6_6 
REMARK    2  A    between atoms: C7_9  and  N2_10 
REMARK    3  A    between atoms: N2_10  and  S1_12 
REMARK    4  A    between atoms: S1_12  and  C8_15 
REMARK    5  A    between atoms: C11_18  and  S2_19 
REMARK    6  A    between atoms: S2_19  and  N3_22 
ROOT
HETATM    1  N2  UNL     1       5.826  37.245  80.048  1.00  0.00    -0.266 N 
ATOM      2  H2  UNL     1       6.402  37.443  80.866  1.00  0.00     0.180 HD
ENDROOT
BRANCH   1   3
HETATM    3  C7  UNL     1       6.356  37.413  78.881  1.00  0.00     0.115 A 
HETATM    4  N1  UNL     1       6.840  36.360  78.208  1.00  0.00    -0.341 N 
HETATM    5  C6  UNL     1       7.419  36.457  76.963  1.00  0.00     0.050 A 
ATOM      6  H1  UNL     1       6.775  35.437  78.640  1.00  0.00     0.167 HD
HETATM    7  C18 UNL     1       7.478  37.704  76.439  1.00  0.00    -0.034 A 
HETATM    8  C17 UNL     1       6.973  38.830  77.131  1.00  0.00     0.013 A 
HETATM    9  C19 UNL     1       8.131  37.968  75.139  1.00  0.00     0.050 C 
HETATM   10  C16 UNL     1       6.407  38.691  78.360  1.00  0.00     0.050 A 
BRANCH   5  11
HETATM   11  C5  UNL     1       7.956  35.252  76.388  1.00  0.00    -0.007 A 
HETATM   12  C4  UNL     1       7.162  34.514  75.489  1.00  0.00     0.014 A 
HETATM   13  C3  UNL     1       7.622  33.397  74.831  1.00  0.00     0.009 A 
HETATM   14  C2  UNL     1       8.901  32.933  75.017  1.00  0.00    -0.040 A 
HETATM   15  C1  UNL     1       9.414  31.735  74.321  1.00  0.00     0.050 C 
HETATM   16  C21 UNL     1       9.704  33.626  75.887  1.00  0.00     0.040 A 
HETATM   17  C20 UNL     1       9.222  34.754  76.542  1.00  0.00     0.038 A 
HETATM   18 CL1  UNL     1      11.345  33.064  76.154  1.00  0.00    -0.084 Cl
ENDBRANCH   5  11
ENDBRANCH   1   3
BRANCH   1  19
HETATM   19  S1  UNL     1       4.224  36.713  80.307  1.00  0.00     0.264 S 
HETATM   20  O1  UNL     1       3.781  35.815  79.194  1.00  0.00    -0.200 OA
HETATM   21  O2  UNL     1       4.093  35.990  81.618  1.00  0.00    -0.200 OA
BRANCH  19  22
HETATM   22  C8  UNL     1       3.198  38.156  80.299  1.00  0.00     0.080 A 
HETATM   23  C9  UNL     1       3.476  39.233  79.488  1.00  0.00     0.027 A 
HETATM   24  C10 UNL     1       2.658  40.368  79.489  1.00  0.00     0.026 A 
HETATM   25  C11 UNL     1       1.574  40.372  80.325  1.00  0.00     0.074 A 
HETATM   26  C14 UNL     1       1.284  39.308  81.138  1.00  0.00     0.026 A 
HETATM   27  C15 UNL     1       2.100  38.180  81.134  1.00  0.00     0.027 A 
BRANCH  25  28
HETATM   28  S2  UNL     1       0.540  41.769  80.348  1.00  0.00     0.242 S 
HETATM   29  O3  UNL     1      -0.864  41.388  80.774  1.00  0.00    -0.206 OA
HETATM   30  O4  UNL     1       0.443  42.363  78.995  1.00  0.00    -0.206 OA
BRANCH  28  31
HETATM   31  N3  UNL     1       1.194  42.889  81.491  1.00  0.00    -0.215 NA
HETATM   32  C12 UNL     1       0.236  43.276  82.479  1.00  0.00     0.129 C 
HETATM   33  C13 UNL     1       1.821  44.017  80.831  1.00  0.00     0.129 C 
ENDBRANCH  28  31
ENDBRANCH  25  28
ENDBRANCH  19  22
ENDBRANCH   1  19
TORSDOF 6
ENDMDL
MODEL 2
REMARK VINA RESULT: -7.727384891      7.361     13.367
REMARK  6 active torsions:
REMARK  status: ('A' for Active; 'I' for Inactive)
REMARK    1  A    between atoms: C5_5  and  C6_6 
REMARK    2  A    between atoms: C7_9  and  N2_10 
REMARK    3  A    between atoms: N2_10  and  S1_12 
REMARK    4  A    between atoms: S1_12  and  C8_15 
REMARK    5  A    between atoms: C11_18  and  S2_19 
REMARK    6  A    between atoms: S2_19  and  N3_22 
ROOT
HETATM    1  N2  UNL     1      11.691  32.581  76.507  1.00  0.00    -0.266 N 
ATOM      2  H2  UNL     1      12.400  33.285  76.302  1.00  0.00     0.180 HD
ENDROOT
BRANCH   1   3
HETATM    3  C7  UNL     1      10.510  32.751  76.010  1.00  0.00     0.115 A 
HETATM    4  N1  UNL     1       9.805  33.849  76.319  1.00  0.00    -0.341 N 
HETATM    5  C6  UNL     1       8.543  34.100  75.833  1.00  0.00     0.050 A 
ATOM      6  H1  UNL     1      10.226  34.533  76.947  1.00  0.00     0.167 HD
HETATM    7  C18 UNL     1       8.034  33.157  75.005  1.00  0.00    -0.034 A 
HETATM    8  C17 UNL     1       8.760  31.992  74.664  1.00  0.00     0.013 A 
HETATM    9  C19 UNL     1       6.664  33.264  74.459  1.00  0.00     0.050 C 
HETATM   10  C16 UNL     1      10.006  31.780  75.167  1.00  0.00     0.050 A 
BRANCH   5  11
HETATM   11  C5  UNL     1       7.878  35.287  76.303  1.00  0.00    -0.007 A 
HETATM   12  C4  UNL     1       7.204  35.245  77.539  1.00  0.00     0.014 A 
HETATM   13  C3  UNL     1       6.612  36.351  78.104  1.00  0.00     0.009 A 
HETATM   14  C2  UNL     1       6.646  37.576  77.483  1.00  0.00    -0.040 A 
HETATM   15  C1  UNL     1       6.015  38.776  78.072  1.00  0.00     0.050 C 
HETATM   16  C21 UNL     1       7.294  37.655  76.276  1.00  0.00     0.040 A 
HETATM   17  C20 UNL     1       7.887  36.527  75.722  1.00  0.00     0.038 A 
HETATM   18 CL1  UNL     1       7.358  39.202  75.450  1.00  0.00    -0.084 Cl
ENDBRANCH   5  11
ENDBRANCH   1   3
BRANCH   1  19
HETATM   19  S1  UNL     1      12.139  31.254  77.483  1.00  0.00     0.264 S 
HETATM   20  O1  UNL     1      12.965  31.711  78.645  1.00  0.00    -0.200 OA
HETATM   21  O2  UNL     1      10.933  30.512  77.986  1.00  0.00    -0.200 OA
BRANCH  19  22
HETATM   22  C8  UNL     1      13.136  30.191  76.477  1.00  0.00     0.080 A 
HETATM   23  C9  UNL     1      12.606  29.513  75.402  1.00  0.00     0.027 A 
HETATM   24  C10 UNL     1      13.401  28.676  74.613  1.00  0.00     0.026 A 
HETATM   25  C11 UNL     1      14.723  28.552  74.947  1.00  0.00     0.074 A 
HETATM   26  C14 UNL     1      15.265  29.220  76.013  1.00  0.00     0.026 A 
HETATM   27  C15 UNL     1      14.470  30.053  76.796  1.00  0.00     0.027 A 
BRANCH  25  28
HETATM   28  S2  UNL     1      15.737  27.518  73.985  1.00  0.00     0.242 S 
HETATM   29  O3  UNL     1      14.897  26.616  73.103  1.00  0.00    -0.206 OA
HETATM   30  O4  UNL     1      16.556  26.643  74.854  1.00  0.00    -0.206 OA
BRANCH  28  31
HETATM   31  N3  UNL     1      16.723  28.529  72.988  1.00  0.00    -0.215 NA
HETATM   32  C12 UNL     1      15.997  29.641  72.458  1.00  0.00     0.129 C 
HETATM   33  C13 UNL     1      17.414  27.762  71.970  1.00  0.00     0.129 C 
ENDBRANCH  28  31
ENDBRANCH  25  28
ENDBRANCH  19  22
ENDBRANCH   1  19
TORSDOF 6
ENDMDL
MODEL 3
REMARK VINA RESULT: -7.709672896      2.269      2.762
REMARK  6 active torsions:
REMARK  status: ('A' for Active; 'I' for Inactive)
REMARK    1  A    between atoms: C5_5  and  C6_6 
REMARK    2  A    between atoms: C7_9  and  N2_10 
REMARK    3  A    between atoms: N2_10  and  S1_12 
REMARK    4  A    between atoms: S1_12  and  C8_15 
REMARK    5  A    between atoms: C11_18  and  S2_19 
REMARK    6  A    between atoms: S2_19  and  N3_22 
ROOT
HETATM    1  N2  UNL     1       6.101  38.409  77.674  1.00  0.00    -0.266 N 
ATOM      2  H2  UNL     1       5.912  39.210  77.072  1.00  0.00     0.180 HD
ENDROOT
BRANCH   1   3
HETATM    3  C7  UNL     1       6.916  37.505  77.240  1.00  0.00     0.115 A 
HETATM    4  N1  UNL     1       6.495  36.242  77.088  1.00  0.00    -0.341 N 
HETATM    5  C6  UNL     1       7.302  35.224  76.633  1.00  0.00     0.050 A 
ATOM      6  H1  UNL     1       5.527  36.023  77.322  1.00  0.00     0.167 HD
HETATM    7  C18 UNL     1       8.578  35.572  76.340  1.00  0.00    -0.034 A 
HETATM    8  C17 UNL     1       9.043  36.900  76.491  1.00  0.00     0.013 A 
HETATM    9  C19 UNL     1       9.573  34.570  75.903  1.00  0.00     0.050 C 
HETATM   10  C16 UNL     1       8.213  37.877  76.944  1.00  0.00     0.050 A 
BRANCH   5  11
HETATM   11  C5  UNL     1       6.735  33.902  76.584  1.00  0.00    -0.007 A 
HETATM   12  C4  UNL     1       6.110  33.473  75.398  1.00  0.00     0.014 A 
HETATM   13  C3  UNL     1       5.613  32.201  75.234  1.00  0.00     0.009 A 
HETATM   14  C2  UNL     1       5.700  31.265  76.234  1.00  0.00    -0.040 A 
HETATM   15  C1  UNL     1       5.172  29.893  76.079  1.00  0.00     0.050 C 
HETATM   16  C21 UNL     1       6.303  31.646  77.406  1.00  0.00     0.040 A 
HETATM   17  C20 UNL     1       6.801  32.936  77.553  1.00  0.00     0.038 A 
HETATM   18 CL1  UNL     1       6.434  30.479  78.710  1.00  0.00    -0.084 Cl
ENDBRANCH   5  11
ENDBRANCH   1   3
BRANCH   1  19
HETATM   19  S1  UNL     1       5.320  38.348  79.192  1.00  0.00     0.264 S 
HETATM   20  O1  UNL     1       4.433  37.145  79.279  1.00  0.00    -0.200 OA
HETATM   21  O2  UNL     1       6.314  38.321  80.319  1.00  0.00    -0.200 OA
BRANCH  19  22
HETATM   22  C8  UNL     1       4.307  39.796  79.305  1.00  0.00     0.080 A 
HETATM   23  C9  UNL     1       4.785  41.038  78.954  1.00  0.00     0.027 A 
HETATM   24  C10 UNL     1       3.976  42.176  79.047  1.00  0.00     0.026 A 
HETATM   25  C11 UNL     1       2.695  42.011  79.500  1.00  0.00     0.074 A 
HETATM   26  C14 UNL     1       2.204  40.782  79.853  1.00  0.00     0.026 A 
HETATM   27  C15 UNL     1       3.012  39.652  79.759  1.00  0.00     0.027 A 
BRANCH  25  28
HETATM   28  S2  UNL     1       1.666  43.407  79.626  1.00  0.00     0.242 S 
HETATM   29  O3  UNL     1       0.363  43.180  78.885  1.00  0.00    -0.206 OA
HETATM   30  O4  UNL     1       2.319  44.587  79.014  1.00  0.00    -0.206 OA
BRANCH  28  31
HETATM   31  N3  UNL     1       1.329  43.663  81.302  1.00  0.00    -0.215 NA
HETATM   32  C12 UNL     1       0.157  42.964  81.731  1.00  0.00     0.129 C 
HETATM   33  C13 UNL     1       1.304  45.074  81.631  1.00  0.00     0.129 C 
ENDBRANCH  28  31
ENDBRANCH  25  28
ENDBRANCH  19  22
ENDBRANCH   1  19
TORSDOF 6
ENDMDL
MODEL 4
REMARK VINA RESULT: -7.671776828      1.688      2.158
REMARK  6 active torsions:
REMARK  status: ('A' for Active; 'I' for Inactive)
REMARK    1  A    between atoms: C5_5  and  C6_6 
REMARK    2  A    between atoms: C7_9  and  N2_10 
REMARK    3  A    between atoms: N2_10  and  S1_12 
REMARK    4  A    between atoms: S1_12  and  C8_15 
REMARK    5  A    between atoms: C11_18  and  S2_19 
REMARK    6  A    between atoms: S2_19  and  N3_22 
ROOT
HETATM    1  N2  UNL     1       5.699  37.048  80.019  1.00  0.00    -0.266 N 
ATOM      2  H2  UNL     1       6.001  37.618  80.810  1.00  0.00     0.180 HD
ENDROOT
BRANCH   1   3
HETATM    3  C7  UNL     1       6.256  37.260  78.873  1.00  0.00     0.115 A 
HETATM    4  N1  UNL     1       6.770  36.235  78.179  1.00  0.00    -0.341 N 
HETATM    5  C6  UNL     1       7.380  36.380  76.954  1.00  0.00     0.050 A 
ATOM      6  H1  UNL     1       6.707  35.299  78.580  1.00  0.00     0.167 HD
HETATM    7  C18 UNL     1       7.437  37.644  76.472  1.00  0.00    -0.034 A 
HETATM    8  C17 UNL     1       6.899  38.740  77.186  1.00  0.00     0.013 A 
HETATM    9  C19 UNL     1       8.119  37.957  75.198  1.00  0.00     0.050 C 
HETATM   10  C16 UNL     1       6.304  38.555  78.395  1.00  0.00     0.050 A 
BRANCH   5  11
HETATM   11  C5  UNL     1       7.948  35.200  76.355  1.00  0.00    -0.007 A 
HETATM   12  C4  UNL     1       7.174  34.464  75.438  1.00  0.00     0.014 A 
HETATM   13  C3  UNL     1       7.662  33.373  74.756  1.00  0.00     0.009 A 
HETATM   14  C2  UNL     1       8.952  32.935  74.937  1.00  0.00    -0.040 A 
HETATM   15  C1  UNL     1       9.495  31.765  74.217  1.00  0.00     0.050 C 
HETATM   16  C21 UNL     1       9.736  33.628  75.824  1.00  0.00     0.040 A 
HETATM   17  C20 UNL     1       9.225  34.730  76.502  1.00  0.00     0.038 A 
HETATM   18 CL1  UNL     1      11.389  33.101  76.084  1.00  0.00    -0.084 Cl
ENDBRANCH   5  11
ENDBRANCH   1   3
BRANCH   1  19
HETATM   19  S1  UNL     1       4.488  35.875  80.296  1.00  0.00     0.264 S 
HETATM   20  O1  UNL     1       4.339  34.981  79.105  1.00  0.00    -0.200 OA
HETATM   21  O2  UNL     1       4.797  35.046  81.511  1.00  0.00    -0.200 OA
BRANCH  19  22
HETATM   22  C8  UNL     1       2.968  36.753  80.527  1.00  0.00     0.080 A 
HETATM   23  C9  UNL     1       1.789  36.094  80.796  1.00  0.00     0.027 A 
HETATM   24  C10 UNL     1       0.594  36.796  80.976  1.00  0.00     0.026 A 
HETATM   25  C11 UNL     1       0.635  38.161  80.875  1.00  0.00     0.074 A 
HETATM   26  C14 UNL     1       1.799  38.832  80.609  1.00  0.00     0.026 A 
HETATM   27  C15 UNL     1       2.988  38.129  80.430  1.00  0.00     0.027 A 
BRANCH  25  28
HETATM   28  S2  UNL     1      -0.836  39.061  81.095  1.00  0.00     0.242 S 
HETATM   29  O3  UNL     1      -2.007  38.337  80.462  1.00  0.00    -0.206 OA
HETATM   30  O4  UNL     1      -0.733  40.386  80.442  1.00  0.00    -0.206 OA
BRANCH  28  31
HETATM   31  N3  UNL     1      -1.113  39.209  82.795  1.00  0.00    -0.215 NA
HETATM   32  C12 UNL     1      -2.503  39.322  83.110  1.00  0.00     0.129 C 
HETATM   33  C13 UNL     1      -0.309  40.266  83.376  1.00  0.00     0.129 C 
ENDBRANCH  28  31
ENDBRANCH  25  28
ENDBRANCH  19  22
ENDBRANCH   1  19
TORSDOF 6
ENDMDL
MODEL 5
REMARK VINA RESULT: -7.633725657      2.262      3.088
REMARK  6 active torsions:
REMARK  status: ('A' for Active; 'I' for Inactive)
REMARK    1  A    between atoms: C5_5  and  C6_6 
REMARK    2  A    between atoms: C7_9  and  N2_10 
REMARK    3  A    between atoms: N2_10  and  S1_12 
REMARK    4  A    between atoms: S1_12  and  C8_15 
REMARK    5  A    between atoms: C11_18  and  S2_19 
REMARK    6  A    between atoms: S2_19  and  N3_22 
ROOT
HETATM    1  N2  UNL     1       6.018  37.948  77.721  1.00  0.00    -0.266 N 
ATOM      2  H2  UNL     1       5.966  38.787  77.143  1.00  0.00     0.180 HD
ENDROOT
BRANCH   1   3
HETATM    3  C7  UNL     1       6.598  36.906  77.223  1.00  0.00     0.115 A 
HETATM    4  N1  UNL     1       7.518  36.245  77.939  1.00  0.00    -0.341 N 
HETATM    5  C6  UNL     1       8.179  35.129  77.478  1.00  0.00     0.050 A 
ATOM      6  H1  UNL     1       7.740  36.586  78.875  1.00  0.00     0.167 HD
HETATM    7  C18 UNL     1       7.845  34.723  76.231  1.00  0.00    -0.034 A 
HETATM    8  C17 UNL     1       6.876  35.403  75.458  1.00  0.00     0.013 A 
HETATM    9  C19 UNL     1       8.520  33.577  75.583  1.00  0.00     0.050 C 
HETATM   10  C16 UNL     1       6.245  36.503  75.950  1.00  0.00     0.050 A 
BRANCH   5  11
HETATM   11  C5  UNL     1       9.191  34.562  78.330  1.00  0.00    -0.007 A 
HETATM   12  C4  UNL     1       8.795  33.873  79.492  1.00  0.00     0.014 A 
HETATM   13  C3  UNL     1       9.686  33.231  80.320  1.00  0.00     0.009 A 
HETATM   14  C2  UNL     1      11.034  33.227  80.054  1.00  0.00    -0.040 A 
HETATM   15  C1  UNL     1      12.009  32.544  80.930  1.00  0.00     0.050 C 
HETATM   16  C21 UNL     1      11.458  33.889  78.929  1.00  0.00     0.040 A 
HETATM   17  C20 UNL     1      10.542  34.531  78.104  1.00  0.00     0.038 A 
HETATM   18 CL1  UNL     1      13.173  33.909  78.554  1.00  0.00    -0.084 Cl
ENDBRANCH   5  11
ENDBRANCH   1   3
BRANCH   1  19
HETATM   19  S1  UNL     1       5.335  38.011  79.285  1.00  0.00     0.264 S 
HETATM   20  O1  UNL     1       4.456  36.823  79.523  1.00  0.00    -0.200 OA
HETATM   21  O2  UNL     1       6.398  38.069  80.345  1.00  0.00    -0.200 OA
BRANCH  19  22
HETATM   22  C8  UNL     1       4.330  39.467  79.347  1.00  0.00     0.080 A 
HETATM   23  C9  UNL     1       4.784  40.676  78.867  1.00  0.00     0.027 A 
HETATM   24  C10 UNL     1       3.982  41.821  78.920  1.00  0.00     0.026 A 
HETATM   25  C11 UNL     1       2.733  41.699  79.467  1.00  0.00     0.074 A 
HETATM   26  C14 UNL     1       2.267  40.503  79.948  1.00  0.00     0.026 A 
HETATM   27  C15 UNL     1       3.068  39.366  79.893  1.00  0.00     0.027 A 
BRANCH  25  28
HETATM   28  S2  UNL     1       1.713  43.105  79.546  1.00  0.00     0.242 S 
HETATM   29  O3  UNL     1       0.443  42.891  78.748  1.00  0.00    -0.206 OA
HETATM   30  O4  UNL     1       2.405  44.278  78.965  1.00  0.00    -0.206 OA
BRANCH  28  31
HETATM   31  N3  UNL     1       1.303  43.364  81.206  1.00  0.00    -0.215 NA
HETATM   32  C12 UNL     1       0.045  42.778  81.550  1.00  0.00     0.129 C 
HETATM   33  C13 UNL     1       1.398  44.765  81.565  1.00  0.00     0.129 C 
ENDBRANCH  28  31
ENDBRANCH  25  28
ENDBRANCH  19  22
ENDBRANCH   1  19
TORSDOF 6
ENDMDL
