MODEL 1
REMARK VINA RESULT: -7.232370282      0.000      0.000
REMARK  8 active torsions:
REMARK  status: ('A' for Active; 'I' for Inactive)
REMARK    1  A    between atoms: N1_1  and  S1_4 
REMARK    2  A    between atoms: S1_4  and  C1_7 
REMARK    3  A    between atoms: C4_10  and  C5_11 
REMARK    4  A    between atoms: C5_11  and  C6_12 
REMARK    5  A    between atoms: C7_14  and  C8_15 
REMARK    6  A    between atoms: C8_15  and  C9_16 
REMARK    7  A    between atoms: N2_23  and  C15_24 
REMARK    8  A    between atoms: C15_24  and  C16_25 
ROOT
HETATM    1  C6  UNL     1       5.915  37.453  78.195  1.00  0.00     0.076 A 
HETATM    2  S2  UNL     1       5.457  36.069  79.069  1.00  0.00    -0.067 SA
HETATM    3  C7  UNL     1       5.554  34.931  77.795  1.00  0.00     0.081 A 
HETATM    4  N2  UNL     1       5.937  35.663  76.752  1.00  0.00    -0.303 N 
HETATM    5  C22 UNL     1       6.123  36.947  76.939  1.00  0.00     0.266 A 
HETATM    6  O3  UNL     1       6.489  37.790  76.024  1.00  0.00    -0.266 OA
ENDROOT
BRANCH   1   7
HETATM    7  C5  UNL     1       6.036  38.717  78.646  1.00  0.00     0.036 C 
BRANCH   7   8
HETATM    8  C4  UNL     1       4.806  39.422  78.983  1.00  0.00    -0.035 A 
HETATM    9  C3  UNL     1       3.773  38.825  79.680  1.00  0.00     0.013 A 
HETATM   10  C2  UNL     1       2.622  39.545  79.974  1.00  0.00     0.026 A 
HETATM   11  C1  UNL     1       2.470  40.865  79.589  1.00  0.00     0.079 A 
HETATM   12  C24 UNL     1       3.506  41.460  78.893  1.00  0.00     0.026 A 
HETATM   13  C23 UNL     1       4.660  40.735  78.597  1.00  0.00     0.013 A 
BRANCH  11  14
HETATM   14  S1  UNL     1       1.032  41.786  79.951  1.00  0.00     0.256 S 
HETATM   15  O1  UNL     1       0.835  42.884  78.936  1.00  0.00    -0.201 OA
HETATM   16  O2  UNL     1       1.209  42.441  81.304  1.00  0.00    -0.201 OA
BRANCH  14  17
HETATM   17  N1  UNL     1      -0.315  40.729  80.014  1.00  0.00    -0.324 N 
ATOM     18  H12 UNL     1      -1.087  40.845  80.670  1.00  0.00     0.169 HD
ATOM     19  H11 UNL     1      -0.244  39.983  79.322  1.00  0.00     0.169 HD
ENDBRANCH  14  17
ENDBRANCH  11  14
ENDBRANCH   7   8
ENDBRANCH   1   7
BRANCH   3  20
HETATM   20  C8  UNL     1       5.268  33.633  77.872  1.00  0.00     0.050 C 
BRANCH  20  21
HETATM   21  C9  UNL     1       6.370  32.665  78.050  1.00  0.00    -0.012 A 
HETATM   22  C10 UNL     1       7.402  32.925  78.891  1.00  0.00     0.013 A 
HETATM   23  C11 UNL     1       8.439  31.996  79.050  1.00  0.00     0.001 A 
HETATM   24  C12 UNL     1       8.442  30.795  78.359  1.00  0.00     0.002 A 
HETATM   25  C13 UNL     1       7.381  30.556  77.511  1.00  0.00     0.024 A 
HETATM   26  C14 UNL     1       6.345  31.484  77.352  1.00  0.00     0.044 A 
HETATM   27 CL1  UNL     1       5.010  31.160  76.273  1.00  0.00    -0.083 Cl
ENDBRANCH  20  21
ENDBRANCH   3  20
BRANCH   4  28
HETATM   28  C15 UNL     1       6.173  35.041  75.427  1.00  0.00     0.171 C 
BRANCH  28  29
HETATM   29  C16 UNL     1       7.450  34.309  75.328  1.00  0.00    -0.040 A 
HETATM   30  C17 UNL     1       8.584  34.745  76.030  1.00  0.00     0.009 A 
HETATM   31  C18 UNL     1       9.749  34.039  75.908  1.00  0.00     0.001 A 
HETATM   32  C19 UNL     1       9.867  32.908  75.123  1.00  0.00     0.000 A 
HETATM   33  C20 UNL     1       8.758  32.471  74.429  1.00  0.00     0.001 A 
HETATM   34  C21 UNL     1       7.568  33.189  74.549  1.00  0.00     0.009 A 
ENDBRANCH  28  29
ENDBRANCH   4  28
TORSDOF 8
ENDMDL
MODEL 2
REMARK VINA RESULT: -6.930857121      2.552      4.310
REMARK  8 active torsions:
REMARK  status: ('A' for Active; 'I' for Inactive)
REMARK    1  A    between atoms: N1_1  and  S1_4 
REMARK    2  A    between atoms: S1_4  and  C1_7 
REMARK    3  A    between atoms: C4_10  and  C5_11 
REMARK    4  A    between atoms: C5_11  and  C6_12 
REMARK    5  A    between atoms: C7_14  and  C8_15 
REMARK    6  A    between atoms: C8_15  and  C9_16 
REMARK    7  A    between atoms: N2_23  and  C15_24 
REMARK    8  A    between atoms: C15_24  and  C16_25 
ROOT
HETATM    1  C6  UNL     1       3.721  37.329  80.036  1.00  0.00     0.076 A 
HETATM    2  S2  UNL     1       5.078  38.273  79.644  1.00  0.00    -0.067 SA
HETATM    3  C7  UNL     1       6.151  37.003  79.239  1.00  0.00     0.081 A 
HETATM    4  N2  UNL     1       5.419  35.907  79.420  1.00  0.00    -0.303 N 
HETATM    5  C22 UNL     1       4.183  36.056  79.826  1.00  0.00     0.266 A 
HETATM    6  O3  UNL     1       3.349  35.089  80.053  1.00  0.00    -0.266 OA
ENDROOT
BRANCH   1   7
HETATM    7  C5  UNL     1       2.508  37.748  80.446  1.00  0.00     0.036 C 
BRANCH   7   8
HETATM    8  C4  UNL     1       2.267  39.186  80.443  1.00  0.00    -0.035 A 
HETATM    9  C3  UNL     1       2.707  40.012  79.426  1.00  0.00     0.013 A 
HETATM   10  C2  UNL     1       2.449  41.376  79.475  1.00  0.00     0.026 A 
HETATM   11  C1  UNL     1       1.753  41.949  80.523  1.00  0.00     0.079 A 
HETATM   12  C24 UNL     1       1.312  41.120  81.538  1.00  0.00     0.026 A 
HETATM   13  C23 UNL     1       1.574  39.751  81.489  1.00  0.00     0.013 A 
BRANCH  11  14
HETATM   14  S1  UNL     1       1.418  43.661  80.601  1.00  0.00     0.256 S 
HETATM   15  O1  UNL     1       0.452  44.063  79.515  1.00  0.00    -0.201 OA
HETATM   16  O2  UNL     1       2.709  44.414  80.365  1.00  0.00    -0.201 OA
BRANCH  14  17
HETATM   17  N1  UNL     1       0.821  44.049  82.159  1.00  0.00    -0.324 N 
ATOM     18  H12 UNL     1       0.296  44.900  82.361  1.00  0.00     0.169 HD
ATOM     19  H11 UNL     1       1.057  43.332  82.845  1.00  0.00     0.169 HD
ENDBRANCH  14  17
ENDBRANCH  11  14
ENDBRANCH   7   8
ENDBRANCH   1   7
BRANCH   3  20
HETATM   20  C8  UNL     1       7.424  37.132  78.869  1.00  0.00     0.050 C 
BRANCH  20  21
HETATM   21  C9  UNL     1       7.729  37.601  77.501  1.00  0.00    -0.012 A 
HETATM   22  C10 UNL     1       6.857  38.382  76.817  1.00  0.00     0.013 A 
HETATM   23  C11 UNL     1       7.162  38.819  75.521  1.00  0.00     0.001 A 
HETATM   24  C12 UNL     1       8.353  38.470  74.905  1.00  0.00     0.002 A 
HETATM   25  C13 UNL     1       9.222  37.676  75.623  1.00  0.00     0.024 A 
HETATM   26  C14 UNL     1       8.917  37.239  76.918  1.00  0.00     0.044 A 
HETATM   27 CL1  UNL     1      10.033  36.233  77.810  1.00  0.00    -0.083 Cl
ENDBRANCH  20  21
ENDBRANCH   3  20
BRANCH   4  28
HETATM   28  C15 UNL     1       5.977  34.561  79.144  1.00  0.00     0.171 C 
BRANCH  28  29
HETATM   29  C16 UNL     1       6.447  34.382  77.757  1.00  0.00    -0.040 A 
HETATM   30  C17 UNL     1       5.687  34.850  76.674  1.00  0.00     0.009 A 
HETATM   31  C18 UNL     1       6.158  34.660  75.404  1.00  0.00     0.001 A 
HETATM   32  C19 UNL     1       7.355  34.026  75.131  1.00  0.00     0.000 A 
HETATM   33  C20 UNL     1       8.110  33.561  76.187  1.00  0.00     0.001 A 
HETATM   34  C21 UNL     1       7.633  33.752  77.485  1.00  0.00     0.009 A 
ENDBRANCH  28  29
ENDBRANCH   4  28
TORSDOF 8
ENDMDL
MODEL 3
REMARK VINA RESULT: -6.868214913      1.942      2.668
REMARK  8 active torsions:
REMARK  status: ('A' for Active; 'I' for Inactive)
REMARK    1  A    between atoms: N1_1  and  S1_4 
REMARK    2  A    between atoms: S1_4  and  C1_7 
REMARK    3  A    between atoms: C4_10  and  C5_11 
REMARK    4  A    between atoms: C5_11  and  C6_12 
REMARK    5  A    between atoms: C7_14  and  C8_15 
REMARK    6  A    between atoms: C8_15  and  C9_16 
REMARK    7  A    between atoms: N2_23  and  C15_24 
REMARK    8  A    between atoms: C15_24  and  C16_25 
ROOT
HETATM    1  C6  UNL     1       5.721  39.189  77.688  1.00  0.00     0.076 A 
HETATM    2  S2  UNL     1       5.263  38.363  79.100  1.00  0.00    -0.067 SA
HETATM    3  C7  UNL     1       6.391  37.079  79.010  1.00  0.00     0.081 A 
HETATM    4  N2  UNL     1       7.074  37.341  77.899  1.00  0.00    -0.303 N 
HETATM    5  C22 UNL     1       6.745  38.409  77.215  1.00  0.00     0.266 A 
HETATM    6  O3  UNL     1       7.309  38.795  76.113  1.00  0.00    -0.266 OA
ENDROOT
BRANCH   1   7
HETATM    7  C5  UNL     1       5.197  40.322  77.182  1.00  0.00     0.036 C 
BRANCH   7   8
HETATM    8  C4  UNL     1       4.254  41.050  78.022  1.00  0.00    -0.035 A 
HETATM    9  C3  UNL     1       3.151  40.448  78.596  1.00  0.00     0.013 A 
HETATM   10  C2  UNL     1       2.285  41.191  79.388  1.00  0.00     0.026 A 
HETATM   11  C1  UNL     1       2.491  42.536  79.630  1.00  0.00     0.079 A 
HETATM   12  C24 UNL     1       3.597  43.136  79.055  1.00  0.00     0.026 A 
HETATM   13  C23 UNL     1       4.465  42.389  78.259  1.00  0.00     0.013 A 
BRANCH  11  14
HETATM   14  S1  UNL     1       1.414  43.485  80.624  1.00  0.00     0.256 S 
HETATM   15  O1  UNL     1       0.300  44.069  79.793  1.00  0.00    -0.201 OA
HETATM   16  O2  UNL     1       2.197  44.639  81.214  1.00  0.00    -0.201 OA
BRANCH  14  17
HETATM   17  N1  UNL     1       0.814  42.509  81.898  1.00  0.00    -0.324 N 
ATOM     18  H12 UNL     1      -0.124  42.107  81.900  1.00  0.00     0.169 HD
ATOM     19  H11 UNL     1       1.504  42.386  82.639  1.00  0.00     0.169 HD
ENDBRANCH  14  17
ENDBRANCH  11  14
ENDBRANCH   7   8
ENDBRANCH   1   7
BRANCH   3  20
HETATM   20  C8  UNL     1       6.496  36.059  79.860  1.00  0.00     0.050 C 
BRANCH  20  21
HETATM   21  C9  UNL     1       5.992  34.731  79.451  1.00  0.00    -0.012 A 
HETATM   22  C10 UNL     1       4.719  34.568  79.015  1.00  0.00     0.013 A 
HETATM   23  C11 UNL     1       4.257  33.302  78.630  1.00  0.00     0.001 A 
HETATM   24  C12 UNL     1       5.081  32.189  78.683  1.00  0.00     0.002 A 
HETATM   25  C13 UNL     1       6.370  32.382  79.130  1.00  0.00     0.024 A 
HETATM   26  C14 UNL     1       6.832  33.647  79.514  1.00  0.00     0.044 A 
HETATM   27 CL1  UNL     1       8.470  33.870  80.077  1.00  0.00    -0.083 Cl
ENDBRANCH  20  21
ENDBRANCH   3  20
BRANCH   4  28
HETATM   28  C15 UNL     1       8.190  36.469  77.464  1.00  0.00     0.171 C 
BRANCH  28  29
HETATM   29  C16 UNL     1       7.776  35.364  76.578  1.00  0.00    -0.040 A 
HETATM   30  C17 UNL     1       6.505  35.357  75.985  1.00  0.00     0.009 A 
HETATM   31  C18 UNL     1       6.159  34.312  75.172  1.00  0.00     0.001 A 
HETATM   32  C19 UNL     1       7.007  33.255  74.903  1.00  0.00     0.000 A 
HETATM   33  C20 UNL     1       8.259  33.251  75.481  1.00  0.00     0.001 A 
HETATM   34  C21 UNL     1       8.615  34.315  76.311  1.00  0.00     0.009 A 
ENDBRANCH  28  29
ENDBRANCH   4  28
TORSDOF 8
ENDMDL
MODEL 4
REMARK VINA RESULT: -6.855642907      2.669      4.455
REMARK  8 active torsions:
REMARK  status: ('A' for Active; 'I' for Inactive)
REMARK    1  A    between atoms: N1_1  and  S1_4 
REMARK    2  A    between atoms: S1_4  and  C1_7 
REMARK    3  A    between atoms: C4_10  and  C5_11 
REMARK    4  A    between atoms: C5_11  and  C6_12 
REMARK    5  A    between atoms: C7_14  and  C8_15 
REMARK    6  A    between atoms: C8_15  and  C9_16 
REMARK    7  A    between atoms: N2_23  and  C15_24 
REMARK    8  A    between atoms: C15_24  and  C16_25 
ROOT
HETATM    1  C6  UNL     1       3.665  38.741  79.709  1.00  0.00     0.076 A 
HETATM    2  S2  UNL     1       4.576  39.137  78.331  1.00  0.00    -0.067 SA
HETATM    3  C7  UNL     1       5.927  38.132  78.633  1.00  0.00     0.081 A 
HETATM    4  N2  UNL     1       5.619  37.532  79.780  1.00  0.00    -0.303 N 
HETATM    5  C22 UNL     1       4.473  37.832  80.340  1.00  0.00     0.266 A 
HETATM    6  O3  UNL     1       4.034  37.338  81.456  1.00  0.00    -0.266 OA
ENDROOT
BRANCH   1   7
HETATM    7  C5  UNL     1       2.455  39.213  80.068  1.00  0.00     0.036 C 
BRANCH   7   8
HETATM    8  C4  UNL     1       2.273  40.659  80.044  1.00  0.00    -0.035 A 
HETATM    9  C3  UNL     1       3.038  41.493  79.252  1.00  0.00     0.013 A 
HETATM   10  C2  UNL     1       2.821  42.864  79.269  1.00  0.00     0.026 A 
HETATM   11  C1  UNL     1       1.847  43.438  80.065  1.00  0.00     0.079 A 
HETATM   12  C24 UNL     1       1.081  42.601  80.856  1.00  0.00     0.026 A 
HETATM   13  C23 UNL     1       1.302  41.224  80.839  1.00  0.00     0.013 A 
BRANCH  11  14
HETATM   14  S1  UNL     1       1.559  45.160  80.099  1.00  0.00     0.256 S 
HETATM   15  O1  UNL     1       2.451  45.867  79.109  1.00  0.00    -0.201 OA
HETATM   16  O2  UNL     1       1.906  45.677  81.478  1.00  0.00    -0.201 OA
BRANCH  14  17
HETATM   17  N1  UNL     1      -0.099  45.461  79.790  1.00  0.00    -0.324 N 
ATOM     18  H12 UNL     1      -0.588  45.105  78.968  1.00  0.00     0.169 HD
ATOM     19  H11 UNL     1      -0.523  46.032  80.521  1.00  0.00     0.169 HD
ENDBRANCH  14  17
ENDBRANCH  11  14
ENDBRANCH   7   8
ENDBRANCH   1   7
BRANCH   3  20
HETATM   20  C8  UNL     1       7.024  38.036  77.884  1.00  0.00     0.050 C 
BRANCH  20  21
HETATM   21  C9  UNL     1       7.197  36.851  77.017  1.00  0.00    -0.012 A 
HETATM   22  C10 UNL     1       6.141  36.289  76.377  1.00  0.00     0.013 A 
HETATM   23  C11 UNL     1       6.323  35.167  75.558  1.00  0.00     0.001 A 
HETATM   24  C12 UNL     1       7.576  34.602  75.378  1.00  0.00     0.002 A 
HETATM   25  C13 UNL     1       8.632  35.193  76.039  1.00  0.00     0.024 A 
HETATM   26  C14 UNL     1       8.450  36.315  76.858  1.00  0.00     0.044 A 
HETATM   27 CL1  UNL     1       9.802  37.047  77.686  1.00  0.00    -0.083 Cl
ENDBRANCH  20  21
ENDBRANCH   3  20
BRANCH   4  28
HETATM   28  C15 UNL     1       6.530  36.535  80.390  1.00  0.00     0.171 C 
BRANCH  28  29
HETATM   29  C16 UNL     1       6.410  35.182  79.813  1.00  0.00    -0.040 A 
HETATM   30  C17 UNL     1       5.162  34.676  79.423  1.00  0.00     0.009 A 
HETATM   31  C18 UNL     1       5.094  33.416  78.895  1.00  0.00     0.001 A 
HETATM   32  C19 UNL     1       6.203  32.609  78.725  1.00  0.00     0.000 A 
HETATM   33  C20 UNL     1       7.435  33.097  79.106  1.00  0.00     0.001 A 
HETATM   34  C21 UNL     1       7.509  34.381  79.645  1.00  0.00     0.009 A 
ENDBRANCH  28  29
ENDBRANCH   4  28
TORSDOF 8
ENDMDL
MODEL 5
REMARK VINA RESULT: -6.822152109      2.109      3.067
REMARK  8 active torsions:
REMARK  status: ('A' for Active; 'I' for Inactive)
REMARK    1  A    between atoms: N1_1  and  S1_4 
REMARK    2  A    between atoms: S1_4  and  C1_7 
REMARK    3  A    between atoms: C4_10  and  C5_11 
REMARK    4  A    between atoms: C5_11  and  C6_12 
REMARK    5  A    between atoms: C7_14  and  C8_15 
REMARK    6  A    between atoms: C8_15  and  C9_16 
REMARK    7  A    between atoms: N2_23  and  C15_24 
REMARK    8  A    between atoms: C15_24  and  C16_25 
ROOT
HETATM    1  C6  UNL     1       7.362  37.407  77.123  1.00  0.00     0.076 A 
HETATM    2  S2  UNL     1       6.420  36.404  76.126  1.00  0.00    -0.067 SA
HETATM    3  C7  UNL     1       7.570  35.163  75.871  1.00  0.00     0.081 A 
HETATM    4  N2  UNL     1       8.629  35.571  76.565  1.00  0.00    -0.303 N 
HETATM    5  C22 UNL     1       8.539  36.710  77.206  1.00  0.00     0.266 A 
HETATM    6  O3  UNL     1       9.483  37.244  77.918  1.00  0.00    -0.266 OA
ENDROOT
BRANCH   1   7
HETATM    7  C5  UNL     1       7.017  38.584  77.680  1.00  0.00     0.036 C 
BRANCH   7   8
HETATM    8  C4  UNL     1       5.785  38.613  78.459  1.00  0.00    -0.035 A 
HETATM    9  C3  UNL     1       5.421  37.591  79.314  1.00  0.00     0.013 A 
HETATM   10  C2  UNL     1       4.235  37.671  80.033  1.00  0.00     0.026 A 
HETATM   11  C1  UNL     1       3.390  38.760  79.924  1.00  0.00     0.079 A 
HETATM   12  C24 UNL     1       3.757  39.783  79.069  1.00  0.00     0.026 A 
HETATM   13  C23 UNL     1       4.948  39.699  78.347  1.00  0.00     0.013 A 
BRANCH  11  14
HETATM   14  S1  UNL     1       1.896  38.880  80.820  1.00  0.00     0.256 S 
HETATM   15  O1  UNL     1       1.048  40.009  80.291  1.00  0.00    -0.201 OA
HETATM   16  O2  UNL     1       2.226  39.195  82.263  1.00  0.00    -0.201 OA
BRANCH  14  17
HETATM   17  N1  UNL     1       1.073  37.379  80.750  1.00  0.00    -0.324 N 
ATOM     18  H12 UNL     1       1.351  36.618  80.129  1.00  0.00     0.169 HD
ATOM     19  H11 UNL     1       0.285  37.347  81.397  1.00  0.00     0.169 HD
ENDBRANCH  14  17
ENDBRANCH  11  14
ENDBRANCH   7   8
ENDBRANCH   1   7
BRANCH   3  20
HETATM   20  C8  UNL     1       7.407  34.078  75.115  1.00  0.00     0.050 C 
BRANCH  20  21
HETATM   21  C9  UNL     1       7.246  32.764  75.772  1.00  0.00    -0.012 A 
HETATM   22  C10 UNL     1       6.308  32.570  76.732  1.00  0.00     0.013 A 
HETATM   23  C11 UNL     1       6.168  31.318  77.344  1.00  0.00     0.001 A 
HETATM   24  C12 UNL     1       6.976  30.249  76.991  1.00  0.00     0.002 A 
HETATM   25  C13 UNL     1       7.921  30.473  76.012  1.00  0.00     0.024 A 
HETATM   26  C14 UNL     1       8.061  31.725  75.400  1.00  0.00     0.044 A 
HETATM   27 CL1  UNL     1       9.265  31.986  74.161  1.00  0.00    -0.083 Cl
ENDBRANCH  20  21
ENDBRANCH   3  20
BRANCH   4  28
HETATM   28  C15 UNL     1       9.861  34.749  76.634  1.00  0.00     0.171 C 
BRANCH  28  29
HETATM   29  C16 UNL     1       9.829  33.711  77.681  1.00  0.00    -0.040 A 
HETATM   30  C17 UNL     1       8.998  33.847  78.803  1.00  0.00     0.009 A 
HETATM   31  C18 UNL     1       9.001  32.862  79.752  1.00  0.00     0.001 A 
HETATM   32  C19 UNL     1       9.788  31.730  79.661  1.00  0.00     0.000 A 
HETATM   33  C20 UNL     1      10.610  31.586  78.563  1.00  0.00     0.001 A 
HETATM   34  C21 UNL     1      10.610  32.589  77.593  1.00  0.00     0.009 A 
ENDBRANCH  28  29
ENDBRANCH   4  28
TORSDOF 8
ENDMDL
