MODEL 1
REMARK VINA RESULT: -8.036953307      0.000      0.000
REMARK  5 active torsions:
REMARK  status: ('A' for Active; 'I' for Inactive)
REMARK    1  A    between atoms: C2_2  and  S1_3 
REMARK    2  A    between atoms: S1_3  and  C3_5 
REMARK    3  A    between atoms: C6_8  and  C7_9 
REMARK    4  A    between atoms: C10_15  and  C11_16 
REMARK    5  A    between atoms: C15_20  and  C16_21 
ROOT
HETATM    1  C7  UNL     1       7.832  33.293  76.570  1.00  0.00     0.032 C 
HETATM    2  C8  UNL     1       7.655  34.559  76.882  1.00  0.00     0.085 A 
HETATM    3  C9  UNL     1       8.765  35.527  77.101  1.00  0.00     0.260 A 
HETATM    4  O2  UNL     1       9.971  35.209  76.967  1.00  0.00    -0.267 OA
HETATM    5  N1  UNL     1       8.177  36.734  77.451  1.00  0.00    -0.319 N 
ATOM      6  H1  UNL     1       8.718  37.574  77.656  1.00  0.00     0.169 HD
HETATM    7  C10 UNL     1       6.881  36.703  77.494  1.00  0.00     0.103 A 
HETATM    8  C23 UNL     1       6.461  35.361  77.147  1.00  0.00     0.215 A 
HETATM    9  O4  UNL     1       5.295  34.904  77.074  1.00  0.00    -0.285 OA
ENDROOT
BRANCH   7  10
HETATM   10  C11 UNL     1       6.102  37.909  77.851  1.00  0.00     0.069 A 
HETATM   11  C12 UNL     1       5.403  37.937  79.052  1.00  0.00    -0.042 A 
HETATM   12  C13 UNL     1       5.398  36.796  80.008  1.00  0.00     0.049 C 
HETATM   13  C14 UNL     1       4.670  39.093  79.381  1.00  0.00     0.038 A 
HETATM   14  C15 UNL     1       4.599  40.201  78.582  1.00  0.00     0.045 A 
HETATM   15  N2  UNL     1       5.282  40.138  77.435  1.00  0.00    -0.322 N 
HETATM   16  C22 UNL     1       6.017  39.028  77.070  1.00  0.00     0.259 A 
ATOM     17  H2  UNL     1       5.260  40.939  76.805  1.00  0.00     0.169 HD
HETATM   18  O3  UNL     1       6.617  39.079  75.972  1.00  0.00    -0.267 OA
BRANCH  14  19
HETATM   19  C16 UNL     1       3.830  41.385  78.945  1.00  0.00    -0.009 A 
HETATM   20  C17 UNL     1       4.381  42.652  78.935  1.00  0.00     0.015 A 
HETATM   21  C18 UNL     1       3.651  43.794  79.281  1.00  0.00     0.024 A 
HETATM   22  C19 UNL     1       2.340  43.688  79.646  1.00  0.00     0.034 A 
HETATM   23 CL1  UNL     1       1.378  45.097  80.089  1.00  0.00    -0.084 Cl
HETATM   24  C20 UNL     1       1.763  42.443  79.666  1.00  0.00     0.024 A 
HETATM   25  C21 UNL     1       2.508  41.302  79.317  1.00  0.00     0.015 A 
ENDBRANCH  14  19
ENDBRANCH   7  10
BRANCH   1  26
HETATM   26  C6  UNL     1       6.748  32.370  76.354  1.00  0.00    -0.035 A 
HETATM   27  C5  UNL     1       6.068  32.373  75.130  1.00  0.00     0.013 A 
HETATM   28  C4  UNL     1       4.996  31.553  74.910  1.00  0.00     0.022 A 
HETATM   29  C3  UNL     1       4.573  30.701  75.913  1.00  0.00     0.031 A 
HETATM   30  C25 UNL     1       5.213  30.659  77.143  1.00  0.00     0.022 A 
HETATM   31  C24 UNL     1       6.295  31.504  77.330  1.00  0.00     0.013 A 
BRANCH  29  32
HETATM   32  S1  UNL     1       3.219  29.668  75.619  1.00  0.00     0.049 S 
HETATM   33  O1  UNL     1       2.337  29.513  77.030  1.00  0.00    -0.253 OA
BRANCH  32  34
HETATM   34  C2  UNL     1       3.843  28.072  75.107  1.00  0.00     0.109 C 
HETATM   35  C1  UNL     1       3.745  27.901  73.624  1.00  0.00     0.019 C 
ENDBRANCH  32  34
ENDBRANCH  29  32
ENDBRANCH   1  26
TORSDOF 5
ENDMDL
MODEL 2
REMARK VINA RESULT: -8.013924037      3.875      5.714
REMARK  5 active torsions:
REMARK  status: ('A' for Active; 'I' for Inactive)
REMARK    1  A    between atoms: C2_2  and  S1_3 
REMARK    2  A    between atoms: S1_3  and  C3_5 
REMARK    3  A    between atoms: C6_8  and  C7_9 
REMARK    4  A    between atoms: C10_15  and  C11_16 
REMARK    5  A    between atoms: C15_20  and  C16_21 
ROOT
HETATM    1  C7  UNL     1       9.688  33.321  77.110  1.00  0.00     0.032 C 
HETATM    2  C8  UNL     1       8.737  34.224  77.000  1.00  0.00     0.085 A 
HETATM    3  C9  UNL     1       7.829  34.342  75.826  1.00  0.00     0.260 A 
HETATM    4  O2  UNL     1       7.882  33.551  74.853  1.00  0.00    -0.267 OA
HETATM    5  N1  UNL     1       7.004  35.431  76.067  1.00  0.00    -0.319 N 
ATOM      6  H1  UNL     1       6.282  35.734  75.414  1.00  0.00     0.169 HD
HETATM    7  C10 UNL     1       7.231  36.031  77.195  1.00  0.00     0.103 A 
HETATM    8  C23 UNL     1       8.315  35.333  77.855  1.00  0.00     0.215 A 
HETATM    9  O4  UNL     1       8.846  35.590  78.962  1.00  0.00    -0.285 OA
ENDROOT
BRANCH   7  10
HETATM   10  C11 UNL     1       6.437  37.212  77.602  1.00  0.00     0.069 A 
HETATM   11  C12 UNL     1       5.688  37.158  78.771  1.00  0.00    -0.042 A 
HETATM   12  C13 UNL     1       5.641  35.952  79.643  1.00  0.00     0.049 C 
HETATM   13  C14 UNL     1       4.942  38.290  79.149  1.00  0.00     0.038 A 
HETATM   14  C15 UNL     1       4.906  39.452  78.428  1.00  0.00     0.045 A 
HETATM   15  N2  UNL     1       5.638  39.467  77.309  1.00  0.00    -0.322 N 
HETATM   16  C22 UNL     1       6.386  38.383  76.898  1.00  0.00     0.259 A 
ATOM     17  H2  UNL     1       5.643  40.312  76.737  1.00  0.00     0.169 HD
HETATM   18  O3  UNL     1       7.033  38.510  75.833  1.00  0.00    -0.267 OA
BRANCH  14  19
HETATM   19  C16 UNL     1       4.123  40.611  78.841  1.00  0.00    -0.009 A 
HETATM   20  C17 UNL     1       4.526  41.904  78.572  1.00  0.00     0.015 A 
HETATM   21  C18 UNL     1       3.781  43.022  78.963  1.00  0.00     0.024 A 
HETATM   22  C19 UNL     1       2.605  42.864  79.636  1.00  0.00     0.034 A 
HETATM   23 CL1  UNL     1       1.630  44.240  80.150  1.00  0.00    -0.084 Cl
HETATM   24  C20 UNL     1       2.177  41.591  79.918  1.00  0.00     0.024 A 
HETATM   25  C21 UNL     1       2.935  40.475  79.520  1.00  0.00     0.015 A 
ENDBRANCH  14  19
ENDBRANCH   7  10
BRANCH   1  26
HETATM   26  C6  UNL     1      10.553  33.216  78.255  1.00  0.00    -0.035 A 
HETATM   27  C5  UNL     1      11.861  33.715  78.185  1.00  0.00     0.013 A 
HETATM   28  C4  UNL     1      12.730  33.580  79.231  1.00  0.00     0.022 A 
HETATM   29  C3  UNL     1      12.315  32.940  80.384  1.00  0.00     0.031 A 
HETATM   30  C25 UNL     1      11.032  32.428  80.504  1.00  0.00     0.022 A 
HETATM   31  C24 UNL     1      10.178  32.583  79.424  1.00  0.00     0.013 A 
BRANCH  29  32
HETATM   32  S1  UNL     1      13.424  32.779  81.700  1.00  0.00     0.049 S 
HETATM   33  O1  UNL     1      14.001  31.212  81.737  1.00  0.00    -0.253 OA
BRANCH  32  34
HETATM   34  C2  UNL     1      12.543  33.145  83.213  1.00  0.00     0.109 C 
HETATM   35  C1  UNL     1      13.420  33.859  84.192  1.00  0.00     0.019 C 
ENDBRANCH  32  34
ENDBRANCH  29  32
ENDBRANCH   1  26
TORSDOF 5
ENDMDL
MODEL 3
REMARK VINA RESULT: -8.006356900      1.117      1.372
REMARK  5 active torsions:
REMARK  status: ('A' for Active; 'I' for Inactive)
REMARK    1  A    between atoms: C2_2  and  S1_3 
REMARK    2  A    between atoms: S1_3  and  C3_5 
REMARK    3  A    between atoms: C6_8  and  C7_9 
REMARK    4  A    between atoms: C10_15  and  C11_16 
REMARK    5  A    between atoms: C15_20  and  C16_21 
ROOT
HETATM    1  C7  UNL     1       8.089  34.646  76.605  1.00  0.00     0.032 C 
HETATM    2  C8  UNL     1       7.695  35.852  76.953  1.00  0.00     0.085 A 
HETATM    3  C9  UNL     1       8.618  36.991  77.212  1.00  0.00     0.260 A 
HETATM    4  O2  UNL     1       9.862  36.890  77.081  1.00  0.00    -0.267 OA
HETATM    5  N1  UNL     1       7.829  38.067  77.591  1.00  0.00    -0.319 N 
ATOM      6  H1  UNL     1       8.215  38.981  77.827  1.00  0.00     0.169 HD
HETATM    7  C10 UNL     1       6.558  37.811  77.620  1.00  0.00     0.103 A 
HETATM    8  C23 UNL     1       6.378  36.427  77.229  1.00  0.00     0.215 A 
HETATM    9  O4  UNL     1       5.309  35.778  77.131  1.00  0.00    -0.285 OA
ENDROOT
BRANCH   7  10
HETATM   10  C11 UNL     1       5.580  38.852  78.005  1.00  0.00     0.069 A 
HETATM   11  C12 UNL     1       4.844  38.696  79.174  1.00  0.00    -0.042 A 
HETATM   12  C13 UNL     1       4.990  37.514  80.067  1.00  0.00     0.049 C 
HETATM   13  C14 UNL     1       3.920  39.697  79.530  1.00  0.00     0.038 A 
HETATM   14  C15 UNL     1       3.698  40.824  78.788  1.00  0.00     0.045 A 
HETATM   15  N2  UNL     1       4.422  40.940  77.670  1.00  0.00    -0.322 N 
HETATM   16  C22 UNL     1       5.341  39.987  77.280  1.00  0.00     0.259 A 
ATOM     17  H2  UNL     1       4.292  41.764  77.083  1.00  0.00     0.169 HD
HETATM   18  O3  UNL     1       5.963  40.199  76.215  1.00  0.00    -0.267 OA
BRANCH  14  19
HETATM   19  C16 UNL     1       2.733  41.846  79.177  1.00  0.00    -0.009 A 
HETATM   20  C17 UNL     1       3.094  43.166  79.365  1.00  0.00     0.015 A 
HETATM   21  C18 UNL     1       2.176  44.153  79.738  1.00  0.00     0.024 A 
HETATM   22  C19 UNL     1       0.863  43.834  79.931  1.00  0.00     0.034 A 
HETATM   23 CL1  UNL     1      -0.332  45.041  80.401  1.00  0.00    -0.084 Cl
HETATM   24  C20 UNL     1       0.473  42.530  79.753  1.00  0.00     0.024 A 
HETATM   25  C21 UNL     1       1.406  41.547  79.378  1.00  0.00     0.015 A 
ENDBRANCH  14  19
ENDBRANCH   7  10
BRANCH   1  26
HETATM   26  C6  UNL     1       7.182  33.557  76.351  1.00  0.00    -0.035 A 
HETATM   27  C5  UNL     1       6.628  33.400  75.074  1.00  0.00     0.013 A 
HETATM   28  C4  UNL     1       5.719  32.414  74.810  1.00  0.00     0.022 A 
HETATM   29  C3  UNL     1       5.336  31.552  75.821  1.00  0.00     0.031 A 
HETATM   30  C25 UNL     1       5.855  31.665  77.102  1.00  0.00     0.022 A 
HETATM   31  C24 UNL     1       6.774  32.676  77.333  1.00  0.00     0.013 A 
BRANCH  29  32
HETATM   32  S1  UNL     1       4.187  30.308  75.473  1.00  0.00     0.049 S 
HETATM   33  O1  UNL     1       2.910  30.433  76.542  1.00  0.00    -0.253 OA
BRANCH  32  34
HETATM   34  C2  UNL     1       5.004  28.730  75.674  1.00  0.00     0.109 C 
HETATM   35  C1  UNL     1       4.462  27.985  76.852  1.00  0.00     0.019 C 
ENDBRANCH  32  34
ENDBRANCH  29  32
ENDBRANCH   1  26
TORSDOF 5
ENDMDL
MODEL 4
REMARK VINA RESULT: -7.982458299      0.974      1.449
REMARK  5 active torsions:
REMARK  status: ('A' for Active; 'I' for Inactive)
REMARK    1  A    between atoms: C2_2  and  S1_3 
REMARK    2  A    between atoms: S1_3  and  C3_5 
REMARK    3  A    between atoms: C6_8  and  C7_9 
REMARK    4  A    between atoms: C10_15  and  C11_16 
REMARK    5  A    between atoms: C15_20  and  C16_21 
ROOT
HETATM    1  C7  UNL     1       7.816  33.082  76.549  1.00  0.00     0.032 C 
HETATM    2  C8  UNL     1       7.650  34.354  76.838  1.00  0.00     0.085 A 
HETATM    3  C9  UNL     1       8.765  35.330  76.986  1.00  0.00     0.260 A 
HETATM    4  O2  UNL     1       9.965  35.010  76.806  1.00  0.00    -0.267 OA
HETATM    5  N1  UNL     1       8.190  36.544  77.332  1.00  0.00    -0.319 N 
ATOM      6  H1  UNL     1       8.738  37.389  77.494  1.00  0.00     0.169 HD
HETATM    7  C10 UNL     1       6.898  36.511  77.433  1.00  0.00     0.103 A 
HETATM    8  C23 UNL     1       6.466  35.161  77.137  1.00  0.00     0.215 A 
HETATM    9  O4  UNL     1       5.299  34.700  77.126  1.00  0.00    -0.285 OA
ENDROOT
BRANCH   7  10
HETATM   10  C11 UNL     1       6.131  37.724  77.796  1.00  0.00     0.069 A 
HETATM   11  C12 UNL     1       5.505  37.789  79.035  1.00  0.00    -0.042 A 
HETATM   12  C13 UNL     1       5.564  36.680  80.027  1.00  0.00     0.049 C 
HETATM   13  C14 UNL     1       4.783  38.950  79.368  1.00  0.00     0.038 A 
HETATM   14  C15 UNL     1       4.657  40.031  78.538  1.00  0.00     0.045 A 
HETATM   15  N2  UNL     1       5.272  39.933  77.355  1.00  0.00    -0.322 N 
HETATM   16  C22 UNL     1       5.992  38.816  76.984  1.00  0.00     0.259 A 
ATOM     17  H2  UNL     1       5.206  40.713  76.702  1.00  0.00     0.169 HD
HETATM   18  O3  UNL     1       6.526  38.834  75.851  1.00  0.00    -0.267 OA
BRANCH  14  19
HETATM   19  C16 UNL     1       3.902  41.223  78.907  1.00  0.00    -0.009 A 
HETATM   20  C17 UNL     1       4.470  42.481  78.911  1.00  0.00     0.015 A 
HETATM   21  C18 UNL     1       3.753  43.630  79.262  1.00  0.00     0.024 A 
HETATM   22  C19 UNL     1       2.439  43.539  79.618  1.00  0.00     0.034 A 
HETATM   23 CL1  UNL     1       1.492  44.957  80.068  1.00  0.00    -0.084 Cl
HETATM   24  C20 UNL     1       1.845  42.302  79.624  1.00  0.00     0.024 A 
HETATM   25  C21 UNL     1       2.577  41.154  79.270  1.00  0.00     0.015 A 
ENDBRANCH  14  19
ENDBRANCH   7  10
BRANCH   1  26
HETATM   26  C6  UNL     1       6.726  32.152  76.403  1.00  0.00    -0.035 A 
HETATM   27  C5  UNL     1       6.531  31.155  77.367  1.00  0.00     0.013 A 
HETATM   28  C4  UNL     1       5.544  30.219  77.231  1.00  0.00     0.022 A 
HETATM   29  C3  UNL     1       4.718  30.254  76.123  1.00  0.00     0.031 A 
HETATM   30  C25 UNL     1       4.870  31.221  75.141  1.00  0.00     0.022 A 
HETATM   31  C24 UNL     1       5.881  32.153  75.311  1.00  0.00     0.013 A 
BRANCH  29  32
HETATM   32  S1  UNL     1       3.473  29.066  75.967  1.00  0.00     0.049 S 
HETATM   33  O1  UNL     1       3.442  28.514  74.390  1.00  0.00    -0.253 OA
BRANCH  32  34
HETATM   34  C2  UNL     1       1.914  29.843  76.375  1.00  0.00     0.109 C 
HETATM   35  C1  UNL     1       1.832  30.159  77.836  1.00  0.00     0.019 C 
ENDBRANCH  32  34
ENDBRANCH  29  32
ENDBRANCH   1  26
TORSDOF 5
ENDMDL
MODEL 5
REMARK VINA RESULT: -7.967645559      3.886      5.646
REMARK  5 active torsions:
REMARK  status: ('A' for Active; 'I' for Inactive)
REMARK    1  A    between atoms: C2_2  and  S1_3 
REMARK    2  A    between atoms: S1_3  and  C3_5 
REMARK    3  A    between atoms: C6_8  and  C7_9 
REMARK    4  A    between atoms: C10_15  and  C11_16 
REMARK    5  A    between atoms: C15_20  and  C16_21 
ROOT
HETATM    1  C7  UNL     1       9.702  33.328  77.160  1.00  0.00     0.032 C 
HETATM    2  C8  UNL     1       8.754  34.231  77.036  1.00  0.00     0.085 A 
HETATM    3  C9  UNL     1       7.864  34.351  75.848  1.00  0.00     0.260 A 
HETATM    4  O2  UNL     1       7.932  33.561  74.876  1.00  0.00    -0.267 OA
HETATM    5  N1  UNL     1       7.037  35.440  76.077  1.00  0.00    -0.319 N 
ATOM      6  H1  UNL     1       6.325  35.744  75.413  1.00  0.00     0.169 HD
HETATM    7  C10 UNL     1       7.245  36.039  77.209  1.00  0.00     0.103 A 
HETATM    8  C23 UNL     1       8.319  35.340  77.885  1.00  0.00     0.215 A 
HETATM    9  O4  UNL     1       8.832  35.595  79.002  1.00  0.00    -0.285 OA
ENDROOT
BRANCH   7  10
HETATM   10  C11 UNL     1       6.446  37.220  77.605  1.00  0.00     0.069 A 
HETATM   11  C12 UNL     1       5.663  37.158  78.751  1.00  0.00    -0.042 A 
HETATM   12  C13 UNL     1       5.584  35.944  79.609  1.00  0.00     0.049 C 
HETATM   13  C14 UNL     1       4.911  38.290  79.118  1.00  0.00     0.038 A 
HETATM   14  C15 UNL     1       4.903  39.460  78.408  1.00  0.00     0.045 A 
HETATM   15  N2  UNL     1       5.667  39.482  77.311  1.00  0.00    -0.322 N 
HETATM   16  C22 UNL     1       6.422  38.399  76.912  1.00  0.00     0.259 A 
ATOM     17  H2  UNL     1       5.693  40.332  76.749  1.00  0.00     0.169 HD
HETATM   18  O3  UNL     1       7.101  38.532  75.868  1.00  0.00    -0.267 OA
BRANCH  14  19
HETATM   19  C16 UNL     1       4.113  40.619  78.809  1.00  0.00    -0.009 A 
HETATM   20  C17 UNL     1       2.903  40.494  79.463  1.00  0.00     0.015 A 
HETATM   21  C18 UNL     1       2.140  41.600  79.852  1.00  0.00     0.024 A 
HETATM   22  C19 UNL     1       2.580  42.866  79.592  1.00  0.00     0.034 A 
HETATM   23 CL1  UNL     1       1.655  44.291  80.063  1.00  0.00    -0.084 Cl
HETATM   24  C20 UNL     1       3.779  43.023  78.944  1.00  0.00     0.024 A 
HETATM   25  C21 UNL     1       4.537  41.903  78.557  1.00  0.00     0.015 A 
ENDBRANCH  14  19
ENDBRANCH   7  10
BRANCH   1  26
HETATM   26  C6  UNL     1      10.549  33.220  78.319  1.00  0.00    -0.035 A 
HETATM   27  C5  UNL     1      11.876  33.664  78.252  1.00  0.00     0.013 A 
HETATM   28  C4  UNL     1      12.727  33.524  79.313  1.00  0.00     0.022 A 
HETATM   29  C3  UNL     1      12.272  32.935  80.478  1.00  0.00     0.031 A 
HETATM   30  C25 UNL     1      10.968  32.480  80.596  1.00  0.00     0.022 A 
HETATM   31  C24 UNL     1      10.134  32.638  79.500  1.00  0.00     0.013 A 
BRANCH  29  32
HETATM   32  S1  UNL     1      13.359  32.768  81.812  1.00  0.00     0.049 S 
HETATM   33  O1  UNL     1      14.661  33.789  81.584  1.00  0.00    -0.253 OA
BRANCH  32  34
HETATM   34  C2  UNL     1      13.913  31.068  81.862  1.00  0.00     0.109 C 
HETATM   35  C1  UNL     1      13.020  30.232  82.723  1.00  0.00     0.019 C 
ENDBRANCH  32  34
ENDBRANCH  29  32
ENDBRANCH   1  26
TORSDOF 5
ENDMDL
