MODEL 1
REMARK VINA RESULT: -7.864039042      0.000      0.000
REMARK  16 active torsions:
REMARK  status: ('A' for Active; 'I' for Inactive)
REMARK    1  A    between atoms: N1_2  and  C2_3 
REMARK    2  A    between atoms: N1_2  and  C16_41 
REMARK    3  A    between atoms: C2_3  and  O1_4 
REMARK    4  A    between atoms: C2_3  and  C3_6 
REMARK    5  A    between atoms: N2_9  and  C6_10 
REMARK    6  A    between atoms: C7_11  and  O2_12 
REMARK    7  A    between atoms: C8_14  and  O3_15 
REMARK    8  A    between atoms: C9_17  and  O4_18 
REMARK       I    between atoms: N3_20  and  C10_21 
REMARK    9  A    between atoms: C10_21  and  C11_23 
REMARK   10  A    between atoms: C11_23  and  O6_24 
REMARK   11  A    between atoms: C13_29  and  N5_30 
REMARK   12  A    between atoms: C16_41  and  O8_42 
REMARK   13  A    between atoms: C16_41  and  C17_44 
REMARK   14  A    between atoms: C17_44  and  O9_45 
REMARK   15  A    between atoms: C17_44  and  C18_47 
REMARK   16  A    between atoms: C18_47  and  O10_48 
ROOT
HETATM    1  C3  UNL     1      17.062 -21.881  -8.264  1.00  0.00     0.078 A 
HETATM    2  C4  UNL     1      16.151 -21.544  -7.271  1.00  0.00     0.081 A 
HETATM    3  C5  UNL     1      16.506 -20.322  -6.736  1.00  0.00     0.135 A 
HETATM    4  N2  UNL     1      16.158 -19.400  -5.814  1.00  0.00    -0.290 N 
HETATM    5  C12 UNL     1      17.084 -18.423  -5.922  1.00  0.00     0.161 A 
HETATM    6  N4  UNL     1      17.287 -17.248  -5.289  1.00  0.00    -0.174 N 
ATOM      7  H4  UNL     1      16.637 -16.972  -4.554  1.00  0.00     0.186 HD
HETATM    8  C13 UNL     1      18.310 -16.428  -5.586  1.00  0.00     0.680 A 
HETATM    9  N6  UNL     1      19.206 -16.731  -6.541  1.00  0.00    -0.154 N 
ATOM     10  H6  UNL     1      19.979 -16.100  -6.755  1.00  0.00     0.187 HD
HETATM   11  C14 UNL     1      19.055 -17.883  -7.202  1.00  0.00     0.292 A 
HETATM   12  O7  UNL     1      19.882 -18.176  -8.094  1.00  0.00    -0.265 OA
HETATM   13  C15 UNL     1      18.013 -18.732  -6.911  1.00  0.00     0.171 A 
HETATM   14  N7  UNL     1      17.609 -19.935  -7.394  1.00  0.00    -0.230 N 
HETATM   15  N8  UNL     1      17.940 -20.865  -8.305  1.00  0.00    -0.291 N 
ATOM     16  H8  UNL     1      18.741 -20.809  -8.935  1.00  0.00     0.187 HD
ENDROOT
BRANCH   4  17
HETATM   17  C6  UNL     1      15.047 -19.423  -4.895  1.00  0.00     0.232 C 
HETATM   18  C7  UNL     1      15.244 -20.242  -3.680  1.00  0.00     0.194 C 
HETATM   19  C8  UNL     1      13.985 -21.031  -3.463  1.00  0.00     0.199 C 
HETATM   20  C9  UNL     1      13.070 -20.584  -4.569  1.00  0.00     0.256 C 
HETATM   21  N3  UNL     1      13.794 -19.767  -5.485  1.00  0.00    -0.296 N 
HETATM   22  C10 UNL     1      13.384 -19.351  -6.767  1.00  0.00     0.247 C 
HETATM   23  O5  UNL     1      14.190 -18.634  -7.480  1.00  0.00    -0.271 OA
BRANCH  18  24
HETATM   24  O2  UNL     1      15.422 -19.448  -2.520  1.00  0.00    -0.389 OA
ATOM     25  H2  UNL     1      15.826 -18.610  -2.715  1.00  0.00     0.210 HD
ENDBRANCH  18  24
BRANCH  19  26
HETATM   26  O3  UNL     1      13.446 -20.828  -2.192  1.00  0.00    -0.388 OA
ATOM     27  H3  UNL     1      13.505 -19.920  -1.917  1.00  0.00     0.210 HD
ENDBRANCH  19  26
BRANCH  20  28
HETATM   28  O4  UNL     1      12.048 -19.842  -3.917  1.00  0.00    -0.374 OA
ATOM     29  H4  UNL     1      11.632 -19.341  -4.609  1.00  0.00     0.212 HD
ENDBRANCH  20  28
BRANCH  22  30
HETATM   30  C11 UNL     1      12.083 -19.663  -7.399  1.00  0.00     0.267 C 
BRANCH  30  31
HETATM   31  O6  UNL     1      12.080 -19.671  -8.773  1.00  0.00    -0.392 OA
ATOM     32  H6  UNL     1      12.211 -18.826  -9.186  1.00  0.00     0.210 HD
ENDBRANCH  30  31
ENDBRANCH  22  30
ENDBRANCH   4  17
BRANCH   1  33
HETATM   33  C2  UNL     1      17.039 -23.122  -9.092  1.00  0.00     0.270 C 
BRANCH  33  34
HETATM   34  N1  UNL     1      17.674 -22.925 -10.351  1.00  0.00    -0.359 N 
HETATM   35  C1  UNL     1      19.063 -22.875 -10.364  1.00  0.00     0.148 C 
BRANCH  34  36
HETATM   36  C16 UNL     1      16.895 -22.919 -11.499  1.00  0.00     0.248 C 
BRANCH  36  37
HETATM   37  O8  UNL     1      15.539 -23.092 -11.125  1.00  0.00    -0.374 OA
ATOM     38  H8  UNL     1      15.387 -24.014 -10.956  1.00  0.00     0.212 HD
ENDBRANCH  36  37
BRANCH  36  39
HETATM   39  C17 UNL     1      17.202 -23.821 -12.627  1.00  0.00     0.190 C 
BRANCH  39  40
HETATM   40  O9  UNL     1      16.020 -23.911 -13.412  1.00  0.00    -0.389 OA
ATOM     41  H9  UNL     1      16.135 -23.321 -14.148  1.00  0.00     0.210 HD
ENDBRANCH  39  40
BRANCH  39  42
HETATM   42  C18 UNL     1      17.499 -25.256 -12.247  1.00  0.00     0.200 C 
BRANCH  42  43
HETATM   43  O10 UNL     1      16.358 -26.009 -12.089  1.00  0.00    -0.398 OA
ATOM     44  H10 UNL     1      16.254 -26.663 -12.769  1.00  0.00     0.209 HD
ENDBRANCH  42  43
ENDBRANCH  39  42
ENDBRANCH  36  39
ENDBRANCH  34  36
ENDBRANCH  33  34
BRANCH  33  45
HETATM   45  O1  UNL     1      17.608 -24.157  -8.358  1.00  0.00    -0.371 OA
ATOM     46  H1  UNL     1      16.962 -24.759  -8.009  1.00  0.00     0.212 HD
ENDBRANCH  33  45
ENDBRANCH   1  33
BRANCH   8  47
HETATM   47  N5  UNL     1      18.480 -15.308  -4.963  1.00  0.00    -0.234 N 
ATOM     48  H52 UNL     1      19.441 -15.047  -4.740  1.00  0.00     0.174 HD
ATOM     49  H51 UNL     1      17.690 -14.717  -4.706  1.00  0.00     0.174 HD
ENDBRANCH   8  47
TORSDOF 16
ENDMDL
MODEL 2
REMARK VINA RESULT: -7.789630861      3.427      8.670
REMARK  16 active torsions:
REMARK  status: ('A' for Active; 'I' for Inactive)
REMARK    1  A    between atoms: N1_2  and  C2_3 
REMARK    2  A    between atoms: N1_2  and  C16_41 
REMARK    3  A    between atoms: C2_3  and  O1_4 
REMARK    4  A    between atoms: C2_3  and  C3_6 
REMARK    5  A    between atoms: N2_9  and  C6_10 
REMARK    6  A    between atoms: C7_11  and  O2_12 
REMARK    7  A    between atoms: C8_14  and  O3_15 
REMARK    8  A    between atoms: C9_17  and  O4_18 
REMARK       I    between atoms: N3_20  and  C10_21 
REMARK    9  A    between atoms: C10_21  and  C11_23 
REMARK   10  A    between atoms: C11_23  and  O6_24 
REMARK   11  A    between atoms: C13_29  and  N5_30 
REMARK   12  A    between atoms: C16_41  and  O8_42 
REMARK   13  A    between atoms: C16_41  and  C17_44 
REMARK   14  A    between atoms: C17_44  and  O9_45 
REMARK   15  A    between atoms: C17_44  and  C18_47 
REMARK   16  A    between atoms: C18_47  and  O10_48 
ROOT
HETATM    1  C3  UNL     1      16.023 -20.398  -2.607  1.00  0.00     0.078 A 
HETATM    2  C4  UNL     1      16.921 -20.001  -3.590  1.00  0.00     0.081 A 
HETATM    3  C5  UNL     1      16.231 -19.801  -4.769  1.00  0.00     0.135 A 
HETATM    4  N2  UNL     1      16.376 -19.442  -6.062  1.00  0.00    -0.290 N 
HETATM    5  C12 UNL     1      15.134 -19.500  -6.588  1.00  0.00     0.161 A 
HETATM    6  N4  UNL     1      14.621 -19.261  -7.814  1.00  0.00    -0.174 N 
ATOM      7  H4  UNL     1      15.254 -18.969  -8.558  1.00  0.00     0.186 HD
HETATM    8  C13 UNL     1      13.313 -19.392  -8.095  1.00  0.00     0.680 A 
HETATM    9  N6  UNL     1      12.423 -19.775  -7.162  1.00  0.00    -0.154 N 
ATOM     10  H6  UNL     1      11.434 -19.872  -7.389  1.00  0.00     0.187 HD
HETATM   11  C14 UNL     1      12.874 -20.025  -5.928  1.00  0.00     0.292 A 
HETATM   12  O7  UNL     1      12.056 -20.382  -5.052  1.00  0.00    -0.265 OA
HETATM   13  C15 UNL     1      14.209 -19.895  -5.625  1.00  0.00     0.171 A 
HETATM   14  N7  UNL     1      14.946 -20.073  -4.498  1.00  0.00    -0.230 N 
HETATM   15  N8  UNL     1      14.822 -20.429  -3.209  1.00  0.00    -0.291 N 
ATOM     16  H8  UNL     1      13.946 -20.686  -2.754  1.00  0.00     0.187 HD
ENDROOT
BRANCH   4  17
HETATM   17  C6  UNL     1      17.582 -19.074  -6.762  1.00  0.00     0.232 C 
HETATM   18  C7  UNL     1      18.471 -20.197  -7.130  1.00  0.00     0.194 C 
HETATM   19  C8  UNL     1      19.876 -19.781  -6.801  1.00  0.00     0.199 C 
HETATM   20  C9  UNL     1      19.737 -18.374  -6.287  1.00  0.00     0.256 C 
HETATM   21  N3  UNL     1      18.357 -18.062  -6.121  1.00  0.00    -0.296 N 
HETATM   22  C10 UNL     1      17.807 -16.957  -5.443  1.00  0.00     0.247 C 
HETATM   23  O5  UNL     1      16.521 -16.848  -5.363  1.00  0.00    -0.271 OA
BRANCH  18  24
HETATM   24  O2  UNL     1      18.449 -20.466  -8.521  1.00  0.00    -0.389 OA
ATOM     25  H2  UNL     1      19.044 -21.166  -8.762  1.00  0.00     0.210 HD
ENDBRANCH  18  24
BRANCH  19  26
HETATM   26  O3  UNL     1      20.728 -19.879  -7.902  1.00  0.00    -0.388 OA
ATOM     27  H3  UNL     1      20.770 -20.763  -8.247  1.00  0.00     0.210 HD
ENDBRANCH  19  26
BRANCH  20  28
HETATM   28  O4  UNL     1      20.331 -17.561  -7.290  1.00  0.00    -0.374 OA
ATOM     29  H4  UNL     1      20.109 -16.671  -7.044  1.00  0.00     0.212 HD
ENDBRANCH  20  28
BRANCH  22  30
HETATM   30  C11 UNL     1      18.578 -15.873  -4.793  1.00  0.00     0.267 C 
BRANCH  30  31
HETATM   31  O6  UNL     1      19.299 -15.070  -5.642  1.00  0.00    -0.392 OA
ATOM     32  H6  UNL     1      18.784 -14.553  -6.251  1.00  0.00     0.210 HD
ENDBRANCH  30  31
ENDBRANCH  22  30
ENDBRANCH   4  17
BRANCH   1  33
HETATM   33  C2  UNL     1      16.358 -20.715  -1.188  1.00  0.00     0.270 C 
BRANCH  33  34
HETATM   34  N1  UNL     1      16.167 -19.588  -0.339  1.00  0.00    -0.359 N 
HETATM   35  C1  UNL     1      17.182 -18.639  -0.301  1.00  0.00     0.148 C 
BRANCH  34  36
HETATM   36  C16 UNL     1      14.945 -19.432   0.298  1.00  0.00     0.248 C 
BRANCH  36  37
HETATM   37  O8  UNL     1      14.435 -18.147  -0.014  1.00  0.00    -0.374 OA
ATOM     38  H8  UNL     1      13.486 -18.187   0.003  1.00  0.00     0.212 HD
ENDBRANCH  36  37
BRANCH  36  39
HETATM   39  C17 UNL     1      14.813 -19.663   1.750  1.00  0.00     0.190 C 
BRANCH  39  40
HETATM   40  O9  UNL     1      14.099 -20.882   1.907  1.00  0.00    -0.389 OA
ATOM     41  H9  UNL     1      13.268 -20.662   2.311  1.00  0.00     0.210 HD
ENDBRANCH  39  40
BRANCH  39  42
HETATM   42  C18 UNL     1      13.972 -18.648   2.495  1.00  0.00     0.200 C 
BRANCH  42  43
HETATM   43  O10 UNL     1      12.909 -19.223   3.154  1.00  0.00    -0.398 OA
ATOM     44  H10 UNL     1      12.784 -18.867   4.026  1.00  0.00     0.209 HD
ENDBRANCH  42  43
ENDBRANCH  39  42
ENDBRANCH  36  39
ENDBRANCH  34  36
ENDBRANCH  33  34
BRANCH  33  45
HETATM   45  O1  UNL     1      15.613 -21.820  -0.792  1.00  0.00    -0.371 OA
ATOM     46  H1  UNL     1      15.920 -22.630  -1.182  1.00  0.00     0.212 HD
ENDBRANCH  33  45
ENDBRANCH   1  33
BRANCH   8  47
HETATM   47  N5  UNL     1      12.850 -19.156  -9.278  1.00  0.00    -0.234 N 
ATOM     48  H52 UNL     1      12.141 -19.799  -9.631  1.00  0.00     0.174 HD
ATOM     49  H51 UNL     1      13.180 -18.365  -9.831  1.00  0.00     0.174 HD
ENDBRANCH   8  47
TORSDOF 16
ENDMDL
MODEL 3
REMARK VINA RESULT: -7.767821019      3.363      5.282
REMARK  16 active torsions:
REMARK  status: ('A' for Active; 'I' for Inactive)
REMARK    1  A    between atoms: N1_2  and  C2_3 
REMARK    2  A    between atoms: N1_2  and  C16_41 
REMARK    3  A    between atoms: C2_3  and  O1_4 
REMARK    4  A    between atoms: C2_3  and  C3_6 
REMARK    5  A    between atoms: N2_9  and  C6_10 
REMARK    6  A    between atoms: C7_11  and  O2_12 
REMARK    7  A    between atoms: C8_14  and  O3_15 
REMARK    8  A    between atoms: C9_17  and  O4_18 
REMARK       I    between atoms: N3_20  and  C10_21 
REMARK    9  A    between atoms: C10_21  and  C11_23 
REMARK   10  A    between atoms: C11_23  and  O6_24 
REMARK   11  A    between atoms: C13_29  and  N5_30 
REMARK   12  A    between atoms: C16_41  and  O8_42 
REMARK   13  A    between atoms: C16_41  and  C17_44 
REMARK   14  A    between atoms: C17_44  and  O9_45 
REMARK   15  A    between atoms: C17_44  and  C18_47 
REMARK   16  A    between atoms: C18_47  and  O10_48 
ROOT
HETATM    1  C3  UNL     1      15.641 -17.953  -5.605  1.00  0.00     0.078 A 
HETATM    2  C4  UNL     1      15.217 -18.606  -4.455  1.00  0.00     0.081 A 
HETATM    3  C5  UNL     1      15.956 -18.146  -3.383  1.00  0.00     0.135 A 
HETATM    4  N2  UNL     1      16.131 -18.277  -2.051  1.00  0.00    -0.290 N 
HETATM    5  C12 UNL     1      17.122 -17.415  -1.737  1.00  0.00     0.161 A 
HETATM    6  N4  UNL     1      17.747 -17.082  -0.588  1.00  0.00    -0.174 N 
ATOM      7  H4  UNL     1      17.460 -17.544   0.275  1.00  0.00     0.186 HD
HETATM    8  C13 UNL     1      18.732 -16.168  -0.532  1.00  0.00     0.680 A 
HETATM    9  N6  UNL     1      19.162 -15.523  -1.631  1.00  0.00    -0.154 N 
ATOM     10  H6  UNL     1      19.911 -14.834  -1.575  1.00  0.00     0.187 HD
HETATM   11  C14 UNL     1      18.579 -15.813  -2.799  1.00  0.00     0.292 A 
HETATM   12  O7  UNL     1      18.970 -15.219  -3.828  1.00  0.00    -0.265 OA
HETATM   13  C15 UNL     1      17.569 -16.744  -2.872  1.00  0.00     0.171 A 
HETATM   14  N7  UNL     1      16.807 -17.237  -3.882  1.00  0.00    -0.230 N 
HETATM   15  N8  UNL     1      16.619 -17.122  -5.207  1.00  0.00    -0.291 N 
ATOM     16  H8  UNL     1      17.142 -16.497  -5.820  1.00  0.00     0.187 HD
ENDROOT
BRANCH   4  17
HETATM   17  C6  UNL     1      15.430 -19.141  -1.134  1.00  0.00     0.232 C 
HETATM   18  C7  UNL     1      14.800 -18.464   0.020  1.00  0.00     0.194 C 
HETATM   19  C8  UNL     1      15.102 -19.286   1.240  1.00  0.00     0.199 C 
HETATM   20  C9  UNL     1      15.877 -20.462   0.714  1.00  0.00     0.256 C 
HETATM   21  N3  UNL     1      16.192 -20.249  -0.659  1.00  0.00    -0.296 N 
HETATM   22  C10 UNL     1      17.101 -20.980  -1.450  1.00  0.00     0.247 C 
HETATM   23  O5  UNL     1      17.288 -20.624  -2.679  1.00  0.00    -0.271 OA
BRANCH  18  24
HETATM   24  O2  UNL     1      13.388 -18.418  -0.090  1.00  0.00    -0.389 OA
ATOM     25  H2  UNL     1      12.962 -18.361   0.757  1.00  0.00     0.210 HD
ENDBRANCH  18  24
BRANCH  19  26
HETATM   26  O3  UNL     1      13.946 -19.656   1.928  1.00  0.00    -0.388 OA
ATOM     27  H3  UNL     1      13.602 -18.948   2.460  1.00  0.00     0.210 HD
ENDBRANCH  19  26
BRANCH  20  28
HETATM   28  O4  UNL     1      15.004 -21.573   0.874  1.00  0.00    -0.374 OA
ATOM     29  H4  UNL     1      14.609 -21.696   0.019  1.00  0.00     0.212 HD
ENDBRANCH  20  28
BRANCH  22  30
HETATM   30  C11 UNL     1      17.886 -22.151  -1.001  1.00  0.00     0.267 C 
BRANCH  30  31
HETATM   31  O6  UNL     1      17.603 -23.333  -1.643  1.00  0.00    -0.392 OA
ATOM     32  H6  UNL     1      18.359 -23.836  -1.923  1.00  0.00     0.210 HD
ENDBRANCH  30  31
ENDBRANCH  22  30
ENDBRANCH   4  17
BRANCH   1  33
HETATM   33  C2  UNL     1      15.100 -18.158  -6.981  1.00  0.00     0.270 C 
BRANCH  33  34
HETATM   34  N1  UNL     1      15.881 -19.093  -7.718  1.00  0.00    -0.359 N 
HETATM   35  C1  UNL     1      17.254 -19.091  -7.499  1.00  0.00     0.148 C 
BRANCH  34  36
HETATM   36  C16 UNL     1      15.232 -20.028  -8.510  1.00  0.00     0.248 C 
BRANCH  36  37
HETATM   37  O8  UNL     1      15.159 -21.250  -7.796  1.00  0.00    -0.374 OA
ATOM     38  H8  UNL     1      15.663 -21.904  -8.265  1.00  0.00     0.212 HD
ENDBRANCH  36  37
BRANCH  36  39
HETATM   39  C17 UNL     1      15.687 -20.301  -9.888  1.00  0.00     0.190 C 
BRANCH  39  40
HETATM   40  O9  UNL     1      14.523 -20.332 -10.704  1.00  0.00    -0.389 OA
ATOM     41  H9  UNL     1      14.823 -20.388 -11.604  1.00  0.00     0.210 HD
ENDBRANCH  39  40
BRANCH  39  42
HETATM   42  C18 UNL     1      16.322 -21.658 -10.104  1.00  0.00     0.200 C 
BRANCH  42  43
HETATM   43  O10 UNL     1      15.504 -22.520 -10.799  1.00  0.00    -0.398 OA
ATOM     44  H10 UNL     1      15.760 -22.613 -11.709  1.00  0.00     0.209 HD
ENDBRANCH  42  43
ENDBRANCH  39  42
ENDBRANCH  36  39
ENDBRANCH  34  36
ENDBRANCH  33  34
BRANCH  33  45
HETATM   45  O1  UNL     1      13.765 -18.532  -6.882  1.00  0.00    -0.371 OA
ATOM     46  H1  UNL     1      13.311 -18.091  -6.174  1.00  0.00     0.212 HD
ENDBRANCH  33  45
ENDBRANCH   1  33
BRANCH   8  47
HETATM   47  N5  UNL     1      19.313 -15.869   0.583  1.00  0.00    -0.234 N 
ATOM     48  H52 UNL     1      20.292 -15.588   0.530  1.00  0.00     0.174 HD
ATOM     49  H51 UNL     1      18.814 -15.914   1.471  1.00  0.00     0.174 HD
ENDBRANCH   8  47
TORSDOF 16
ENDMDL
MODEL 4
REMARK VINA RESULT: -7.746263423      3.462      8.359
REMARK  16 active torsions:
REMARK  status: ('A' for Active; 'I' for Inactive)
REMARK    1  A    between atoms: N1_2  and  C2_3 
REMARK    2  A    between atoms: N1_2  and  C16_41 
REMARK    3  A    between atoms: C2_3  and  O1_4 
REMARK    4  A    between atoms: C2_3  and  C3_6 
REMARK    5  A    between atoms: N2_9  and  C6_10 
REMARK    6  A    between atoms: C7_11  and  O2_12 
REMARK    7  A    between atoms: C8_14  and  O3_15 
REMARK    8  A    between atoms: C9_17  and  O4_18 
REMARK       I    between atoms: N3_20  and  C10_21 
REMARK    9  A    between atoms: C10_21  and  C11_23 
REMARK   10  A    between atoms: C11_23  and  O6_24 
REMARK   11  A    between atoms: C13_29  and  N5_30 
REMARK   12  A    between atoms: C16_41  and  O8_42 
REMARK   13  A    between atoms: C16_41  and  C17_44 
REMARK   14  A    between atoms: C17_44  and  O9_45 
REMARK   15  A    between atoms: C17_44  and  C18_47 
REMARK   16  A    between atoms: C18_47  and  O10_48 
ROOT
HETATM    1  C3  UNL     1      16.281 -20.490  -2.598  1.00  0.00     0.078 A 
HETATM    2  C4  UNL     1      17.139 -20.038  -3.593  1.00  0.00     0.081 A 
HETATM    3  C5  UNL     1      16.412 -19.835  -4.749  1.00  0.00     0.135 A 
HETATM    4  N2  UNL     1      16.511 -19.441  -6.036  1.00  0.00    -0.290 N 
HETATM    5  C12 UNL     1      15.258 -19.531  -6.532  1.00  0.00     0.161 A 
HETATM    6  N4  UNL     1      14.707 -19.282  -7.739  1.00  0.00    -0.174 N 
ATOM      7  H4  UNL     1      15.309 -18.950  -8.492  1.00  0.00     0.186 HD
HETATM    8  C13 UNL     1      13.397 -19.454  -7.991  1.00  0.00     0.680 A 
HETATM    9  N6  UNL     1      12.546 -19.891  -7.046  1.00  0.00    -0.154 N 
ATOM     10  H6  UNL     1      11.555 -20.019  -7.251  1.00  0.00     0.187 HD
HETATM   11  C14 UNL     1      13.037 -20.154  -5.830  1.00  0.00     0.292 A 
HETATM   12  O7  UNL     1      12.255 -20.560  -4.942  1.00  0.00    -0.265 OA
HETATM   13  C15 UNL     1      14.374 -19.982  -5.557  1.00  0.00     0.171 A 
HETATM   14  N7  UNL     1      15.145 -20.160  -4.453  1.00  0.00    -0.230 N 
HETATM   15  N8  UNL     1      15.067 -20.550  -3.170  1.00  0.00    -0.291 N 
ATOM     16  H8  UNL     1      14.212 -20.849  -2.700  1.00  0.00     0.187 HD
ENDROOT
BRANCH   4  17
HETATM   17  C6  UNL     1      17.685 -19.013  -6.757  1.00  0.00     0.232 C 
HETATM   18  C7  UNL     1      18.608 -20.093  -7.166  1.00  0.00     0.194 C 
HETATM   19  C8  UNL     1      20.003 -19.627  -6.862  1.00  0.00     0.199 C 
HETATM   20  C9  UNL     1      19.821 -18.237  -6.318  1.00  0.00     0.256 C 
HETATM   21  N3  UNL     1      18.434 -17.983  -6.115  1.00  0.00    -0.296 N 
HETATM   22  C10 UNL     1      17.858 -16.912  -5.403  1.00  0.00     0.247 C 
HETATM   23  O5  UNL     1      16.570 -16.856  -5.292  1.00  0.00    -0.271 OA
BRANCH  18  24
HETATM   24  O2  UNL     1      18.564 -20.337  -8.560  1.00  0.00    -0.389 OA
ATOM     25  H2  UNL     1      18.383 -21.248  -8.761  1.00  0.00     0.210 HD
ENDBRANCH  18  24
BRANCH  19  26
HETATM   26  O3  UNL     1      20.832 -19.672  -7.983  1.00  0.00    -0.388 OA
ATOM     27  H3  UNL     1      20.932 -18.819  -8.390  1.00  0.00     0.210 HD
ENDBRANCH  19  26
BRANCH  20  28
HETATM   28  O4  UNL     1      20.359 -17.383  -7.319  1.00  0.00    -0.374 OA
ATOM     29  H4  UNL     1      19.896 -16.561  -7.211  1.00  0.00     0.212 HD
ENDBRANCH  20  28
BRANCH  22  30
HETATM   30  C11 UNL     1      18.600 -15.811  -4.751  1.00  0.00     0.267 C 
BRANCH  30  31
HETATM   31  O6  UNL     1      19.280 -14.973  -5.601  1.00  0.00    -0.392 OA
ATOM     32  H6  UNL     1      20.149 -14.718  -5.314  1.00  0.00     0.210 HD
ENDBRANCH  30  31
ENDBRANCH  22  30
ENDBRANCH   4  17
BRANCH   1  33
HETATM   33  C2  UNL     1      16.664 -20.828  -1.196  1.00  0.00     0.270 C 
BRANCH  33  34
HETATM   34  N1  UNL     1      15.852 -20.140  -0.250  1.00  0.00    -0.359 N 
HETATM   35  C1  UNL     1      14.853 -20.869   0.385  1.00  0.00     0.148 C 
BRANCH  34  36
HETATM   36  C16 UNL     1      16.174 -18.831   0.079  1.00  0.00     0.248 C 
BRANCH  36  37
HETATM   37  O8  UNL     1      15.292 -17.963  -0.612  1.00  0.00    -0.374 OA
ATOM     38  H8  UNL     1      15.297 -17.118  -0.177  1.00  0.00     0.212 HD
ENDBRANCH  36  37
BRANCH  36  39
HETATM   39  C17 UNL     1      17.555 -18.331  -0.066  1.00  0.00     0.190 C 
BRANCH  39  40
HETATM   40  O9  UNL     1      17.845 -17.586   1.110  1.00  0.00    -0.389 OA
ATOM     41  H9  UNL     1      17.964 -16.683   0.838  1.00  0.00     0.210 HD
ENDBRANCH  39  40
BRANCH  39  42
HETATM   42  C18 UNL     1      17.771 -17.339  -1.190  1.00  0.00     0.200 C 
BRANCH  42  43
HETATM   43  O10 UNL     1      17.644 -16.033  -0.775  1.00  0.00    -0.398 OA
ATOM     44  H10 UNL     1      18.339 -15.769  -0.183  1.00  0.00     0.209 HD
ENDBRANCH  42  43
ENDBRANCH  39  42
ENDBRANCH  36  39
ENDBRANCH  34  36
ENDBRANCH  33  34
BRANCH  33  45
HETATM   45  O1  UNL     1      16.615 -22.209  -1.042  1.00  0.00    -0.371 OA
ATOM     46  H1  UNL     1      17.089 -22.511  -0.276  1.00  0.00     0.212 HD
ENDBRANCH  33  45
ENDBRANCH   1  33
BRANCH   8  47
HETATM   47  N5  UNL     1      12.896 -19.208  -9.156  1.00  0.00    -0.234 N 
ATOM     48  H52 UNL     1      13.255 -18.389  -9.647  1.00  0.00     0.174 HD
ATOM     49  H51 UNL     1      12.175 -19.803  -9.562  1.00  0.00     0.174 HD
ENDBRANCH   8  47
TORSDOF 16
ENDMDL
MODEL 5
REMARK VINA RESULT: -7.651382766      2.406      7.319
REMARK  16 active torsions:
REMARK  status: ('A' for Active; 'I' for Inactive)
REMARK    1  A    between atoms: N1_2  and  C2_3 
REMARK    2  A    between atoms: N1_2  and  C16_41 
REMARK    3  A    between atoms: C2_3  and  O1_4 
REMARK    4  A    between atoms: C2_3  and  C3_6 
REMARK    5  A    between atoms: N2_9  and  C6_10 
REMARK    6  A    between atoms: C7_11  and  O2_12 
REMARK    7  A    between atoms: C8_14  and  O3_15 
REMARK    8  A    between atoms: C9_17  and  O4_18 
REMARK       I    between atoms: N3_20  and  C10_21 
REMARK    9  A    between atoms: C10_21  and  C11_23 
REMARK   10  A    between atoms: C11_23  and  O6_24 
REMARK   11  A    between atoms: C13_29  and  N5_30 
REMARK   12  A    between atoms: C16_41  and  O8_42 
REMARK   13  A    between atoms: C16_41  and  C17_44 
REMARK   14  A    between atoms: C17_44  and  O9_45 
REMARK   15  A    between atoms: C17_44  and  C18_47 
REMARK   16  A    between atoms: C18_47  and  O10_48 
ROOT
HETATM    1  C3  UNL     1      19.143 -18.135  -6.689  1.00  0.00     0.078 A 
HETATM    2  C4  UNL     1      18.638 -19.204  -7.418  1.00  0.00     0.081 A 
HETATM    3  C5  UNL     1      17.461 -19.626  -6.835  1.00  0.00     0.135 A 
HETATM    4  N2  UNL     1      16.462 -20.528  -6.938  1.00  0.00    -0.290 N 
HETATM    5  C12 UNL     1      15.634 -20.262  -5.905  1.00  0.00     0.161 A 
HETATM    6  N4  UNL     1      14.477 -20.801  -5.466  1.00  0.00    -0.174 N 
ATOM      7  H4  UNL     1      14.080 -21.588  -5.979  1.00  0.00     0.186 HD
HETATM    8  C13 UNL     1      13.826 -20.344  -4.381  1.00  0.00     0.680 A 
HETATM    9  N6  UNL     1      14.293 -19.312  -3.657  1.00  0.00    -0.154 N 
ATOM     10  H6  UNL     1      13.790 -18.978  -2.836  1.00  0.00     0.187 HD
HETATM   11  C14 UNL     1      15.437 -18.738  -4.045  1.00  0.00     0.292 A 
HETATM   12  O7  UNL     1      15.881 -17.776  -3.380  1.00  0.00    -0.265 OA
HETATM   13  C15 UNL     1      16.114 -19.193  -5.153  1.00  0.00     0.171 A 
HETATM   14  N7  UNL     1      17.263 -18.827  -5.775  1.00  0.00    -0.230 N 
HETATM   15  N8  UNL     1      18.267 -17.938  -5.689  1.00  0.00    -0.291 N 
ATOM     16  H8  UNL     1      18.352 -17.219  -4.969  1.00  0.00     0.187 HD
ENDROOT
BRANCH   4  17
HETATM   17  C6  UNL     1      16.288 -21.566  -7.924  1.00  0.00     0.232 C 
HETATM   18  C7  UNL     1      17.420 -22.507  -8.063  1.00  0.00     0.194 C 
HETATM   19  C8  UNL     1      17.656 -22.709  -9.532  1.00  0.00     0.199 C 
HETATM   20  C9  UNL     1      16.585 -21.888 -10.197  1.00  0.00     0.256 C 
HETATM   21  N3  UNL     1      15.913 -21.100  -9.219  1.00  0.00    -0.296 N 
HETATM   22  C10 UNL     1      15.026 -20.030  -9.447  1.00  0.00     0.247 C 
HETATM   23  O5  UNL     1      14.529 -19.401  -8.432  1.00  0.00    -0.271 OA
BRANCH  18  24
HETATM   24  O2  UNL     1      17.126 -23.785  -7.526  1.00  0.00    -0.389 OA
ATOM     25  H2  UNL     1      17.907 -24.308  -7.393  1.00  0.00     0.210 HD
ENDBRANCH  18  24
BRANCH  19  26
HETATM   26  O3  UNL     1      17.616 -24.056  -9.894  1.00  0.00    -0.388 OA
ATOM     27  H3  UNL     1      17.432 -24.175 -10.818  1.00  0.00     0.210 HD
ENDBRANCH  19  26
BRANCH  20  28
HETATM   28  O4  UNL     1      15.707 -22.842 -10.781  1.00  0.00    -0.374 OA
ATOM     29  H4  UNL     1      14.858 -22.417 -10.788  1.00  0.00     0.212 HD
ENDBRANCH  20  28
BRANCH  22  30
HETATM   30  C11 UNL     1      14.591 -19.538 -10.774  1.00  0.00     0.267 C 
BRANCH  30  31
HETATM   31  O6  UNL     1      13.251 -19.670 -11.042  1.00  0.00    -0.392 OA
ATOM     32  H6  UNL     1      12.861 -18.957 -11.534  1.00  0.00     0.210 HD
ENDBRANCH  30  31
ENDBRANCH  22  30
ENDBRANCH   4  17
BRANCH   1  33
HETATM   33  C2  UNL     1      20.399 -17.386  -6.983  1.00  0.00     0.270 C 
BRANCH  33  34
HETATM   34  N1  UNL     1      21.144 -17.125  -5.798  1.00  0.00    -0.359 N 
HETATM   35  C1  UNL     1      21.998 -18.126  -5.348  1.00  0.00     0.148 C 
BRANCH  34  36
HETATM   36  C16 UNL     1      21.079 -15.860  -5.233  1.00  0.00     0.248 C 
BRANCH  36  37
HETATM   37  O8  UNL     1      22.365 -15.516  -4.748  1.00  0.00    -0.374 OA
ATOM     38  H8  UNL     1      22.262 -14.978  -3.972  1.00  0.00     0.212 HD
ENDBRANCH  36  37
BRANCH  36  39
HETATM   39  C17 UNL     1      20.074 -15.543  -4.200  1.00  0.00     0.190 C 
BRANCH  39  40
HETATM   40  O9  UNL     1      18.909 -15.101  -4.886  1.00  0.00    -0.389 OA
ATOM     41  H9  UNL     1      18.821 -14.172  -4.703  1.00  0.00     0.210 HD
ENDBRANCH  39  40
BRANCH  39  42
HETATM   42  C18 UNL     1      20.423 -14.386  -3.288  1.00  0.00     0.200 C 
BRANCH  42  43
HETATM   43  O10 UNL     1      20.463 -13.182  -3.954  1.00  0.00    -0.398 OA
ATOM     44  H10 UNL     1      20.796 -12.476  -3.412  1.00  0.00     0.209 HD
ENDBRANCH  42  43
ENDBRANCH  39  42
ENDBRANCH  36  39
ENDBRANCH  34  36
ENDBRANCH  33  34
BRANCH  33  45
HETATM   45  O1  UNL     1      21.127 -18.095  -7.932  1.00  0.00    -0.371 OA
ATOM     46  H1  UNL     1      20.666 -18.861  -8.253  1.00  0.00     0.212 HD
ENDBRANCH  33  45
ENDBRANCH   1  33
BRANCH   8  47
HETATM   47  N5  UNL     1      12.719 -20.880  -3.984  1.00  0.00    -0.234 N 
ATOM     48  H52 UNL     1      12.760 -21.856  -3.690  1.00  0.00     0.174 HD
ATOM     49  H51 UNL     1      11.847 -20.351  -3.969  1.00  0.00     0.174 HD
ENDBRANCH   8  47
TORSDOF 16
ENDMDL
