MODEL 1
REMARK VINA RESULT: -7.120906332      0.000      0.000
REMARK  17 active torsions:
REMARK  status: ('A' for Active; 'I' for Inactive)
REMARK    1  A    between atoms: N1_1  and  O1_4 
REMARK    2  A    between atoms: O1_4  and  C1_5 
REMARK    3  A    between atoms: C2_6  and  O2_7 
REMARK    4  A    between atoms: N2_13  and  C6_14 
REMARK    5  A    between atoms: C7_16  and  C8_17 
REMARK    6  A    between atoms: C8_17  and  O5_18 
REMARK    7  A    between atoms: C9_20  and  O6_21 
REMARK    8  A    between atoms: C10_23  and  N3_24 
REMARK       I    between atoms: N3_24  and  C11_26 
REMARK       I    between atoms: C11_26  and  N4_28 
REMARK    9  A    between atoms: N4_28  and  N5_30 
REMARK   10  A    between atoms: N5_30  and  O8_31 
REMARK       I    between atoms: N5_30  and  C12_33 
REMARK   11  A    between atoms: C12_33  and  C13_35 
REMARK   12  A    between atoms: C13_35  and  N6_36 
REMARK   13  A    between atoms: C13_35  and  C14_40 
REMARK   14  A    between atoms: C14_40  and  O10_41 
REMARK   15  A    between atoms: C14_40  and  C15_43 
REMARK   16  A    between atoms: C15_43  and  O11_44 
REMARK   17  A    between atoms: C15_43  and  O12_46 
ROOT
HETATM    1  C6  UNL     1      16.161 -18.052  -4.263  1.00  0.00     0.302 C 
HETATM    2  O4  UNL     1      15.057 -18.599  -3.652  1.00  0.00    -0.349 OA
HETATM    3  C7  UNL     1      14.165 -19.230  -4.491  1.00  0.00     0.179 C 
HETATM    4  C9  UNL     1      14.673 -19.739  -5.771  1.00  0.00     0.179 C 
HETATM    5  C10 UNL     1      16.151 -20.028  -5.835  1.00  0.00     0.192 C 
HETATM    6  C16 UNL     1      16.893 -18.957  -5.135  1.00  0.00     0.200 C 
HETATM    7  O13 UNL     1      18.074 -18.866  -5.308  1.00  0.00    -0.291 OA
ENDROOT
BRANCH   5   8
HETATM    8  N3  UNL     1      16.570 -19.983  -7.220  1.00  0.00    -0.328 N 
HETATM    9  C11 UNL     1      16.596 -21.080  -8.090  1.00  0.00     0.337 C 
HETATM   10  O7  UNL     1      16.229 -22.199  -7.655  1.00  0.00    -0.245 OA
HETATM   11  N4  UNL     1      17.014 -20.993  -9.433  1.00  0.00    -0.222 N 
ATOM     12  H4  UNL     1      17.314 -20.088  -9.797  1.00  0.00     0.194 HD
ATOM     13  H3  UNL     1      16.870 -19.082  -7.592  1.00  0.00     0.165 HD
BRANCH  11  14
HETATM   14  N5  UNL     1      17.034 -22.104 -10.284  1.00  0.00    -0.121 N 
HETATM   15  C12 UNL     1      18.222 -22.803 -10.597  1.00  0.00     0.297 C 
HETATM   16  O9  UNL     1      19.289 -22.366 -10.054  1.00  0.00    -0.267 OA
BRANCH  14  17
HETATM   17  O8  UNL     1      15.862 -22.546 -10.852  1.00  0.00    -0.265 OA
ATOM     18  H8  UNL     1      15.889 -23.222 -11.520  1.00  0.00     0.247 HD
ENDBRANCH  14  17
BRANCH  15  19
HETATM   19  C13 UNL     1      18.322 -23.972 -11.477  1.00  0.00     0.312 C 
BRANCH  19  20
HETATM   20  N6  UNL     1      19.706 -24.280 -11.761  1.00  0.00    -0.064 N 
ATOM     21  H63 UNL     1      19.907 -24.232 -12.759  1.00  0.00     0.275 HD
ATOM     22  H62 UNL     1      20.332 -23.538 -11.444  1.00  0.00     0.275 HD
ATOM     23  H61 UNL     1      19.961 -25.185 -11.365  1.00  0.00     0.275 HD
ENDBRANCH  19  20
BRANCH  19  24
HETATM   24  C14 UNL     1      17.720 -25.235 -10.894  1.00  0.00     0.212 C 
BRANCH  24  25
HETATM   25  O10 UNL     1      16.351 -25.228 -11.258  1.00  0.00    -0.388 OA
ATOM     26  H10 UNL     1      16.214 -26.001 -11.794  1.00  0.00     0.210 HD
ENDBRANCH  24  25
BRANCH  24  27
HETATM   27  C15 UNL     1      17.720 -25.234  -9.377  1.00  0.00     0.285 C 
BRANCH  27  28
HETATM   28  O11 UNL     1      16.412 -25.020  -8.955  1.00  0.00    -0.369 OA
ATOM     29  H11 UNL     1      16.396 -25.110  -8.009  1.00  0.00     0.212 HD
ENDBRANCH  27  28
BRANCH  27  30
HETATM   30  O12 UNL     1      18.075 -26.519  -8.930  1.00  0.00    -0.369 OA
ATOM     31  H12 UNL     1      17.717 -26.645  -8.060  1.00  0.00     0.212 HD
ENDBRANCH  27  30
ENDBRANCH  24  27
ENDBRANCH  19  24
ENDBRANCH  15  19
ENDBRANCH  11  14
ENDBRANCH   5   8
BRANCH   4  32
HETATM   32  O6  UNL     1      13.998 -20.896  -6.168  1.00  0.00    -0.390 OA
ATOM     33  H6  UNL     1      14.316 -21.216  -7.003  1.00  0.00     0.210 HD
ENDBRANCH   4  32
BRANCH   3  34
HETATM   34  C8  UNL     1      13.423 -20.244  -3.647  1.00  0.00     0.198 C 
BRANCH  34  35
HETATM   35  O5  UNL     1      12.090 -20.388  -3.989  1.00  0.00    -0.398 OA
ATOM     36  H5  UNL     1      11.489 -20.197  -3.279  1.00  0.00     0.209 HD
ENDBRANCH  34  35
ENDBRANCH   3  34
BRANCH   1  37
HETATM   37  N2  UNL     1      16.967 -17.428  -3.224  1.00  0.00    -0.299 N 
HETATM   38  C1  UNL     1      17.719 -16.360  -3.440  1.00  0.00     0.211 A 
HETATM   39  C2  UNL     1      18.463 -15.799  -2.433  1.00  0.00     0.170 A 
HETATM   40  C3  UNL     1      18.438 -16.344  -1.173  1.00  0.00     0.210 A 
HETATM   41  O3  UNL     1      19.121 -15.827  -0.251  1.00  0.00    -0.285 OA
HETATM   42  C4  UNL     1      17.658 -17.454  -0.944  1.00  0.00     0.075 A 
HETATM   43  C5  UNL     1      16.930 -17.974  -1.996  1.00  0.00     0.100 A 
BRANCH  38  44
HETATM   44  O1  UNL     1      17.728 -15.823  -4.732  1.00  0.00    -0.223 OA
BRANCH  44  45
HETATM   45  N1  UNL     1      18.827 -15.693  -5.512  1.00  0.00    -0.303 N 
ATOM     46  H12 UNL     1      19.465 -16.488  -5.533  1.00  0.00     0.184 HD
ATOM     47  H11 UNL     1      19.054 -14.869  -6.070  1.00  0.00     0.184 HD
ENDBRANCH  44  45
ENDBRANCH  38  44
BRANCH  39  48
HETATM   48  O2  UNL     1      19.237 -14.670  -2.724  1.00  0.00    -0.354 OA
ATOM     49  H2  UNL     1      19.960 -14.455  -2.147  1.00  0.00     0.218 HD
ENDBRANCH  39  48
ENDBRANCH   1  37
TORSDOF 17
ENDMDL
MODEL 2
REMARK VINA RESULT: -6.949550208      2.540      9.904
REMARK  17 active torsions:
REMARK  status: ('A' for Active; 'I' for Inactive)
REMARK    1  A    between atoms: N1_1  and  O1_4 
REMARK    2  A    between atoms: O1_4  and  C1_5 
REMARK    3  A    between atoms: C2_6  and  O2_7 
REMARK    4  A    between atoms: N2_13  and  C6_14 
REMARK    5  A    between atoms: C7_16  and  C8_17 
REMARK    6  A    between atoms: C8_17  and  O5_18 
REMARK    7  A    between atoms: C9_20  and  O6_21 
REMARK    8  A    between atoms: C10_23  and  N3_24 
REMARK       I    between atoms: N3_24  and  C11_26 
REMARK       I    between atoms: C11_26  and  N4_28 
REMARK    9  A    between atoms: N4_28  and  N5_30 
REMARK   10  A    between atoms: N5_30  and  O8_31 
REMARK       I    between atoms: N5_30  and  C12_33 
REMARK   11  A    between atoms: C12_33  and  C13_35 
REMARK   12  A    between atoms: C13_35  and  N6_36 
REMARK   13  A    between atoms: C13_35  and  C14_40 
REMARK   14  A    between atoms: C14_40  and  O10_41 
REMARK   15  A    between atoms: C14_40  and  C15_43 
REMARK   16  A    between atoms: C15_43  and  O11_44 
REMARK   17  A    between atoms: C15_43  and  O12_46 
ROOT
HETATM    1  C6  UNL     1      16.293 -20.537  -6.202  1.00  0.00     0.302 C 
HETATM    2  O4  UNL     1      14.985 -20.650  -5.792  1.00  0.00    -0.349 OA
HETATM    3  C7  UNL     1      14.742 -20.320  -4.477  1.00  0.00     0.179 C 
HETATM    4  C9  UNL     1      15.684 -19.406  -3.818  1.00  0.00     0.179 C 
HETATM    5  C10 UNL     1      16.479 -18.500  -4.722  1.00  0.00     0.192 C 
HETATM    6  C16 UNL     1      16.918 -19.256  -5.915  1.00  0.00     0.200 C 
HETATM    7  O13 UNL     1      17.777 -18.792  -6.608  1.00  0.00    -0.291 OA
ENDROOT
BRANCH   5   8
HETATM    8  N3  UNL     1      17.682 -18.092  -4.026  1.00  0.00    -0.328 N 
HETATM    9  C11 UNL     1      18.217 -16.798  -4.034  1.00  0.00     0.337 C 
HETATM   10  O7  UNL     1      17.623 -15.907  -4.687  1.00  0.00    -0.245 OA
HETATM   11  N4  UNL     1      19.394 -16.444  -3.343  1.00  0.00    -0.222 N 
ATOM     12  H4  UNL     1      19.884 -17.161  -2.807  1.00  0.00     0.194 HD
ATOM     13  H3  UNL     1      18.177 -18.803  -3.488  1.00  0.00     0.165 HD
BRANCH  11  14
HETATM   14  N5  UNL     1      19.913 -15.145  -3.366  1.00  0.00    -0.121 N 
HETATM   15  C12 UNL     1      20.333 -14.471  -2.196  1.00  0.00     0.297 C 
HETATM   16  O9  UNL     1      20.214 -15.118  -1.104  1.00  0.00    -0.267 OA
BRANCH  14  17
HETATM   17  O8  UNL     1      20.025 -14.478  -4.564  1.00  0.00    -0.265 OA
ATOM     18  H8  UNL     1      20.877 -14.171  -4.852  1.00  0.00     0.247 HD
ENDBRANCH  14  17
BRANCH  15  19
HETATM   19  C13 UNL     1      20.885 -13.114  -2.140  1.00  0.00     0.312 C 
BRANCH  19  20
HETATM   20  N6  UNL     1      20.031 -12.187  -2.848  1.00  0.00    -0.064 N 
ATOM     21  H63 UNL     1      19.592 -12.621  -3.660  1.00  0.00     0.275 HD
ATOM     22  H62 UNL     1      19.187 -11.968  -2.318  1.00  0.00     0.275 HD
ATOM     23  H61 UNL     1      20.548 -11.344  -3.102  1.00  0.00     0.275 HD
ENDBRANCH  19  20
BRANCH  19  24
HETATM   24  C14 UNL     1      21.028 -12.566  -0.734  1.00  0.00     0.212 C 
BRANCH  24  25
HETATM   25  O10 UNL     1      19.717 -12.476  -0.206  1.00  0.00    -0.388 OA
ATOM     26  H10 UNL     1      19.574 -11.560  -0.002  1.00  0.00     0.210 HD
ENDBRANCH  24  25
BRANCH  24  27
HETATM   27  C15 UNL     1      21.555 -11.144  -0.713  1.00  0.00     0.285 C 
BRANCH  27  28
HETATM   28  O11 UNL     1      22.348 -10.972  -1.842  1.00  0.00    -0.369 OA
ATOM     29  H11 UNL     1      22.045 -10.191  -2.291  1.00  0.00     0.212 HD
ENDBRANCH  27  28
BRANCH  27  30
HETATM   30  O12 UNL     1      20.468 -10.263  -0.854  1.00  0.00    -0.369 OA
ATOM     31  H12 UNL     1      20.056 -10.155  -0.006  1.00  0.00     0.212 HD
ENDBRANCH  27  30
ENDBRANCH  24  27
ENDBRANCH  19  24
ENDBRANCH  15  19
ENDBRANCH  11  14
ENDBRANCH   5   8
BRANCH   4  32
HETATM   32  O6  UNL     1      15.042 -18.603  -2.872  1.00  0.00    -0.390 OA
ATOM     33  H6  UNL     1      15.171 -17.680  -3.054  1.00  0.00     0.210 HD
ENDBRANCH   4  32
BRANCH   3  34
HETATM   34  C8  UNL     1      13.288 -19.910  -4.396  1.00  0.00     0.198 C 
BRANCH  34  35
HETATM   35  O5  UNL     1      12.456 -20.637  -5.228  1.00  0.00    -0.398 OA
ATOM     36  H5  UNL     1      12.482 -20.359  -6.136  1.00  0.00     0.209 HD
ENDBRANCH  34  35
ENDBRANCH   3  34
BRANCH   1  37
HETATM   37  N2  UNL     1      16.345 -20.938  -7.600  1.00  0.00    -0.299 N 
HETATM   38  C1  UNL     1      15.569 -20.406  -8.532  1.00  0.00     0.211 A 
HETATM   39  C2  UNL     1      15.651 -20.810  -9.840  1.00  0.00     0.170 A 
HETATM   40  C3  UNL     1      16.548 -21.782 -10.206  1.00  0.00     0.210 A 
HETATM   41  O3  UNL     1      16.621 -22.150 -11.407  1.00  0.00    -0.285 OA
HETATM   42  C4  UNL     1      17.357 -22.338  -9.242  1.00  0.00     0.075 A 
HETATM   43  C5  UNL     1      17.230 -21.891  -7.941  1.00  0.00     0.100 A 
BRANCH  38  44
HETATM   44  O1  UNL     1      14.663 -19.417  -8.133  1.00  0.00    -0.223 OA
BRANCH  44  45
HETATM   45  N1  UNL     1      13.316 -19.560  -8.110  1.00  0.00    -0.303 N 
ATOM     46  H12 UNL     1      12.963 -20.516  -8.080  1.00  0.00     0.184 HD
ATOM     47  H11 UNL     1      12.646 -18.792  -8.121  1.00  0.00     0.184 HD
ENDBRANCH  44  45
ENDBRANCH  38  44
BRANCH  39  48
HETATM   48  O2  UNL     1      14.803 -20.209 -10.778  1.00  0.00    -0.354 OA
ATOM     49  H2  UNL     1      15.112 -20.110 -11.670  1.00  0.00     0.218 HD
ENDBRANCH  39  48
ENDBRANCH   1  37
TORSDOF 17
ENDMDL
MODEL 3
REMARK VINA RESULT: -6.794027498      0.979      1.320
REMARK  17 active torsions:
REMARK  status: ('A' for Active; 'I' for Inactive)
REMARK    1  A    between atoms: N1_1  and  O1_4 
REMARK    2  A    between atoms: O1_4  and  C1_5 
REMARK    3  A    between atoms: C2_6  and  O2_7 
REMARK    4  A    between atoms: N2_13  and  C6_14 
REMARK    5  A    between atoms: C7_16  and  C8_17 
REMARK    6  A    between atoms: C8_17  and  O5_18 
REMARK    7  A    between atoms: C9_20  and  O6_21 
REMARK    8  A    between atoms: C10_23  and  N3_24 
REMARK       I    between atoms: N3_24  and  C11_26 
REMARK       I    between atoms: C11_26  and  N4_28 
REMARK    9  A    between atoms: N4_28  and  N5_30 
REMARK   10  A    between atoms: N5_30  and  O8_31 
REMARK       I    between atoms: N5_30  and  C12_33 
REMARK   11  A    between atoms: C12_33  and  C13_35 
REMARK   12  A    between atoms: C13_35  and  N6_36 
REMARK   13  A    between atoms: C13_35  and  C14_40 
REMARK   14  A    between atoms: C14_40  and  O10_41 
REMARK   15  A    between atoms: C14_40  and  C15_43 
REMARK   16  A    between atoms: C15_43  and  O11_44 
REMARK   17  A    between atoms: C15_43  and  O12_46 
ROOT
HETATM    1  C6  UNL     1      16.251 -18.056  -4.885  1.00  0.00     0.302 C 
HETATM    2  O4  UNL     1      15.071 -18.514  -4.348  1.00  0.00    -0.349 OA
HETATM    3  C7  UNL     1      14.246 -19.195  -5.217  1.00  0.00     0.179 C 
HETATM    4  C9  UNL     1      14.864 -19.832  -6.387  1.00  0.00     0.179 C 
HETATM    5  C10 UNL     1      16.329 -20.165  -6.269  1.00  0.00     0.192 C 
HETATM    6  C16 UNL     1      17.035 -19.056  -5.592  1.00  0.00     0.200 C 
HETATM    7  O13 UNL     1      18.230 -19.013  -5.647  1.00  0.00    -0.291 OA
ENDROOT
BRANCH   5   8
HETATM    8  N3  UNL     1      16.890 -20.258  -7.601  1.00  0.00    -0.328 N 
HETATM    9  C11 UNL     1      16.940 -21.425  -8.374  1.00  0.00     0.337 C 
HETATM   10  O7  UNL     1      16.466 -22.483  -7.894  1.00  0.00    -0.245 OA
HETATM   11  N4  UNL     1      17.497 -21.472  -9.668  1.00  0.00    -0.222 N 
ATOM     12  H4  UNL     1      17.884 -20.617 -10.068  1.00  0.00     0.194 HD
ATOM     13  H3  UNL     1      17.277 -19.408  -8.009  1.00  0.00     0.165 HD
BRANCH  11  14
HETATM   14  N5  UNL     1      17.539 -22.650 -10.422  1.00  0.00    -0.121 N 
HETATM   15  C12 UNL     1      18.750 -23.222 -10.876  1.00  0.00     0.297 C 
HETATM   16  O9  UNL     1      19.817 -22.602 -10.556  1.00  0.00    -0.267 OA
BRANCH  14  17
HETATM   17  O8  UNL     1      16.367 -23.291 -10.748  1.00  0.00    -0.265 OA
ATOM     18  H8  UNL     1      16.319 -23.807 -11.545  1.00  0.00     0.247 HD
ENDBRANCH  14  17
BRANCH  15  19
HETATM   19  C13 UNL     1      18.874 -24.450 -11.668  1.00  0.00     0.312 C 
BRANCH  19  20
HETATM   20  N6  UNL     1      20.231 -24.618 -12.139  1.00  0.00    -0.064 N 
ATOM     21  H63 UNL     1      20.791 -23.779 -11.986  1.00  0.00     0.275 HD
ATOM     22  H62 UNL     1      20.759 -25.263 -11.550  1.00  0.00     0.275 HD
ATOM     23  H61 UNL     1      20.238 -24.906 -13.118  1.00  0.00     0.275 HD
ENDBRANCH  19  20
BRANCH  19  24
HETATM   24  C14 UNL     1      18.534 -25.713 -10.901  1.00  0.00     0.212 C 
BRANCH  24  25
HETATM   25  O10 UNL     1      19.748 -26.428 -10.754  1.00  0.00    -0.388 OA
ATOM     26  H10 UNL     1      20.271 -25.938 -10.130  1.00  0.00     0.210 HD
ENDBRANCH  24  25
BRANCH  24  27
HETATM   27  C15 UNL     1      17.626 -26.643 -11.682  1.00  0.00     0.285 C 
BRANCH  27  28
HETATM   28  O11 UNL     1      16.485 -25.927 -12.028  1.00  0.00    -0.369 OA
ATOM     29  H11 UNL     1      15.758 -26.290 -11.536  1.00  0.00     0.212 HD
ENDBRANCH  27  28
BRANCH  27  30
HETATM   30  O12 UNL     1      18.264 -26.978 -12.891  1.00  0.00    -0.369 OA
ATOM     31  H12 UNL     1      17.788 -27.694 -13.294  1.00  0.00     0.212 HD
ENDBRANCH  27  30
ENDBRANCH  24  27
ENDBRANCH  19  24
ENDBRANCH  15  19
ENDBRANCH  11  14
ENDBRANCH   5   8
BRANCH   4  32
HETATM   32  O6  UNL     1      14.191 -21.001  -6.749  1.00  0.00    -0.390 OA
ATOM     33  H6  UNL     1      13.663 -20.872  -7.527  1.00  0.00     0.210 HD
ENDBRANCH   4  32
BRANCH   3  34
HETATM   34  C8  UNL     1      13.386 -20.107  -4.370  1.00  0.00     0.198 C 
BRANCH  34  35
HETATM   35  O5  UNL     1      12.124 -20.327  -4.892  1.00  0.00    -0.398 OA
ATOM     36  H5  UNL     1      11.474 -20.560  -4.240  1.00  0.00     0.209 HD
ENDBRANCH  34  35
ENDBRANCH   3  34
BRANCH   1  37
HETATM   37  N2  UNL     1      16.969 -17.361  -3.825  1.00  0.00    -0.299 N 
HETATM   38  C1  UNL     1      17.789 -16.347  -4.055  1.00  0.00     0.211 A 
HETATM   39  C2  UNL     1      18.445 -15.717  -3.029  1.00  0.00     0.170 A 
HETATM   40  C3  UNL     1      18.259 -16.134  -1.734  1.00  0.00     0.210 A 
HETATM   41  O3  UNL     1      18.863 -15.554  -0.794  1.00  0.00    -0.285 OA
HETATM   42  C4  UNL     1      17.409 -17.187  -1.490  1.00  0.00     0.075 A 
HETATM   43  C5  UNL     1      16.775 -17.782  -2.563  1.00  0.00     0.100 A 
BRANCH  38  44
HETATM   44  O1  UNL     1      17.961 -15.941  -5.384  1.00  0.00    -0.223 OA
BRANCH  44  45
HETATM   45  N1  UNL     1      19.103 -16.083  -6.098  1.00  0.00    -0.303 N 
ATOM     46  H12 UNL     1      19.629 -16.943  -5.945  1.00  0.00     0.184 HD
ATOM     47  H11 UNL     1      19.464 -15.402  -6.766  1.00  0.00     0.184 HD
ENDBRANCH  44  45
ENDBRANCH  38  44
BRANCH  39  48
HETATM   48  O2  UNL     1      19.298 -14.651  -3.337  1.00  0.00    -0.354 OA
ATOM     49  H2  UNL     1      20.236 -14.797  -3.304  1.00  0.00     0.218 HD
ENDBRANCH  39  48
ENDBRANCH   1  37
TORSDOF 17
ENDMDL
MODEL 4
REMARK VINA RESULT: -6.777026249      2.413      3.546
REMARK  17 active torsions:
REMARK  status: ('A' for Active; 'I' for Inactive)
REMARK    1  A    between atoms: N1_1  and  O1_4 
REMARK    2  A    between atoms: O1_4  and  C1_5 
REMARK    3  A    between atoms: C2_6  and  O2_7 
REMARK    4  A    between atoms: N2_13  and  C6_14 
REMARK    5  A    between atoms: C7_16  and  C8_17 
REMARK    6  A    between atoms: C8_17  and  O5_18 
REMARK    7  A    between atoms: C9_20  and  O6_21 
REMARK    8  A    between atoms: C10_23  and  N3_24 
REMARK       I    between atoms: N3_24  and  C11_26 
REMARK       I    between atoms: C11_26  and  N4_28 
REMARK    9  A    between atoms: N4_28  and  N5_30 
REMARK   10  A    between atoms: N5_30  and  O8_31 
REMARK       I    between atoms: N5_30  and  C12_33 
REMARK   11  A    between atoms: C12_33  and  C13_35 
REMARK   12  A    between atoms: C13_35  and  N6_36 
REMARK   13  A    between atoms: C13_35  and  C14_40 
REMARK   14  A    between atoms: C14_40  and  O10_41 
REMARK   15  A    between atoms: C14_40  and  C15_43 
REMARK   16  A    between atoms: C15_43  and  O11_44 
REMARK   17  A    between atoms: C15_43  and  O12_46 
ROOT
HETATM    1  C6  UNL     1      15.599 -18.916  -5.545  1.00  0.00     0.302 C 
HETATM    2  O4  UNL     1      14.322 -18.747  -6.027  1.00  0.00    -0.349 OA
HETATM    3  C7  UNL     1      14.187 -18.826  -7.396  1.00  0.00     0.179 C 
HETATM    4  C9  UNL     1      15.202 -19.584  -8.139  1.00  0.00     0.179 C 
HETATM    5  C10 UNL     1      15.954 -20.633  -7.361  1.00  0.00     0.192 C 
HETATM    6  C16 UNL     1      16.281 -20.110  -6.017  1.00  0.00     0.200 C 
HETATM    7  O13 UNL     1      17.100 -20.683  -5.358  1.00  0.00    -0.291 OA
ENDROOT
BRANCH   5   8
HETATM    8  N3  UNL     1      17.216 -20.883  -8.025  1.00  0.00    -0.328 N 
HETATM    9  C11 UNL     1      17.463 -21.935  -8.916  1.00  0.00     0.337 C 
HETATM   10  O7  UNL     1      16.530 -22.733  -9.175  1.00  0.00    -0.245 OA
HETATM   11  N4  UNL     1      18.709 -22.144  -9.540  1.00  0.00    -0.222 N 
ATOM     12  H4  UNL     1      19.475 -21.500  -9.338  1.00  0.00     0.194 HD
ATOM     13  H3  UNL     1      17.986 -20.244  -7.829  1.00  0.00     0.165 HD
BRANCH  11  14
HETATM   14  N5  UNL     1      18.934 -23.203 -10.427  1.00  0.00    -0.121 N 
HETATM   15  C12 UNL     1      19.528 -24.421 -10.023  1.00  0.00     0.297 C 
HETATM   16  O9  UNL     1      19.851 -24.507  -8.793  1.00  0.00    -0.267 OA
BRANCH  14  17
HETATM   17  O8  UNL     1      18.573 -23.073 -11.747  1.00  0.00    -0.265 OA
ATOM     18  H8  UNL     1      19.120 -23.456 -12.424  1.00  0.00     0.247 HD
ENDBRANCH  14  17
BRANCH  15  19
HETATM   19  C13 UNL     1      19.795 -25.573 -10.891  1.00  0.00     0.312 C 
BRANCH  19  20
HETATM   20  N6  UNL     1      20.824 -26.414 -10.319  1.00  0.00    -0.064 N 
ATOM     21  H63 UNL     1      20.687 -26.550  -9.318  1.00  0.00     0.275 HD
ATOM     22  H62 UNL     1      20.729 -27.385 -10.620  1.00  0.00     0.275 HD
ATOM     23  H61 UNL     1      21.750 -26.041 -10.528  1.00  0.00     0.275 HD
ENDBRANCH  19  20
BRANCH  19  24
HETATM   24  C14 UNL     1      18.592 -26.468 -11.112  1.00  0.00     0.212 C 
BRANCH  24  25
HETATM   25  O10 UNL     1      18.438 -27.228  -9.927  1.00  0.00    -0.388 OA
ATOM     26  H10 UNL     1      18.175 -28.098 -10.200  1.00  0.00     0.210 HD
ENDBRANCH  24  25
BRANCH  24  27
HETATM   27  C15 UNL     1      18.822 -27.494 -12.206  1.00  0.00     0.285 C 
BRANCH  27  28
HETATM   28  O11 UNL     1      17.702 -27.489 -13.030  1.00  0.00    -0.369 OA
ATOM     29  H11 UNL     1      17.044 -26.942 -12.620  1.00  0.00     0.212 HD
ENDBRANCH  27  28
BRANCH  27  30
HETATM   30  O12 UNL     1      19.900 -27.064 -13.000  1.00  0.00    -0.369 OA
ATOM     31  H12 UNL     1      20.538 -27.767 -13.047  1.00  0.00     0.212 HD
ENDBRANCH  27  30
ENDBRANCH  24  27
ENDBRANCH  19  24
ENDBRANCH  15  19
ENDBRANCH  11  14
ENDBRANCH   5   8
BRANCH   4  32
HETATM   32  O6  UNL     1      14.656 -20.203  -9.266  1.00  0.00    -0.390 OA
ATOM     33  H6  UNL     1      14.557 -21.139  -9.136  1.00  0.00     0.210 HD
ENDBRANCH   4  32
BRANCH   3  34
HETATM   34  C8  UNL     1      12.756 -19.235  -7.666  1.00  0.00     0.198 C 
BRANCH  34  35
HETATM   35  O5  UNL     1      12.119 -19.794  -6.572  1.00  0.00    -0.398 OA
ATOM     36  H5  UNL     1      11.217 -19.513  -6.468  1.00  0.00     0.209 HD
ENDBRANCH  34  35
ENDBRANCH   3  34
BRANCH   1  37
HETATM   37  N2  UNL     1      15.536 -18.786  -4.096  1.00  0.00    -0.299 N 
HETATM   38  C1  UNL     1      14.730 -19.517  -3.342  1.00  0.00     0.211 A 
HETATM   39  C2  UNL     1      14.701 -19.366  -1.979  1.00  0.00     0.170 A 
HETATM   40  C3  UNL     1      15.518 -18.445  -1.371  1.00  0.00     0.210 A 
HETATM   41  O3  UNL     1      15.490 -18.309  -0.120  1.00  0.00    -0.285 OA
HETATM   42  C4  UNL     1      16.357 -17.683  -2.151  1.00  0.00     0.075 A 
HETATM   43  C5  UNL     1      16.342 -17.879  -3.517  1.00  0.00     0.100 A 
BRANCH  38  44
HETATM   44  O1  UNL     1      13.908 -20.449  -3.985  1.00  0.00    -0.223 OA
BRANCH  44  45
HETATM   45  N1  UNL     1      12.563 -20.528  -3.844  1.00  0.00    -0.303 N 
ATOM     46  H12 UNL     1      12.217 -20.738  -2.908  1.00  0.00     0.184 HD
ATOM     47  H11 UNL     1      11.887 -20.394  -4.596  1.00  0.00     0.184 HD
ENDBRANCH  44  45
ENDBRANCH  38  44
BRANCH  39  48
HETATM   48  O2  UNL     1      13.827 -20.169  -1.237  1.00  0.00    -0.354 OA
ATOM     49  H2  UNL     1      13.322 -20.831  -1.693  1.00  0.00     0.218 HD
ENDBRANCH  39  48
ENDBRANCH   1  37
TORSDOF 17
ENDMDL
MODEL 5
REMARK VINA RESULT: -6.697966611      2.409      9.932
REMARK  17 active torsions:
REMARK  status: ('A' for Active; 'I' for Inactive)
REMARK    1  A    between atoms: N1_1  and  O1_4 
REMARK    2  A    between atoms: O1_4  and  C1_5 
REMARK    3  A    between atoms: C2_6  and  O2_7 
REMARK    4  A    between atoms: N2_13  and  C6_14 
REMARK    5  A    between atoms: C7_16  and  C8_17 
REMARK    6  A    between atoms: C8_17  and  O5_18 
REMARK    7  A    between atoms: C9_20  and  O6_21 
REMARK    8  A    between atoms: C10_23  and  N3_24 
REMARK       I    between atoms: N3_24  and  C11_26 
REMARK       I    between atoms: C11_26  and  N4_28 
REMARK    9  A    between atoms: N4_28  and  N5_30 
REMARK   10  A    between atoms: N5_30  and  O8_31 
REMARK       I    between atoms: N5_30  and  C12_33 
REMARK   11  A    between atoms: C12_33  and  C13_35 
REMARK   12  A    between atoms: C13_35  and  N6_36 
REMARK   13  A    between atoms: C13_35  and  C14_40 
REMARK   14  A    between atoms: C14_40  and  O10_41 
REMARK   15  A    between atoms: C14_40  and  C15_43 
REMARK   16  A    between atoms: C15_43  and  O11_44 
REMARK   17  A    between atoms: C15_43  and  O12_46 
ROOT
HETATM    1  C6  UNL     1      16.391 -20.872  -6.735  1.00  0.00     0.302 C 
HETATM    2  O4  UNL     1      15.035 -20.847  -6.507  1.00  0.00    -0.349 OA
HETATM    3  C7  UNL     1      14.649 -20.392  -5.265  1.00  0.00     0.179 C 
HETATM    4  C9  UNL     1      15.572 -19.506  -4.545  1.00  0.00     0.179 C 
HETATM    5  C10 UNL     1      16.560 -18.743  -5.389  1.00  0.00     0.192 C 
HETATM    6  C16 UNL     1      17.086 -19.626  -6.452  1.00  0.00     0.200 C 
HETATM    7  O13 UNL     1      18.068 -19.290  -7.047  1.00  0.00    -0.291 OA
ENDROOT
BRANCH   5   8
HETATM    8  N3  UNL     1      17.689 -18.377  -4.559  1.00  0.00    -0.328 N 
HETATM    9  C11 UNL     1      18.220 -17.086  -4.444  1.00  0.00     0.337 C 
HETATM   10  O7  UNL     1      17.688 -16.159  -5.101  1.00  0.00    -0.245 OA
HETATM   11  N4  UNL     1      19.324 -16.774  -3.626  1.00  0.00    -0.222 N 
ATOM     12  H4  UNL     1      19.763 -17.520  -3.086  1.00  0.00     0.194 HD
ATOM     13  H3  UNL     1      18.133 -19.117  -4.016  1.00  0.00     0.165 HD
BRANCH  11  14
HETATM   14  N5  UNL     1      19.839 -15.477  -3.527  1.00  0.00    -0.121 N 
HETATM   15  C12 UNL     1      20.209 -14.896  -2.292  1.00  0.00     0.297 C 
HETATM   16  O9  UNL     1      20.049 -15.625  -1.259  1.00  0.00    -0.267 OA
BRANCH  14  17
HETATM   17  O8  UNL     1      19.997 -14.719  -4.664  1.00  0.00    -0.265 OA
ATOM     18  H8  UNL     1      20.653 -14.032  -4.683  1.00  0.00     0.247 HD
ENDBRANCH  14  17
BRANCH  15  19
HETATM   19  C13 UNL     1      20.754 -13.547  -2.110  1.00  0.00     0.312 C 
BRANCH  19  20
HETATM   20  N6  UNL     1      19.968 -12.576  -2.838  1.00  0.00    -0.064 N 
ATOM     21  H63 UNL     1      20.378 -11.643  -2.789  1.00  0.00     0.275 HD
ATOM     22  H62 UNL     1      20.031 -12.718  -3.847  1.00  0.00     0.275 HD
ATOM     23  H61 UNL     1      19.000 -12.582  -2.515  1.00  0.00     0.275 HD
ENDBRANCH  19  20
BRANCH  19  24
HETATM   24  C14 UNL     1      20.769 -13.080  -0.667  1.00  0.00     0.212 C 
BRANCH  24  25
HETATM   25  O10 UNL     1      19.414 -12.952  -0.276  1.00  0.00    -0.388 OA
ATOM     26  H10 UNL     1      19.069 -12.205  -0.751  1.00  0.00     0.210 HD
ENDBRANCH  24  25
BRANCH  24  27
HETATM   27  C15 UNL     1      21.354 -11.690  -0.510  1.00  0.00     0.285 C 
BRANCH  27  28
HETATM   28  O11 UNL     1      22.250 -11.488  -1.554  1.00  0.00    -0.369 OA
ATOM     29  H11 UNL     1      22.509 -10.574  -1.540  1.00  0.00     0.212 HD
ENDBRANCH  27  28
BRANCH  27  30
HETATM   30  O12 UNL     1      20.323 -10.749  -0.687  1.00  0.00    -0.369 OA
ATOM     31  H12 UNL     1      20.608  -9.919  -0.325  1.00  0.00     0.212 HD
ENDBRANCH  27  30
ENDBRANCH  24  27
ENDBRANCH  19  24
ENDBRANCH  15  19
ENDBRANCH  11  14
ENDBRANCH   5   8
BRANCH   4  32
HETATM   32  O6  UNL     1      14.883 -18.580  -3.757  1.00  0.00    -0.390 OA
ATOM     33  H6  UNL     1      15.466 -18.134  -3.154  1.00  0.00     0.210 HD
ENDBRANCH   4  32
BRANCH   3  34
HETATM   34  C8  UNL     1      13.240 -19.862  -5.420  1.00  0.00     0.198 C 
BRANCH  34  35
HETATM   35  O5  UNL     1      12.340 -20.396  -4.515  1.00  0.00    -0.398 OA
ATOM     36  H5  UNL     1      11.839 -21.127  -4.858  1.00  0.00     0.209 HD
ENDBRANCH  34  35
ENDBRANCH   3  34
BRANCH   1  37
HETATM   37  N2  UNL     1      16.596 -21.388  -8.081  1.00  0.00    -0.299 N 
HETATM   38  C1  UNL     1      17.438 -22.372  -8.355  1.00  0.00     0.211 A 
HETATM   39  C2  UNL     1      17.601 -22.832  -9.636  1.00  0.00     0.170 A 
HETATM   40  C3  UNL     1      16.885 -22.271 -10.665  1.00  0.00     0.210 A 
HETATM   41  O3  UNL     1      17.037 -22.695 -11.840  1.00  0.00    -0.285 OA
HETATM   42  C4  UNL     1      16.009 -21.248 -10.385  1.00  0.00     0.075 A 
HETATM   43  C5  UNL     1      15.887 -20.827  -9.076  1.00  0.00     0.100 A 
BRANCH  38  44
HETATM   44  O1  UNL     1      18.155 -22.927  -7.289  1.00  0.00    -0.223 OA
BRANCH  44  45
HETATM   45  N1  UNL     1      18.090 -24.222  -6.899  1.00  0.00    -0.303 N 
ATOM     46  H12 UNL     1      17.956 -24.912  -7.638  1.00  0.00     0.184 HD
ATOM     47  H11 UNL     1      18.164 -24.548  -5.935  1.00  0.00     0.184 HD
ENDBRANCH  44  45
ENDBRANCH  38  44
BRANCH  39  48
HETATM   48  O2  UNL     1      18.506 -23.876  -9.861  1.00  0.00    -0.354 OA
ATOM     49  H2  UNL     1      18.586 -24.225 -10.741  1.00  0.00     0.218 HD
ENDBRANCH  39  48
ENDBRANCH   1  37
TORSDOF 17
ENDMDL
