MODEL 1
REMARK VINA RESULT: -6.954822980      0.000      0.000
REMARK  15 active torsions:
REMARK  status: ('A' for Active; 'I' for Inactive)
REMARK    1  A    between atoms: N1_1  and  C1_5 
REMARK    2  A    between atoms: C1_5  and  C2_6 
REMARK    3  A    between atoms: C2_6  and  C3_7 
REMARK    4  A    between atoms: C3_7  and  C4_8 
REMARK    5  A    between atoms: C4_8  and  C5_9 
REMARK    6  A    between atoms: C5_9  and  C6_10 
REMARK    7  A    between atoms: C6_10  and  N2_11 
REMARK    8  A    between atoms: C6_10  and  C16_30 
REMARK    9  A    between atoms: N2_11  and  C7_13 
REMARK   10  A    between atoms: C7_13  and  O1_14 
REMARK   11  A    between atoms: C7_13  and  C8_16 
REMARK   12  A    between atoms: C8_16  and  N3_17 
REMARK   13  A    between atoms: C8_16  and  C9_21 
REMARK   14  A    between atoms: C9_21  and  S1_22 
REMARK   15  A    between atoms: S1_22  and  C10_23 
ROOT
HETATM    1  N2  UNL     1      -0.786 -36.122  18.243  1.00  0.00    -0.363 N 
ATOM      2  H2  UNL     1      -0.371 -36.654  17.478  1.00  0.00     0.162 HD
ENDROOT
BRANCH   1   3
HETATM    3  C6  UNL     1      -0.860 -34.787  17.950  1.00  0.00     0.043 C 
BRANCH   3   4
HETATM    4  C5  UNL     1      -2.095 -34.267  17.271  1.00  0.00     0.060 C 
BRANCH   4   5
HETATM    5  C4  UNL     1      -2.505 -35.114  16.098  1.00  0.00     0.006 C 
BRANCH   5   6
HETATM    6  C3  UNL     1      -2.527 -34.310  14.828  1.00  0.00     0.002 C 
BRANCH   6   7
HETATM    7  C2  UNL     1      -2.502 -32.837  15.174  1.00  0.00     0.027 C 
BRANCH   7   8
HETATM    8  C1  UNL     1      -1.418 -32.097  14.423  1.00  0.00     0.229 C 
BRANCH   8   9
HETATM    9  N1  UNL     1      -0.982 -30.910  15.107  1.00  0.00    -0.079 N 
ATOM     10  H13 UNL     1      -1.538 -30.746  15.946  1.00  0.00     0.274 HD
ATOM     11  H12 UNL     1      -0.069 -31.050  15.539  1.00  0.00     0.274 HD
ATOM     12  H11 UNL     1      -0.980 -30.087  14.503  1.00  0.00     0.274 HD
ENDBRANCH   8   9
ENDBRANCH   7   8
ENDBRANCH   6   7
ENDBRANCH   5   6
ENDBRANCH   4   5
ENDBRANCH   3   4
BRANCH   3  13
HETATM   13  C16 UNL     1       0.375 -34.181  17.355  1.00  0.00     0.118 A 
HETATM   14  C17 UNL     1       1.595 -34.752  17.093  1.00  0.00     0.132 A 
HETATM   15  N4  UNL     1       2.425 -33.809  16.547  1.00  0.00    -0.310 N 
HETATM   16  C18 UNL     1       1.681 -32.682  16.492  1.00  0.00     0.370 A 
ATOM     17  H4  UNL     1       3.392 -33.932  16.247  1.00  0.00     0.170 HD
HETATM   18  O2  UNL     1       2.049 -31.569  16.059  1.00  0.00    -0.238 OA
HETATM   19  O3  UNL     1       0.509 -32.936  16.965  1.00  0.00    -0.258 OA
ENDBRANCH   3  13
ENDBRANCH   1   3
BRANCH   1  20
HETATM   20  C7  UNL     1      -1.117 -36.912  19.273  1.00  0.00     0.249 C 
BRANCH  20  21
HETATM   21  O1  UNL     1      -2.242 -36.837  20.037  1.00  0.00    -0.375 OA
ATOM     22  H1  UNL     1      -2.515 -37.444  20.714  1.00  0.00     0.212 HD
ENDBRANCH  20  21
BRANCH  20  23
HETATM   23  C8  UNL     1       0.041 -37.010  20.317  1.00  0.00     0.241 C 
BRANCH  23  24
HETATM   24  N3  UNL     1      -0.104 -38.131  21.190  1.00  0.00    -0.070 N 
ATOM     25  H33 UNL     1      -0.622 -37.876  22.032  1.00  0.00     0.274 HD
ATOM     26  H32 UNL     1      -0.751 -38.817  20.802  1.00  0.00     0.274 HD
ATOM     27  H31 UNL     1       0.790 -38.561  21.425  1.00  0.00     0.274 HD
ENDBRANCH  23  24
BRANCH  23  28
HETATM   28  C9  UNL     1      -0.105 -35.785  21.233  1.00  0.00     0.116 C 
BRANCH  28  29
HETATM   29  S1  UNL     1       1.356 -34.731  21.216  1.00  0.00    -0.128 SA
BRANCH  29  30
HETATM   30  C10 UNL     1       0.967 -33.039  20.833  1.00  0.00     0.000 A 
HETATM   31  C11 UNL     1       1.793 -32.187  20.130  1.00  0.00     0.020 A 
HETATM   32  C12 UNL     1       1.425 -30.903  19.837  1.00  0.00     0.025 A 
HETATM   33  C13 UNL     1       0.207 -30.412  20.236  1.00  0.00     0.034 A 
HETATM   34 CL1  UNL     1      -0.304 -28.779  19.872  1.00  0.00    -0.084 Cl
HETATM   35  C14 UNL     1      -0.632 -31.235  20.936  1.00  0.00     0.025 A 
HETATM   36  C15 UNL     1      -0.253 -32.537  21.231  1.00  0.00     0.020 A 
ENDBRANCH  29  30
ENDBRANCH  28  29
ENDBRANCH  23  28
ENDBRANCH  20  23
ENDBRANCH   1  20
TORSDOF 15
ENDMDL
MODEL 2
REMARK VINA RESULT: -6.902731556      2.177      3.110
REMARK  15 active torsions:
REMARK  status: ('A' for Active; 'I' for Inactive)
REMARK    1  A    between atoms: N1_1  and  C1_5 
REMARK    2  A    between atoms: C1_5  and  C2_6 
REMARK    3  A    between atoms: C2_6  and  C3_7 
REMARK    4  A    between atoms: C3_7  and  C4_8 
REMARK    5  A    between atoms: C4_8  and  C5_9 
REMARK    6  A    between atoms: C5_9  and  C6_10 
REMARK    7  A    between atoms: C6_10  and  N2_11 
REMARK    8  A    between atoms: C6_10  and  C16_30 
REMARK    9  A    between atoms: N2_11  and  C7_13 
REMARK   10  A    between atoms: C7_13  and  O1_14 
REMARK   11  A    between atoms: C7_13  and  C8_16 
REMARK   12  A    between atoms: C8_16  and  N3_17 
REMARK   13  A    between atoms: C8_16  and  C9_21 
REMARK   14  A    between atoms: C9_21  and  S1_22 
REMARK   15  A    between atoms: S1_22  and  C10_23 
ROOT
HETATM    1  N2  UNL     1      -1.492 -36.206  18.717  1.00  0.00    -0.363 N 
ATOM      2  H2  UNL     1      -2.251 -35.524  18.715  1.00  0.00     0.162 HD
ENDROOT
BRANCH   1   3
HETATM    3  C6  UNL     1      -0.660 -36.039  17.643  1.00  0.00     0.043 C 
BRANCH   3   4
HETATM    4  C5  UNL     1      -0.162 -34.657  17.327  1.00  0.00     0.060 C 
BRANCH   4   5
HETATM    5  C4  UNL     1      -1.237 -33.614  17.467  1.00  0.00     0.006 C 
BRANCH   5   6
HETATM    6  C3  UNL     1      -0.766 -32.278  16.964  1.00  0.00     0.002 C 
BRANCH   6   7
HETATM    7  C2  UNL     1      -1.184 -32.117  15.519  1.00  0.00     0.027 C 
BRANCH   7   8
HETATM    8  C1  UNL     1      -2.484 -32.830  15.222  1.00  0.00     0.229 C 
BRANCH   8   9
HETATM    9  N1  UNL     1      -2.495 -33.444  13.922  1.00  0.00    -0.079 N 
ATOM     10  H13 UNL     1      -2.897 -32.818  13.224  1.00  0.00     0.274 HD
ATOM     11  H12 UNL     1      -1.550 -33.523  13.546  1.00  0.00     0.274 HD
ATOM     12  H11 UNL     1      -2.967 -34.349  13.918  1.00  0.00     0.274 HD
ENDBRANCH   8   9
ENDBRANCH   7   8
ENDBRANCH   6   7
ENDBRANCH   5   6
ENDBRANCH   4   5
ENDBRANCH   3   4
BRANCH   3  13
HETATM   13  C16 UNL     1      -1.053 -36.766  16.394  1.00  0.00     0.118 A 
HETATM   14  C17 UNL     1      -2.193 -36.658  15.636  1.00  0.00     0.132 A 
HETATM   15  N4  UNL     1      -2.115 -37.526  14.580  1.00  0.00    -0.310 N 
HETATM   16  C18 UNL     1      -0.923 -38.146  14.727  1.00  0.00     0.370 A 
ATOM     17  H4  UNL     1      -2.807 -37.673  13.845  1.00  0.00     0.170 HD
HETATM   18  O2  UNL     1      -0.444 -39.024  13.978  1.00  0.00    -0.238 OA
HETATM   19  O3  UNL     1      -0.342 -37.681  15.780  1.00  0.00    -0.258 OA
ENDBRANCH   3  13
ENDBRANCH   1   3
BRANCH   1  20
HETATM   20  C7  UNL     1      -1.570 -37.032  19.769  1.00  0.00     0.249 C 
BRANCH  20  21
HETATM   21  O1  UNL     1      -2.457 -36.966  20.800  1.00  0.00    -0.375 OA
ATOM     22  H1  UNL     1      -2.945 -37.686  21.182  1.00  0.00     0.212 HD
ENDBRANCH  20  21
BRANCH  20  23
HETATM   23  C8  UNL     1      -0.186 -37.195  20.474  1.00  0.00     0.241 C 
BRANCH  23  24
HETATM   24  N3  UNL     1      -0.162 -38.299  21.381  1.00  0.00    -0.070 N 
ATOM     25  H33 UNL     1      -0.455 -39.160  20.919  1.00  0.00     0.274 HD
ATOM     26  H32 UNL     1       0.796 -38.558  21.619  1.00  0.00     0.274 HD
ATOM     27  H31 UNL     1      -0.715 -38.127  22.220  1.00  0.00     0.274 HD
ENDBRANCH  23  24
BRANCH  23  28
HETATM   28  C9  UNL     1      -0.012 -35.958  21.368  1.00  0.00     0.116 C 
BRANCH  28  29
HETATM   29  S1  UNL     1       1.368 -34.922  20.851  1.00  0.00    -0.128 SA
BRANCH  29  30
HETATM   30  C10 UNL     1       0.894 -33.223  20.626  1.00  0.00     0.000 A 
HETATM   31  C11 UNL     1      -0.230 -32.645  21.178  1.00  0.00     0.020 A 
HETATM   32  C12 UNL     1      -0.526 -31.323  20.996  1.00  0.00     0.025 A 
HETATM   33  C13 UNL     1       0.296 -30.514  20.251  1.00  0.00     0.034 A 
HETATM   34 CL1  UNL     1      -0.043 -28.815  20.004  1.00  0.00    -0.084 Cl
HETATM   35  C14 UNL     1       1.418 -31.061  19.692  1.00  0.00     0.025 A 
HETATM   36  C15 UNL     1       1.712 -32.404  19.878  1.00  0.00     0.020 A 
ENDBRANCH  29  30
ENDBRANCH  28  29
ENDBRANCH  23  28
ENDBRANCH  20  23
ENDBRANCH   1  20
TORSDOF 15
ENDMDL
MODEL 3
REMARK VINA RESULT: -6.878715962      2.086      4.338
REMARK  15 active torsions:
REMARK  status: ('A' for Active; 'I' for Inactive)
REMARK    1  A    between atoms: N1_1  and  C1_5 
REMARK    2  A    between atoms: C1_5  and  C2_6 
REMARK    3  A    between atoms: C2_6  and  C3_7 
REMARK    4  A    between atoms: C3_7  and  C4_8 
REMARK    5  A    between atoms: C4_8  and  C5_9 
REMARK    6  A    between atoms: C5_9  and  C6_10 
REMARK    7  A    between atoms: C6_10  and  N2_11 
REMARK    8  A    between atoms: C6_10  and  C16_30 
REMARK    9  A    between atoms: N2_11  and  C7_13 
REMARK   10  A    between atoms: C7_13  and  O1_14 
REMARK   11  A    between atoms: C7_13  and  C8_16 
REMARK   12  A    between atoms: C8_16  and  N3_17 
REMARK   13  A    between atoms: C8_16  and  C9_21 
REMARK   14  A    between atoms: C9_21  and  S1_22 
REMARK   15  A    between atoms: S1_22  and  C10_23 
ROOT
HETATM    1  N2  UNL     1       0.841 -35.251  19.846  1.00  0.00    -0.363 N 
ATOM      2  H2  UNL     1       0.074 -35.144  19.182  1.00  0.00     0.162 HD
ENDROOT
BRANCH   1   3
HETATM    3  C6  UNL     1       1.705 -34.191  19.797  1.00  0.00     0.043 C 
BRANCH   3   4
HETATM    4  C5  UNL     1       1.453 -33.016  20.698  1.00  0.00     0.060 C 
BRANCH   4   5
HETATM    5  C4  UNL     1       0.021 -32.941  21.155  1.00  0.00     0.006 C 
BRANCH   5   6
HETATM    6  C3  UNL     1      -0.546 -31.565  20.941  1.00  0.00     0.002 C 
BRANCH   6   7
HETATM    7  C2  UNL     1       0.566 -30.631  20.515  1.00  0.00     0.027 C 
BRANCH   7   8
HETATM    8  C1  UNL     1       0.125 -29.689  19.418  1.00  0.00     0.229 C 
BRANCH   8   9
HETATM    9  N1  UNL     1       0.275 -30.258  18.105  1.00  0.00    -0.079 N 
ATOM     10  H13 UNL     1       0.436 -29.532  17.407  1.00  0.00     0.274 HD
ATOM     11  H12 UNL     1       1.158 -30.762  18.023  1.00  0.00     0.274 HD
ATOM     12  H11 UNL     1      -0.512 -30.851  17.842  1.00  0.00     0.274 HD
ENDBRANCH   8   9
ENDBRANCH   7   8
ENDBRANCH   6   7
ENDBRANCH   5   6
ENDBRANCH   4   5
ENDBRANCH   3   4
BRANCH   3  13
HETATM   13  C16 UNL     1       2.106 -33.739  18.426  1.00  0.00     0.118 A 
HETATM   14  C17 UNL     1       2.546 -34.474  17.353  1.00  0.00     0.132 A 
HETATM   15  N4  UNL     1       2.798 -33.630  16.304  1.00  0.00    -0.310 N 
HETATM   16  C18 UNL     1       2.505 -32.397  16.772  1.00  0.00     0.370 A 
ATOM     17  H4  UNL     1       3.134 -33.879  15.374  1.00  0.00     0.170 HD
HETATM   18  O2  UNL     1       2.595 -31.322  16.141  1.00  0.00    -0.238 OA
HETATM   19  O3  UNL     1       2.110 -32.501  17.995  1.00  0.00    -0.258 OA
ENDBRANCH   3  13
ENDBRANCH   1   3
BRANCH   1  20
HETATM   20  C7  UNL     1       0.740 -36.395  20.538  1.00  0.00     0.249 C 
BRANCH  20  21
HETATM   21  O1  UNL     1       1.669 -37.388  20.621  1.00  0.00    -0.375 OA
ATOM     22  H1  UNL     1       1.897 -38.016  19.945  1.00  0.00     0.212 HD
ENDBRANCH  20  21
BRANCH  20  23
HETATM   23  C8  UNL     1      -0.588 -37.148  20.212  1.00  0.00     0.241 C 
BRANCH  23  24
HETATM   24  N3  UNL     1      -0.716 -38.370  20.940  1.00  0.00    -0.070 N 
ATOM     25  H33 UNL     1       0.119 -38.555  21.497  1.00  0.00     0.274 HD
ATOM     26  H32 UNL     1      -1.399 -38.280  21.693  1.00  0.00     0.274 HD
ATOM     27  H31 UNL     1      -0.937 -39.162  20.337  1.00  0.00     0.274 HD
ENDBRANCH  23  24
BRANCH  23  28
HETATM   28  C9  UNL     1      -0.485 -37.583  18.742  1.00  0.00     0.116 C 
BRANCH  28  29
HETATM   29  S1  UNL     1      -1.970 -37.196  17.801  1.00  0.00    -0.128 SA
BRANCH  29  30
HETATM   30  C10 UNL     1      -1.915 -35.569  17.084  1.00  0.00     0.000 A 
HETATM   31  C11 UNL     1      -1.449 -34.445  17.732  1.00  0.00     0.020 A 
HETATM   32  C12 UNL     1      -1.400 -33.225  17.117  1.00  0.00     0.025 A 
HETATM   33  C13 UNL     1      -1.817 -33.075  15.818  1.00  0.00     0.034 A 
HETATM   34 CL1  UNL     1      -1.760 -31.533  14.993  1.00  0.00    -0.084 Cl
HETATM   35  C14 UNL     1      -2.284 -34.173  15.151  1.00  0.00     0.025 A 
HETATM   36  C15 UNL     1      -2.333 -35.409  15.781  1.00  0.00     0.020 A 
ENDBRANCH  29  30
ENDBRANCH  28  29
ENDBRANCH  23  28
ENDBRANCH  20  23
ENDBRANCH   1  20
TORSDOF 15
ENDMDL
MODEL 4
REMARK VINA RESULT: -6.760457215      3.355      5.684
REMARK  15 active torsions:
REMARK  status: ('A' for Active; 'I' for Inactive)
REMARK    1  A    between atoms: N1_1  and  C1_5 
REMARK    2  A    between atoms: C1_5  and  C2_6 
REMARK    3  A    between atoms: C2_6  and  C3_7 
REMARK    4  A    between atoms: C3_7  and  C4_8 
REMARK    5  A    between atoms: C4_8  and  C5_9 
REMARK    6  A    between atoms: C5_9  and  C6_10 
REMARK    7  A    between atoms: C6_10  and  N2_11 
REMARK    8  A    between atoms: C6_10  and  C16_30 
REMARK    9  A    between atoms: N2_11  and  C7_13 
REMARK   10  A    between atoms: C7_13  and  O1_14 
REMARK   11  A    between atoms: C7_13  and  C8_16 
REMARK   12  A    between atoms: C8_16  and  N3_17 
REMARK   13  A    between atoms: C8_16  and  C9_21 
REMARK   14  A    between atoms: C9_21  and  S1_22 
REMARK   15  A    between atoms: S1_22  and  C10_23 
ROOT
HETATM    1  N2  UNL     1       0.576 -35.183  20.092  1.00  0.00    -0.363 N 
ATOM      2  H2  UNL     1      -0.201 -34.579  19.824  1.00  0.00     0.162 HD
ENDROOT
BRANCH   1   3
HETATM    3  C6  UNL     1       0.613 -36.326  19.341  1.00  0.00     0.043 C 
BRANCH   3   4
HETATM    4  C5  UNL     1      -0.339 -36.458  18.186  1.00  0.00     0.060 C 
BRANCH   4   5
HETATM    5  C4  UNL     1       0.373 -36.559  16.865  1.00  0.00     0.006 C 
BRANCH   5   6
HETATM    6  C3  UNL     1      -0.208 -37.655  16.016  1.00  0.00     0.002 C 
BRANCH   6   7
HETATM    7  C2  UNL     1       0.792 -38.785  15.912  1.00  0.00     0.027 C 
BRANCH   7   8
HETATM    8  C1  UNL     1       2.162 -38.377  16.407  1.00  0.00     0.229 C 
BRANCH   8   9
HETATM    9  N1  UNL     1       2.669 -39.259  17.424  1.00  0.00    -0.079 N 
ATOM     10  H13 UNL     1       2.127 -39.177  18.284  1.00  0.00     0.274 HD
ATOM     11  H12 UNL     1       2.468 -40.234  17.196  1.00  0.00     0.274 HD
ATOM     12  H11 UNL     1       3.664 -39.122  17.602  1.00  0.00     0.274 HD
ENDBRANCH   8   9
ENDBRANCH   7   8
ENDBRANCH   6   7
ENDBRANCH   5   6
ENDBRANCH   4   5
ENDBRANCH   3   4
BRANCH   3  13
HETATM   13  C16 UNL     1       0.705 -37.609  20.110  1.00  0.00     0.118 A 
HETATM   14  C17 UNL     1      -0.205 -38.194  20.954  1.00  0.00     0.132 A 
HETATM   15  N4  UNL     1       0.315 -39.366  21.434  1.00  0.00    -0.310 N 
HETATM   16  C18 UNL     1       1.538 -39.462  20.865  1.00  0.00     0.370 A 
ATOM     17  H4  UNL     1      -0.124 -40.023  22.079  1.00  0.00     0.170 HD
HETATM   18  O2  UNL     1       2.365 -40.384  21.030  1.00  0.00    -0.238 OA
HETATM   19  O3  UNL     1       1.725 -38.433  20.111  1.00  0.00    -0.258 OA
ENDBRANCH   3  13
ENDBRANCH   1   3
BRANCH   1  20
HETATM   20  C7  UNL     1       1.296 -34.649  21.089  1.00  0.00     0.249 C 
BRANCH  20  21
HETATM   21  O1  UNL     1       1.167 -34.903  22.421  1.00  0.00    -0.375 OA
ATOM     22  H1  UNL     1       1.336 -34.301  23.137  1.00  0.00     0.212 HD
ENDBRANCH  20  21
BRANCH  20  23
HETATM   23  C8  UNL     1       1.328 -33.090  21.004  1.00  0.00     0.241 C 
BRANCH  23  24
HETATM   24  N3  UNL     1       0.033 -32.508  21.167  1.00  0.00    -0.070 N 
ATOM     25  H33 UNL     1      -0.496 -32.540  20.295  1.00  0.00     0.274 HD
ATOM     26  H32 UNL     1      -0.565 -33.100  21.743  1.00  0.00     0.274 HD
ATOM     27  H31 UNL     1       0.076 -31.559  21.536  1.00  0.00     0.274 HD
ENDBRANCH  23  24
BRANCH  23  28
HETATM   28  C9  UNL     1       1.726 -32.749  19.560  1.00  0.00     0.116 C 
BRANCH  28  29
HETATM   29  S1  UNL     1       0.763 -31.387  18.881  1.00  0.00    -0.128 SA
BRANCH  29  30
HETATM   30  C10 UNL     1      -0.244 -31.887  17.504  1.00  0.00     0.000 A 
HETATM   31  C11 UNL     1      -0.301 -31.225  16.296  1.00  0.00     0.020 A 
HETATM   32  C12 UNL     1      -1.070 -31.677  15.260  1.00  0.00     0.025 A 
HETATM   33  C13 UNL     1      -1.820 -32.819  15.387  1.00  0.00     0.034 A 
HETATM   34 CL1  UNL     1      -2.809 -33.436  14.082  1.00  0.00    -0.084 Cl
HETATM   35  C14 UNL     1      -1.783 -33.497  16.575  1.00  0.00     0.025 A 
HETATM   36  C15 UNL     1      -1.001 -33.032  17.623  1.00  0.00     0.020 A 
ENDBRANCH  29  30
ENDBRANCH  28  29
ENDBRANCH  23  28
ENDBRANCH  20  23
ENDBRANCH   1  20
TORSDOF 15
ENDMDL
MODEL 5
REMARK VINA RESULT: -6.758322458      4.031      6.829
REMARK  15 active torsions:
REMARK  status: ('A' for Active; 'I' for Inactive)
REMARK    1  A    between atoms: N1_1  and  C1_5 
REMARK    2  A    between atoms: C1_5  and  C2_6 
REMARK    3  A    between atoms: C2_6  and  C3_7 
REMARK    4  A    between atoms: C3_7  and  C4_8 
REMARK    5  A    between atoms: C4_8  and  C5_9 
REMARK    6  A    between atoms: C5_9  and  C6_10 
REMARK    7  A    between atoms: C6_10  and  N2_11 
REMARK    8  A    between atoms: C6_10  and  C16_30 
REMARK    9  A    between atoms: N2_11  and  C7_13 
REMARK   10  A    between atoms: C7_13  and  O1_14 
REMARK   11  A    between atoms: C7_13  and  C8_16 
REMARK   12  A    between atoms: C8_16  and  N3_17 
REMARK   13  A    between atoms: C8_16  and  C9_21 
REMARK   14  A    between atoms: C9_21  and  S1_22 
REMARK   15  A    between atoms: S1_22  and  C10_23 
ROOT
HETATM    1  N2  UNL     1      -0.518 -38.586  20.852  1.00  0.00    -0.363 N 
ATOM      2  H2  UNL     1      -1.114 -38.111  21.531  1.00  0.00     0.162 HD
ENDROOT
BRANCH   1   3
HETATM    3  C6  UNL     1      -0.525 -39.942  21.034  1.00  0.00     0.043 C 
BRANCH   3   4
HETATM    4  C5  UNL     1      -1.621 -40.551  21.862  1.00  0.00     0.060 C 
BRANCH   4   5
HETATM    5  C4  UNL     1      -2.967 -40.444  21.200  1.00  0.00     0.006 C 
BRANCH   5   6
HETATM    6  C3  UNL     1      -3.774 -41.697  21.402  1.00  0.00     0.002 C 
BRANCH   6   7
HETATM    7  C2  UNL     1      -5.151 -41.324  21.903  1.00  0.00     0.027 C 
BRANCH   7   8
HETATM    8  C1  UNL     1      -5.809 -40.279  21.029  1.00  0.00     0.229 C 
BRANCH   8   9
HETATM    9  N1  UNL     1      -7.065 -39.824  21.561  1.00  0.00    -0.079 N 
ATOM     10  H13 UNL     1      -6.962 -38.920  22.023  1.00  0.00     0.274 HD
ATOM     11  H12 UNL     1      -7.704 -39.554  20.813  1.00  0.00     0.274 HD
ATOM     12  H11 UNL     1      -7.498 -40.506  22.184  1.00  0.00     0.274 HD
ENDBRANCH   8   9
ENDBRANCH   7   8
ENDBRANCH   6   7
ENDBRANCH   5   6
ENDBRANCH   4   5
ENDBRANCH   3   4
BRANCH   3  13
HETATM   13  C16 UNL     1       0.799 -40.564  21.356  1.00  0.00     0.118 A 
HETATM   14  C17 UNL     1       1.150 -41.401  22.386  1.00  0.00     0.132 A 
HETATM   15  N4  UNL     1       2.479 -41.714  22.278  1.00  0.00    -0.310 N 
HETATM   16  C18 UNL     1       2.904 -41.053  21.179  1.00  0.00     0.370 A 
ATOM     17  H4  UNL     1       3.027 -42.315  22.893  1.00  0.00     0.170 HD
HETATM   18  O2  UNL     1       4.062 -41.057  20.710  1.00  0.00    -0.238 OA
HETATM   19  O3  UNL     1       1.909 -40.404  20.676  1.00  0.00    -0.258 OA
ENDBRANCH   3  13
ENDBRANCH   1   3
BRANCH   1  20
HETATM   20  C7  UNL     1       0.068 -37.718  20.016  1.00  0.00     0.249 C 
BRANCH  20  21
HETATM   21  O1  UNL     1       1.362 -37.733  19.592  1.00  0.00    -0.375 OA
ATOM     22  H1  UNL     1       1.706 -38.167  18.820  1.00  0.00     0.212 HD
ENDBRANCH  20  21
BRANCH  20  23
HETATM   23  C8  UNL     1      -0.164 -36.241  20.466  1.00  0.00     0.241 C 
BRANCH  23  24
HETATM   24  N3  UNL     1      -0.107 -36.087  21.885  1.00  0.00    -0.070 N 
ATOM     25  H33 UNL     1      -1.018 -35.829  22.263  1.00  0.00     0.274 HD
ATOM     26  H32 UNL     1       0.014 -36.989  22.347  1.00  0.00     0.274 HD
ATOM     27  H31 UNL     1       0.612 -35.426  22.177  1.00  0.00     0.274 HD
ENDBRANCH  23  24
BRANCH  23  28
HETATM   28  C9  UNL     1      -1.617 -35.904  20.099  1.00  0.00     0.116 C 
BRANCH  28  29
HETATM   29  S1  UNL     1      -1.732 -34.664  18.798  1.00  0.00    -0.128 SA
BRANCH  29  30
HETATM   30  C10 UNL     1      -0.937 -33.137  19.244  1.00  0.00     0.000 A 
HETATM   31  C11 UNL     1      -0.899 -32.619  20.521  1.00  0.00     0.020 A 
HETATM   32  C12 UNL     1      -0.243 -31.455  20.809  1.00  0.00     0.025 A 
HETATM   33  C13 UNL     1       0.410 -30.754  19.827  1.00  0.00     0.034 A 
HETATM   34 CL1  UNL     1       1.270 -29.266  20.158  1.00  0.00    -0.084 Cl
HETATM   35  C14 UNL     1       0.389 -31.244  18.550  1.00  0.00     0.025 A 
HETATM   36  C15 UNL     1      -0.280 -32.425  18.263  1.00  0.00     0.020 A 
ENDBRANCH  29  30
ENDBRANCH  28  29
ENDBRANCH  23  28
ENDBRANCH  20  23
ENDBRANCH   1  20
TORSDOF 15
ENDMDL
