MODEL 1
REMARK VINA RESULT: -7.347091911      0.000      0.000
REMARK  12 active torsions:
REMARK  status: ('A' for Active; 'I' for Inactive)
REMARK       I    between atoms: N1_1  and  C1_5 
REMARK       I    between atoms: C1_5  and  N2_6 
REMARK       I    between atoms: C1_5  and  N3_10 
REMARK    1  A    between atoms: N3_10  and  C2_12 
REMARK    2  A    between atoms: C2_12  and  C3_13 
REMARK    3  A    between atoms: C3_13  and  C4_14 
REMARK    4  A    between atoms: C4_14  and  C5_15 
REMARK    5  A    between atoms: C5_15  and  C6_16 
REMARK    6  A    between atoms: C6_16  and  C7_17 
REMARK    7  A    between atoms: C7_17  and  C8_18 
REMARK    8  A    between atoms: C8_18  and  C9_19 
REMARK    9  A    between atoms: C9_19  and  N4_20 
REMARK   10  A    between atoms: N4_20  and  C10_23 
REMARK   11  A    between atoms: C10_23  and  C11_24 
REMARK   12  A    between atoms: C12_29  and  C13_30 
ROOT
HETATM    1  N4  UNL     1       0.477 -30.755  20.682  1.00  0.00    -0.069 N 
ATOM      2  H41 UNL     1       0.636 -30.084  21.434  1.00  0.00     0.277 HD
ATOM      3  H42 UNL     1       1.442 -31.067  20.580  1.00  0.00     0.277 HD
ENDROOT
BRANCH   1   4
HETATM    4  C9  UNL     1      -0.056 -30.146  19.478  1.00  0.00     0.232 C 
BRANCH   4   5
HETATM    5  C8  UNL     1       0.881 -30.576  18.337  1.00  0.00     0.027 C 
BRANCH   5   6
HETATM    6  C7  UNL     1       0.103 -31.400  17.395  1.00  0.00     0.002 C 
BRANCH   6   7
HETATM    7  C6  UNL     1       0.600 -31.628  16.029  1.00  0.00     0.000 C 
BRANCH   7   8
HETATM    8  C5  UNL     1      -0.294 -31.632  14.875  1.00  0.00     0.000 C 
BRANCH   8   9
HETATM    9  C4  UNL     1      -1.741 -31.890  15.044  1.00  0.00     0.005 C 
BRANCH   9  10
HETATM   10  C3  UNL     1      -2.225 -33.163  14.363  1.00  0.00     0.044 C 
BRANCH  10  11
HETATM   11  C2  UNL     1      -3.368 -33.746  15.130  1.00  0.00     0.059 C 
BRANCH  11  12
HETATM   12  N3  UNL     1      -3.073 -34.613  16.192  1.00  0.00    -0.354 N 
HETATM   13  C1  UNL     1      -2.179 -35.686  16.033  1.00  0.00     0.479 C 
HETATM   14  N1  UNL     1      -2.612 -36.761  15.190  1.00  0.00    -0.033 N 
HETATM   15  N2  UNL     1      -1.742 -36.247  17.316  1.00  0.00    -0.033 N 
ATOM     16  H13 UNL     1      -1.898 -37.482  15.080  1.00  0.00     0.278 HD
ATOM     17  H12 UNL     1      -3.328 -37.339  15.629  1.00  0.00     0.278 HD
ATOM     18  H11 UNL     1      -2.915 -36.371  14.298  1.00  0.00     0.278 HD
ATOM     19  H23 UNL     1      -2.458 -36.825  17.755  1.00  0.00     0.278 HD
ATOM     20  H22 UNL     1      -1.028 -36.968  17.206  1.00  0.00     0.278 HD
ATOM     21  H21 UNL     1      -1.434 -35.481  17.916  1.00  0.00     0.278 HD
ATOM     22  H3  UNL     1      -3.517 -34.462  17.098  1.00  0.00     0.162 HD
ENDBRANCH  11  12
ENDBRANCH  10  11
ENDBRANCH   9  10
ENDBRANCH   8   9
ENDBRANCH   7   8
ENDBRANCH   6   7
ENDBRANCH   5   6
ENDBRANCH   4   5
ENDBRANCH   1   4
BRANCH   1  23
HETATM   23  C10 UNL     1      -0.426 -31.817  21.052  1.00  0.00     0.309 C 
BRANCH  23  24
HETATM   24  C11 UNL     1       0.247 -33.145  21.018  1.00  0.00     0.123 A 
HETATM   25  N5  UNL     1       0.954 -33.770  21.948  1.00  0.00    -0.286 N 
HETATM   26  N6  UNL     1       1.361 -34.925  21.480  1.00  0.00    -0.283 N 
ATOM     27  H5  UNL     1       1.151 -33.409  22.882  1.00  0.00     0.188 HD
HETATM   28  C12 UNL     1       0.921 -35.104  20.184  1.00  0.00     0.134 A 
ATOM     29  H6  UNL     1       1.925 -35.597  22.000  1.00  0.00     0.188 HD
HETATM   30  N8  UNL     1       0.239 -33.987  19.937  1.00  0.00    -0.328 N 
ATOM     31  H8  UNL     1      -0.230 -33.783  19.055  1.00  0.00     0.169 HD
BRANCH  28  32
HETATM   32  C13 UNL     1       1.205 -36.281  19.389  1.00  0.00     0.046 A 
HETATM   33  C14 UNL     1       0.862 -37.538  19.898  1.00  0.00     0.106 A 
HETATM   34  N7  UNL     1       1.100 -38.670  19.210  1.00  0.00    -0.356 N 
HETATM   35  C15 UNL     1       1.675 -38.692  18.004  1.00  0.00     0.104 A 
ATOM     36  H7  UNL     1       0.828 -39.558  19.632  1.00  0.00     0.166 HD
HETATM   37 CL1  UNL     1       1.967 -40.199  17.139  1.00  0.00    -0.065 Cl
HETATM   38  C16 UNL     1       2.030 -37.482  17.461  1.00  0.00     0.067 A 
HETATM   39  C17 UNL     1       1.791 -36.284  18.162  1.00  0.00     0.052 A 
HETATM   40 CL2  UNL     1       2.295 -34.822  17.351  1.00  0.00    -0.083 Cl
ENDBRANCH  28  32
ENDBRANCH  23  24
ENDBRANCH   1  23
TORSDOF 12
ENDMDL
MODEL 2
REMARK VINA RESULT: -7.338064238      3.169      4.638
REMARK  12 active torsions:
REMARK  status: ('A' for Active; 'I' for Inactive)
REMARK       I    between atoms: N1_1  and  C1_5 
REMARK       I    between atoms: C1_5  and  N2_6 
REMARK       I    between atoms: C1_5  and  N3_10 
REMARK    1  A    between atoms: N3_10  and  C2_12 
REMARK    2  A    between atoms: C2_12  and  C3_13 
REMARK    3  A    between atoms: C3_13  and  C4_14 
REMARK    4  A    between atoms: C4_14  and  C5_15 
REMARK    5  A    between atoms: C5_15  and  C6_16 
REMARK    6  A    between atoms: C6_16  and  C7_17 
REMARK    7  A    between atoms: C7_17  and  C8_18 
REMARK    8  A    between atoms: C8_18  and  C9_19 
REMARK    9  A    between atoms: C9_19  and  N4_20 
REMARK   10  A    between atoms: N4_20  and  C10_23 
REMARK   11  A    between atoms: C10_23  and  C11_24 
REMARK   12  A    between atoms: C12_29  and  C13_30 
ROOT
HETATM    1  N4  UNL     1      -0.310 -34.212  20.703  1.00  0.00    -0.069 N 
ATOM      2  H41 UNL     1      -0.649 -34.064  19.752  1.00  0.00     0.277 HD
ATOM      3  H42 UNL     1      -1.218 -34.366  21.142  1.00  0.00     0.277 HD
ENDROOT
BRANCH   1   4
HETATM    4  C9  UNL     1       0.395 -33.063  21.242  1.00  0.00     0.232 C 
BRANCH   4   5
HETATM    5  C8  UNL     1      -0.499 -31.845  20.952  1.00  0.00     0.027 C 
BRANCH   5   6
HETATM    6  C7  UNL     1       0.375 -30.719  20.576  1.00  0.00     0.002 C 
BRANCH   6   7
HETATM    7  C6  UNL     1       0.184 -30.036  19.288  1.00  0.00     0.000 C 
BRANCH   7   8
HETATM    8  C5  UNL     1       0.738 -30.566  18.046  1.00  0.00     0.000 C 
BRANCH   8   9
HETATM    9  C4  UNL     1      -0.132 -31.254  17.065  1.00  0.00     0.005 C 
BRANCH   9  10
HETATM   10  C3  UNL     1      -0.509 -32.673  17.463  1.00  0.00     0.044 C 
BRANCH  10  11
HETATM   11  C2  UNL     1       0.203 -33.652  16.586  1.00  0.00     0.059 C 
BRANCH  11  12
HETATM   12  N3  UNL     1       1.265 -34.380  17.141  1.00  0.00    -0.354 N 
HETATM   13  C1  UNL     1       2.399 -33.735  17.664  1.00  0.00     0.479 C 
HETATM   14  N1  UNL     1       3.256 -33.080  16.721  1.00  0.00    -0.033 N 
HETATM   15  N2  UNL     1       3.216 -34.625  18.497  1.00  0.00    -0.033 N 
ATOM     16  H13 UNL     1       4.032 -32.593  17.170  1.00  0.00     0.278 HD
ATOM     17  H12 UNL     1       3.806 -33.738  16.168  1.00  0.00     0.278 HD
ATOM     18  H11 UNL     1       2.688 -32.462  16.142  1.00  0.00     0.278 HD
ATOM     19  H23 UNL     1       3.766 -35.283  17.945  1.00  0.00     0.278 HD
ATOM     20  H22 UNL     1       3.992 -34.137  18.946  1.00  0.00     0.278 HD
ATOM     21  H21 UNL     1       2.606 -35.091  19.168  1.00  0.00     0.278 HD
ATOM     22  H3  UNL     1       1.213 -35.399  17.165  1.00  0.00     0.162 HD
ENDBRANCH  11  12
ENDBRANCH  10  11
ENDBRANCH   9  10
ENDBRANCH   8   9
ENDBRANCH   7   8
ENDBRANCH   6   7
ENDBRANCH   5   6
ENDBRANCH   4   5
ENDBRANCH   1   4
BRANCH   1  23
HETATM   23  C10 UNL     1       0.576 -35.343  20.820  1.00  0.00     0.309 C 
BRANCH  23  24
HETATM   24  C11 UNL     1      -0.177 -36.624  20.898  1.00  0.00     0.123 A 
HETATM   25  N5  UNL     1      -1.483 -36.850  20.918  1.00  0.00    -0.286 N 
HETATM   26  N6  UNL     1      -1.700 -38.140  20.997  1.00  0.00    -0.283 N 
ATOM     27  H5  UNL     1      -2.207 -36.131  20.879  1.00  0.00     0.188 HD
HETATM   28  C12 UNL     1      -0.504 -38.830  21.032  1.00  0.00     0.134 A 
ATOM     29  H6  UNL     1      -2.622 -38.574  21.028  1.00  0.00     0.188 HD
HETATM   30  N8  UNL     1       0.408 -37.861  20.969  1.00  0.00    -0.328 N 
ATOM     31  H8  UNL     1       1.415 -38.020  20.973  1.00  0.00     0.169 HD
BRANCH  28  32
HETATM   32  C13 UNL     1      -0.405 -40.273  21.118  1.00  0.00     0.046 A 
HETATM   33  C14 UNL     1      -0.792 -40.906  22.304  1.00  0.00     0.106 A 
HETATM   34  N7  UNL     1      -0.724 -42.242  22.449  1.00  0.00    -0.356 N 
HETATM   35  C15 UNL     1      -0.288 -43.065  21.491  1.00  0.00     0.104 A 
ATOM     36  H7  UNL     1      -1.020 -42.648  23.337  1.00  0.00     0.166 HD
HETATM   37 CL1  UNL     1      -0.216 -44.810  21.725  1.00  0.00    -0.065 Cl
HETATM   38  C16 UNL     1       0.104 -42.491  20.306  1.00  0.00     0.067 A 
HETATM   39  C17 UNL     1       0.041 -41.095  20.132  1.00  0.00     0.052 A 
HETATM   40 CL2  UNL     1       0.571 -40.505  18.576  1.00  0.00    -0.083 Cl
ENDBRANCH  28  32
ENDBRANCH  23  24
ENDBRANCH   1  23
TORSDOF 12
ENDMDL
MODEL 3
REMARK VINA RESULT: -7.293520035      1.939      3.114
REMARK  12 active torsions:
REMARK  status: ('A' for Active; 'I' for Inactive)
REMARK       I    between atoms: N1_1  and  C1_5 
REMARK       I    between atoms: C1_5  and  N2_6 
REMARK       I    between atoms: C1_5  and  N3_10 
REMARK    1  A    between atoms: N3_10  and  C2_12 
REMARK    2  A    between atoms: C2_12  and  C3_13 
REMARK    3  A    between atoms: C3_13  and  C4_14 
REMARK    4  A    between atoms: C4_14  and  C5_15 
REMARK    5  A    between atoms: C5_15  and  C6_16 
REMARK    6  A    between atoms: C6_16  and  C7_17 
REMARK    7  A    between atoms: C7_17  and  C8_18 
REMARK    8  A    between atoms: C8_18  and  C9_19 
REMARK    9  A    between atoms: C9_19  and  N4_20 
REMARK   10  A    between atoms: N4_20  and  C10_23 
REMARK   11  A    between atoms: C10_23  and  C11_24 
REMARK   12  A    between atoms: C12_29  and  C13_30 
ROOT
HETATM    1  N4  UNL     1       0.831 -33.494  21.675  1.00  0.00    -0.069 N 
ATOM      2  H41 UNL     1       0.328 -34.142  22.281  1.00  0.00     0.277 HD
ATOM      3  H42 UNL     1       1.107 -32.829  22.398  1.00  0.00     0.277 HD
ENDROOT
BRANCH   1   4
HETATM    4  C9  UNL     1      -0.008 -32.905  20.648  1.00  0.00     0.232 C 
BRANCH   4   5
HETATM    5  C8  UNL     1      -0.570 -31.608  21.256  1.00  0.00     0.027 C 
BRANCH   5   6
HETATM    6  C7  UNL     1       0.021 -30.471  20.527  1.00  0.00     0.002 C 
BRANCH   6   7
HETATM    7  C6  UNL     1       1.082 -30.702  19.536  1.00  0.00     0.000 C 
BRANCH   7   8
HETATM    8  C5  UNL     1       0.894 -30.392  18.121  1.00  0.00     0.000 C 
BRANCH   8   9
HETATM    9  C4  UNL     1       1.132 -31.422  17.086  1.00  0.00     0.005 C 
BRANCH   9  10
HETATM   10  C3  UNL     1      -0.067 -31.682  16.186  1.00  0.00     0.044 C 
BRANCH  10  11
HETATM   11  C2  UNL     1      -0.586 -33.065  16.417  1.00  0.00     0.059 C 
BRANCH  11  12
HETATM   12  N3  UNL     1      -1.975 -33.253  16.426  1.00  0.00    -0.354 N 
HETATM   13  C1  UNL     1      -2.621 -33.978  15.410  1.00  0.00     0.479 C 
HETATM   14  N1  UNL     1      -2.647 -33.374  14.110  1.00  0.00    -0.033 N 
HETATM   15  N2  UNL     1      -3.991 -34.358  15.775  1.00  0.00    -0.033 N 
ATOM     16  H13 UNL     1      -3.088 -33.972  13.410  1.00  0.00     0.278 HD
ATOM     17  H12 UNL     1      -3.298 -32.591  14.055  1.00  0.00     0.278 HD
ATOM     18  H11 UNL     1      -1.695 -33.111  13.856  1.00  0.00     0.278 HD
ATOM     19  H23 UNL     1      -4.642 -33.575  15.719  1.00  0.00     0.278 HD
ATOM     20  H22 UNL     1      -4.431 -34.955  15.075  1.00  0.00     0.278 HD
ATOM     21  H21 UNL     1      -3.972 -34.787  16.700  1.00  0.00     0.278 HD
ATOM     22  H3  UNL     1      -2.528 -32.857  17.186  1.00  0.00     0.162 HD
ENDBRANCH  11  12
ENDBRANCH  10  11
ENDBRANCH   9  10
ENDBRANCH   8   9
ENDBRANCH   7   8
ENDBRANCH   6   7
ENDBRANCH   5   6
ENDBRANCH   4   5
ENDBRANCH   1   4
BRANCH   1  23
HETATM   23  C10 UNL     1       1.955 -34.100  21.004  1.00  0.00     0.309 C 
BRANCH  23  24
HETATM   24  C11 UNL     1       1.573 -35.377  20.341  1.00  0.00     0.123 A 
HETATM   25  N5  UNL     1       1.014 -36.469  20.842  1.00  0.00    -0.286 N 
HETATM   26  N6  UNL     1       0.859 -37.354  19.888  1.00  0.00    -0.283 N 
ATOM     27  H5  UNL     1       0.746 -36.600  21.818  1.00  0.00     0.188 HD
HETATM   28  C12 UNL     1       1.326 -36.858  18.687  1.00  0.00     0.134 A 
ATOM     29  H6  UNL     1       0.451 -38.280  20.014  1.00  0.00     0.188 HD
HETATM   30  N8  UNL     1       1.757 -35.639  19.008  1.00  0.00    -0.328 N 
ATOM     31  H8  UNL     1       2.172 -34.984  18.346  1.00  0.00     0.169 HD
BRANCH  28  32
HETATM   32  C13 UNL     1       1.297 -37.596  17.441  1.00  0.00     0.046 A 
HETATM   33  C14 UNL     1       2.463 -38.237  17.008  1.00  0.00     0.106 A 
HETATM   34  N7  UNL     1       2.502 -38.937  15.860  1.00  0.00    -0.356 N 
HETATM   35  C15 UNL     1       1.451 -39.079  15.048  1.00  0.00     0.104 A 
ATOM     36  H7  UNL     1       3.380 -39.384  15.596  1.00  0.00     0.166 HD
HETATM   37 CL1  UNL     1       1.548 -40.006  13.552  1.00  0.00    -0.065 Cl
HETATM   38  C16 UNL     1       0.281 -38.467  15.429  1.00  0.00     0.067 A 
HETATM   39  C17 UNL     1       0.217 -37.729  16.626  1.00  0.00     0.052 A 
HETATM   40 CL2  UNL     1      -1.333 -37.007  16.984  1.00  0.00    -0.083 Cl
ENDBRANCH  28  32
ENDBRANCH  23  24
ENDBRANCH   1  23
TORSDOF 12
ENDMDL
MODEL 4
REMARK VINA RESULT: -7.273924760      1.633      5.101
REMARK  12 active torsions:
REMARK  status: ('A' for Active; 'I' for Inactive)
REMARK       I    between atoms: N1_1  and  C1_5 
REMARK       I    between atoms: C1_5  and  N2_6 
REMARK       I    between atoms: C1_5  and  N3_10 
REMARK    1  A    between atoms: N3_10  and  C2_12 
REMARK    2  A    between atoms: C2_12  and  C3_13 
REMARK    3  A    between atoms: C3_13  and  C4_14 
REMARK    4  A    between atoms: C4_14  and  C5_15 
REMARK    5  A    between atoms: C5_15  and  C6_16 
REMARK    6  A    between atoms: C6_16  and  C7_17 
REMARK    7  A    between atoms: C7_17  and  C8_18 
REMARK    8  A    between atoms: C8_18  and  C9_19 
REMARK    9  A    between atoms: C9_19  and  N4_20 
REMARK   10  A    between atoms: N4_20  and  C10_23 
REMARK   11  A    between atoms: C10_23  and  C11_24 
REMARK   12  A    between atoms: C12_29  and  C13_30 
ROOT
HETATM    1  N4  UNL     1      -1.871 -32.756  14.359  1.00  0.00    -0.069 N 
ATOM      2  H41 UNL     1      -1.036 -33.312  14.171  1.00  0.00     0.277 HD
ATOM      3  H42 UNL     1      -2.117 -32.559  13.389  1.00  0.00     0.277 HD
ENDROOT
BRANCH   1   4
HETATM    4  C9  UNL     1      -1.598 -31.560  15.133  1.00  0.00     0.232 C 
BRANCH   4   5
HETATM    5  C8  UNL     1      -0.138 -31.684  15.601  1.00  0.00     0.027 C 
BRANCH   5   6
HETATM    6  C7  UNL     1      -0.134 -31.724  17.074  1.00  0.00     0.002 C 
BRANCH   6   7
HETATM    7  C6  UNL     1       0.746 -30.824  17.834  1.00  0.00     0.000 C 
BRANCH   7   8
HETATM    8  C5  UNL     1       0.262 -30.058  18.978  1.00  0.00     0.000 C 
BRANCH   8   9
HETATM    9  C4  UNL     1       0.598 -30.471  20.359  1.00  0.00     0.005 C 
BRANCH   9  10
HETATM   10  C3  UNL     1      -0.535 -31.181  21.085  1.00  0.00     0.044 C 
BRANCH  10  11
HETATM   11  C2  UNL     1      -0.395 -32.660  20.920  1.00  0.00     0.059 C 
BRANCH  11  12
HETATM   12  N3  UNL     1       0.716 -33.284  21.503  1.00  0.00    -0.354 N 
HETATM   13  C1  UNL     1       1.074 -34.601  21.168  1.00  0.00     0.479 C 
HETATM   14  N1  UNL     1       0.185 -35.638  21.601  1.00  0.00    -0.033 N 
HETATM   15  N2  UNL     1       2.434 -34.941  21.604  1.00  0.00    -0.033 N 
ATOM     16  H13 UNL     1       0.478 -36.562  21.284  1.00  0.00     0.278 HD
ATOM     17  H12 UNL     1       0.243 -35.809  22.605  1.00  0.00     0.278 HD
ATOM     18  H11 UNL     1      -0.760 -35.402  21.298  1.00  0.00     0.278 HD
ATOM     19  H23 UNL     1       2.491 -35.113  22.608  1.00  0.00     0.278 HD
ATOM     20  H22 UNL     1       2.727 -35.866  21.287  1.00  0.00     0.278 HD
ATOM     21  H21 UNL     1       3.067 -34.203  21.296  1.00  0.00     0.278 HD
ATOM     22  H3  UNL     1       1.276 -32.772  22.185  1.00  0.00     0.162 HD
ENDBRANCH  11  12
ENDBRANCH  10  11
ENDBRANCH   9  10
ENDBRANCH   8   9
ENDBRANCH   7   8
ENDBRANCH   6   7
ENDBRANCH   5   6
ENDBRANCH   4   5
ENDBRANCH   1   4
BRANCH   1  23
HETATM   23  C10 UNL     1      -2.893 -33.490  15.064  1.00  0.00     0.309 C 
BRANCH  23  24
HETATM   24  C11 UNL     1      -2.417 -34.839  15.473  1.00  0.00     0.123 A 
HETATM   25  N5  UNL     1      -2.434 -35.989  14.814  1.00  0.00    -0.286 N 
HETATM   26  N6  UNL     1      -1.909 -36.927  15.565  1.00  0.00    -0.283 N 
ATOM     27  H5  UNL     1      -2.799 -36.123  13.870  1.00  0.00     0.188 HD
HETATM   28  C12 UNL     1      -1.516 -36.408  16.782  1.00  0.00     0.134 A 
ATOM     29  H6  UNL     1      -1.806 -37.903  15.289  1.00  0.00     0.188 HD
HETATM   30  N8  UNL     1      -1.845 -35.121  16.686  1.00  0.00    -0.328 N 
ATOM     31  H8  UNL     1      -1.691 -34.432  17.422  1.00  0.00     0.169 HD
BRANCH  28  32
HETATM   32  C13 UNL     1      -0.900 -37.192  17.834  1.00  0.00     0.046 A 
HETATM   33  C14 UNL     1      -1.721 -37.910  18.709  1.00  0.00     0.106 A 
HETATM   34  N7  UNL     1      -1.213 -38.656  19.707  1.00  0.00    -0.356 N 
HETATM   35  C15 UNL     1       0.097 -38.773  19.945  1.00  0.00     0.104 A 
ATOM     36  H7  UNL     1      -1.861 -39.159  20.314  1.00  0.00     0.166 HD
HETATM   37 CL1  UNL     1       0.719 -39.762  21.265  1.00  0.00    -0.065 Cl
HETATM   38  C16 UNL     1       0.946 -38.085  19.112  1.00  0.00     0.067 A 
HETATM   39  C17 UNL     1       0.436 -37.299  18.062  1.00  0.00     0.052 A 
HETATM   40 CL2  UNL     1       1.630 -36.481  17.084  1.00  0.00    -0.083 Cl
ENDBRANCH  28  32
ENDBRANCH  23  24
ENDBRANCH   1  23
TORSDOF 12
ENDMDL
MODEL 5
REMARK VINA RESULT: -7.249467737      2.261      4.080
REMARK  12 active torsions:
REMARK  status: ('A' for Active; 'I' for Inactive)
REMARK       I    between atoms: N1_1  and  C1_5 
REMARK       I    between atoms: C1_5  and  N2_6 
REMARK       I    between atoms: C1_5  and  N3_10 
REMARK    1  A    between atoms: N3_10  and  C2_12 
REMARK    2  A    between atoms: C2_12  and  C3_13 
REMARK    3  A    between atoms: C3_13  and  C4_14 
REMARK    4  A    between atoms: C4_14  and  C5_15 
REMARK    5  A    between atoms: C5_15  and  C6_16 
REMARK    6  A    between atoms: C6_16  and  C7_17 
REMARK    7  A    between atoms: C7_17  and  C8_18 
REMARK    8  A    between atoms: C8_18  and  C9_19 
REMARK    9  A    between atoms: C9_19  and  N4_20 
REMARK   10  A    between atoms: N4_20  and  C10_23 
REMARK   11  A    between atoms: C10_23  and  C11_24 
REMARK   12  A    between atoms: C12_29  and  C13_30 
ROOT
HETATM    1  N4  UNL     1       1.685 -31.999  16.158  1.00  0.00    -0.069 N 
ATOM      2  H41 UNL     1       1.304 -31.943  17.102  1.00  0.00     0.277 HD
ATOM      3  H42 UNL     1       2.194 -31.116  16.170  1.00  0.00     0.277 HD
ENDROOT
BRANCH   1   4
HETATM    4  C9  UNL     1       0.660 -32.052  15.132  1.00  0.00     0.232 C 
BRANCH   4   5
HETATM    5  C8  UNL     1      -0.518 -31.221  15.670  1.00  0.00     0.027 C 
BRANCH   5   6
HETATM    6  C7  UNL     1      -1.755 -31.733  15.054  1.00  0.00     0.002 C 
BRANCH   6   7
HETATM    7  C6  UNL     1      -1.954 -33.182  14.895  1.00  0.00     0.000 C 
BRANCH   7   8
HETATM    8  C5  UNL     1      -3.060 -33.883  15.541  1.00  0.00     0.000 C 
BRANCH   8   9
HETATM    9  C4  UNL     1      -2.954 -34.321  16.950  1.00  0.00     0.005 C 
BRANCH   9  10
HETATM   10  C3  UNL     1      -1.523 -34.431  17.457  1.00  0.00     0.044 C 
BRANCH  10  11
HETATM   11  C2  UNL     1      -1.410 -33.785  18.800  1.00  0.00     0.059 C 
BRANCH  11  12
HETATM   12  N3  UNL     1      -0.508 -32.721  18.943  1.00  0.00    -0.354 N 
HETATM   13  C1  UNL     1       0.371 -32.651  20.037  1.00  0.00     0.479 C 
HETATM   14  N1  UNL     1      -0.219 -32.407  21.320  1.00  0.00    -0.033 N 
HETATM   15  N2  UNL     1       1.450 -31.678  19.829  1.00  0.00    -0.033 N 
ATOM     16  H13 UNL     1       0.468 -32.416  22.075  1.00  0.00     0.278 HD
ATOM     17  H12 UNL     1      -0.535 -31.443  21.429  1.00  0.00     0.278 HD
ATOM     18  H11 UNL     1      -0.968 -33.083  21.465  1.00  0.00     0.278 HD
ATOM     19  H23 UNL     1       1.134 -30.714  19.938  1.00  0.00     0.278 HD
ATOM     20  H22 UNL     1       2.137 -31.686  20.583  1.00  0.00     0.278 HD
ATOM     21  H21 UNL     1       1.870 -31.851  18.915  1.00  0.00     0.278 HD
ATOM     22  H3  UNL     1      -0.490 -31.983  18.239  1.00  0.00     0.162 HD
ENDBRANCH  11  12
ENDBRANCH  10  11
ENDBRANCH   9  10
ENDBRANCH   8   9
ENDBRANCH   7   8
ENDBRANCH   6   7
ENDBRANCH   5   6
ENDBRANCH   4   5
ENDBRANCH   1   4
BRANCH   1  23
HETATM   23  C10 UNL     1       2.540 -33.143  15.958  1.00  0.00     0.309 C 
BRANCH  23  24
HETATM   24  C11 UNL     1       2.558 -34.029  17.154  1.00  0.00     0.123 A 
HETATM   25  N5  UNL     1       3.377 -34.044  18.196  1.00  0.00    -0.286 N 
HETATM   26  N6  UNL     1       3.020 -35.003  19.014  1.00  0.00    -0.283 N 
ATOM     27  H5  UNL     1       4.162 -33.408  18.338  1.00  0.00     0.188 HD
HETATM   28  C12 UNL     1       1.918 -35.674  18.522  1.00  0.00     0.134 A 
ATOM     29  H6  UNL     1       3.490 -35.224  19.892  1.00  0.00     0.188 HD
HETATM   30  N8  UNL     1       1.665 -35.044  17.377  1.00  0.00    -0.328 N 
ATOM     31  H8  UNL     1       0.903 -35.287  16.744  1.00  0.00     0.169 HD
BRANCH  28  32
HETATM   32  C13 UNL     1       1.282 -36.788  19.196  1.00  0.00     0.046 A 
HETATM   33  C14 UNL     1       0.598 -36.551  20.393  1.00  0.00     0.106 A 
HETATM   34  N7  UNL     1      -0.012 -37.542  21.068  1.00  0.00    -0.356 N 
HETATM   35  C15 UNL     1      -0.019 -38.815  20.662  1.00  0.00     0.104 A 
ATOM     36  H7  UNL     1      -0.497 -37.309  21.936  1.00  0.00     0.166 HD
HETATM   37 CL1  UNL     1      -0.833 -40.081  21.579  1.00  0.00    -0.065 Cl
HETATM   38  C16 UNL     1       0.640 -39.099  19.491  1.00  0.00     0.067 A 
HETATM   39  C17 UNL     1       1.286 -38.078  18.768  1.00  0.00     0.052 A 
HETATM   40 CL2  UNL     1       2.083 -38.584  17.298  1.00  0.00    -0.083 Cl
ENDBRANCH  28  32
ENDBRANCH  23  24
ENDBRANCH   1  23
TORSDOF 12
ENDMDL
