MODEL 1
REMARK VINA RESULT: -6.578396512      0.000      0.000
REMARK  15 active torsions:
REMARK  status: ('A' for Active; 'I' for Inactive)
REMARK    1  A    between atoms: O1_1  and  C1_3 
REMARK    2  A    between atoms: C3_5  and  C4_6 
REMARK    3  A    between atoms: C4_6  and  N1_7 
REMARK    4  A    between atoms: N1_7  and  C5_10 
REMARK    5  A    between atoms: C5_10  and  C6_11 
REMARK    6  A    between atoms: C6_11  and  C7_12 
REMARK    7  A    between atoms: C7_12  and  N2_13 
REMARK    8  A    between atoms: N2_13  and  C8_16 
REMARK    9  A    between atoms: C8_16  and  C9_17 
REMARK   10  A    between atoms: C9_17  and  C10_18 
REMARK   11  A    between atoms: C10_18  and  N3_19 
REMARK   12  A    between atoms: N3_19  and  C11_22 
REMARK   13  A    between atoms: C11_22  and  C12_23 
REMARK   14  A    between atoms: C12_23  and  N4_24 
REMARK   15  A    between atoms: N4_24  and  C13_26 
ROOT
HETATM    1  C8  UNL     1       1.025 -35.370  17.083  1.00  0.00     0.233 C 
ENDROOT
BRANCH   1   2
HETATM    2  N2  UNL     1       2.200 -35.339  17.908  1.00  0.00    -0.075 N 
ATOM      3  H22 UNL     1       2.833 -36.111  17.698  1.00  0.00     0.277 HD
ATOM      4  H21 UNL     1       1.990 -35.575  18.878  1.00  0.00     0.277 HD
BRANCH   2   5
HETATM    5  C7  UNL     1       2.859 -34.054  17.796  1.00  0.00     0.233 C 
BRANCH   5   6
HETATM    6  C6  UNL     1       2.463 -33.418  16.453  1.00  0.00     0.055 C 
BRANCH   6   7
HETATM    7  C5  UNL     1       2.225 -31.931  16.663  1.00  0.00     0.234 C 
BRANCH   7   8
HETATM    8  N1  UNL     1       1.019 -31.469  16.023  1.00  0.00    -0.071 N 
ATOM      9  H12 UNL     1       0.904 -31.884  15.099  1.00  0.00     0.277 HD
ATOM     10  H11 UNL     1       1.093 -30.490  15.748  1.00  0.00     0.277 HD
BRANCH   8  11
HETATM   11  C4  UNL     1      -0.125 -31.698  16.845  1.00  0.00     0.271 C 
BRANCH  11  12
HETATM   12  C3  UNL     1      -1.142 -32.495  16.035  1.00  0.00    -0.023 A 
HETATM   13  C2  UNL     1      -2.027 -33.317  16.633  1.00  0.00     0.053 A 
HETATM   14  C1  UNL     1      -2.904 -33.984  15.822  1.00  0.00     0.107 A 
HETATM   15  S1  UNL     1      -2.476 -33.455  14.263  1.00  0.00    -0.077 SA
HETATM   16  C18 UNL     1      -1.202 -32.403  14.669  1.00  0.00     0.061 A 
BRANCH  14  17
HETATM   17  O1  UNL     1      -3.918 -34.893  16.193  1.00  0.00    -0.354 OA
ATOM     18  H1  UNL     1      -3.853 -35.834  16.301  1.00  0.00     0.218 HD
ENDBRANCH  14  17
ENDBRANCH  11  12
ENDBRANCH   8  11
ENDBRANCH   7   8
ENDBRANCH   6   7
ENDBRANCH   5   6
ENDBRANCH   2   5
ENDBRANCH   1   2
BRANCH   1  19
HETATM   19  C9  UNL     1       0.545 -36.835  17.101  1.00  0.00     0.055 C 
BRANCH  19  20
HETATM   20  C10 UNL     1       1.652 -37.683  17.687  1.00  0.00     0.234 C 
BRANCH  20  21
HETATM   21  N3  UNL     1       1.099 -38.770  18.406  1.00  0.00    -0.074 N 
ATOM     22  H32 UNL     1       0.814 -39.519  17.775  1.00  0.00     0.277 HD
ATOM     23  H31 UNL     1       1.819 -39.263  18.934  1.00  0.00     0.277 HD
BRANCH  21  24
HETATM   24  C11 UNL     1       0.018 -38.379  19.259  1.00  0.00     0.251 C 
BRANCH  24  25
HETATM   25  C12 UNL     1       0.511 -38.055  20.638  1.00  0.00     0.148 C 
BRANCH  25  26
HETATM   26  N4  UNL     1      -0.185 -36.950  21.231  1.00  0.00    -0.373 N 
ATOM     27  H4  UNL     1      -0.983 -37.145  21.835  1.00  0.00     0.161 HD
BRANCH  26  28
HETATM   28  C13 UNL     1       0.185 -35.604  21.017  1.00  0.00     0.123 A 
HETATM   29  N5  UNL     1       1.307 -35.044  21.497  1.00  0.00    -0.350 N 
HETATM   30  C14 UNL     1       1.635 -33.759  21.283  1.00  0.00     0.113 A 
ATOM     31  H5  UNL     1       1.940 -35.621  22.049  1.00  0.00     0.166 HD
HETATM   32  C15 UNL     1       0.850 -32.897  20.553  1.00  0.00     0.051 A 
HETATM   33 CL1  UNL     1       1.260 -31.220  20.266  1.00  0.00    -0.083 Cl
HETATM   34  C16 UNL     1      -0.319 -33.432  20.037  1.00  0.00     0.053 A 
HETATM   35  C17 UNL     1      -0.634 -34.748  20.269  1.00  0.00     0.079 A 
HETATM   36 CL2  UNL     1      -2.122 -35.419  19.605  1.00  0.00    -0.080 Cl
ENDBRANCH  26  28
ENDBRANCH  25  26
ENDBRANCH  24  25
ENDBRANCH  21  24
ENDBRANCH  20  21
ENDBRANCH  19  20
ENDBRANCH   1  19
TORSDOF 15
ENDMDL
MODEL 2
REMARK VINA RESULT: -6.055813180      3.821      7.139
REMARK  15 active torsions:
REMARK  status: ('A' for Active; 'I' for Inactive)
REMARK    1  A    between atoms: O1_1  and  C1_3 
REMARK    2  A    between atoms: C3_5  and  C4_6 
REMARK    3  A    between atoms: C4_6  and  N1_7 
REMARK    4  A    between atoms: N1_7  and  C5_10 
REMARK    5  A    between atoms: C5_10  and  C6_11 
REMARK    6  A    between atoms: C6_11  and  C7_12 
REMARK    7  A    between atoms: C7_12  and  N2_13 
REMARK    8  A    between atoms: N2_13  and  C8_16 
REMARK    9  A    between atoms: C8_16  and  C9_17 
REMARK   10  A    between atoms: C9_17  and  C10_18 
REMARK   11  A    between atoms: C10_18  and  N3_19 
REMARK   12  A    between atoms: N3_19  and  C11_22 
REMARK   13  A    between atoms: C11_22  and  C12_23 
REMARK   14  A    between atoms: C12_23  and  N4_24 
REMARK   15  A    between atoms: N4_24  and  C13_26 
ROOT
HETATM    1  C8  UNL     1      -0.838 -35.111  16.788  1.00  0.00     0.233 C 
ENDROOT
BRANCH   1   2
HETATM    2  N2  UNL     1      -0.543 -35.748  18.040  1.00  0.00    -0.075 N 
ATOM      3  H22 UNL     1       0.459 -35.770  18.229  1.00  0.00     0.277 HD
ATOM      4  H21 UNL     1      -0.711 -36.754  18.005  1.00  0.00     0.277 HD
BRANCH   2   5
HETATM    5  C7  UNL     1      -1.282 -35.115  19.113  1.00  0.00     0.233 C 
BRANCH   5   6
HETATM    6  C6  UNL     1      -0.834 -35.736  20.446  1.00  0.00     0.055 C 
BRANCH   6   7
HETATM    7  C5  UNL     1      -1.063 -37.238  20.392  1.00  0.00     0.234 C 
BRANCH   7   8
HETATM    8  N1  UNL     1      -0.151 -37.966  21.237  1.00  0.00    -0.071 N 
ATOM      9  H12 UNL     1      -0.635 -38.677  21.784  1.00  0.00     0.277 HD
ATOM     10  H11 UNL     1       0.194 -37.387  22.001  1.00  0.00     0.277 HD
BRANCH   8  11
HETATM   11  C4  UNL     1       0.921 -38.528  20.481  1.00  0.00     0.271 C 
BRANCH  11  12
HETATM   12  C3  UNL     1       1.071 -39.992  20.881  1.00  0.00    -0.023 A 
HETATM   13  C2  UNL     1       2.148 -40.427  21.563  1.00  0.00     0.053 A 
HETATM   14  C1  UNL     1       2.189 -41.757  21.882  1.00  0.00     0.107 A 
HETATM   15  S1  UNL     1       0.740 -42.361  21.227  1.00  0.00    -0.077 SA
HETATM   16  C18 UNL     1       0.115 -40.923  20.567  1.00  0.00     0.061 A 
BRANCH  14  17
HETATM   17  O1  UNL     1       3.194 -42.456  22.584  1.00  0.00    -0.354 OA
ATOM     18  H1  UNL     1       3.090 -43.149  23.224  1.00  0.00     0.218 HD
ENDBRANCH  14  17
ENDBRANCH  11  12
ENDBRANCH   8  11
ENDBRANCH   7   8
ENDBRANCH   6   7
ENDBRANCH   5   6
ENDBRANCH   2   5
ENDBRANCH   1   2
BRANCH   1  19
HETATM   19  C9  UNL     1      -1.601 -33.820  17.150  1.00  0.00     0.055 C 
BRANCH  19  20
HETATM   20  C10 UNL     1      -2.344 -33.356  15.916  1.00  0.00     0.234 C 
BRANCH  20  21
HETATM   21  N3  UNL     1      -1.423 -32.937  14.926  1.00  0.00    -0.074 N 
ATOM     22  H32 UNL     1      -0.801 -33.701  14.659  1.00  0.00     0.277 HD
ATOM     23  H31 UNL     1      -1.891 -32.783  14.033  1.00  0.00     0.277 HD
BRANCH  21  24
HETATM   24  C11 UNL     1      -0.675 -31.781  15.317  1.00  0.00     0.251 C 
BRANCH  24  25
HETATM   25  C12 UNL     1       0.756 -31.894  14.882  1.00  0.00     0.148 C 
BRANCH  25  26
HETATM   26  N4  UNL     1       1.681 -31.533  15.917  1.00  0.00    -0.373 N 
ATOM     27  H4  UNL     1       2.212 -30.668  15.815  1.00  0.00     0.161 HD
BRANCH  26  28
HETATM   28  C13 UNL     1       1.890 -32.319  17.071  1.00  0.00     0.123 A 
HETATM   29  N5  UNL     1       2.570 -33.477  17.083  1.00  0.00    -0.350 N 
HETATM   30  C14 UNL     1       2.752 -34.210  18.193  1.00  0.00     0.113 A 
ATOM     31  H5  UNL     1       2.967 -33.816  16.207  1.00  0.00     0.166 HD
HETATM   32  C15 UNL     1       2.257 -33.842  19.423  1.00  0.00     0.051 A 
HETATM   33 CL1  UNL     1       2.483 -34.784  20.880  1.00  0.00    -0.083 Cl
HETATM   34  C16 UNL     1       1.549 -32.652  19.459  1.00  0.00     0.053 A 
HETATM   35  C17 UNL     1       1.376 -31.920  18.312  1.00  0.00     0.079 A 
HETATM   36 CL2  UNL     1       0.475 -30.406  18.370  1.00  0.00    -0.080 Cl
ENDBRANCH  26  28
ENDBRANCH  25  26
ENDBRANCH  24  25
ENDBRANCH  21  24
ENDBRANCH  20  21
ENDBRANCH  19  20
ENDBRANCH   1  19
TORSDOF 15
ENDMDL
MODEL 3
REMARK VINA RESULT: -5.974789879      4.076      7.476
REMARK  15 active torsions:
REMARK  status: ('A' for Active; 'I' for Inactive)
REMARK    1  A    between atoms: O1_1  and  C1_3 
REMARK    2  A    between atoms: C3_5  and  C4_6 
REMARK    3  A    between atoms: C4_6  and  N1_7 
REMARK    4  A    between atoms: N1_7  and  C5_10 
REMARK    5  A    between atoms: C5_10  and  C6_11 
REMARK    6  A    between atoms: C6_11  and  C7_12 
REMARK    7  A    between atoms: C7_12  and  N2_13 
REMARK    8  A    between atoms: N2_13  and  C8_16 
REMARK    9  A    between atoms: C8_16  and  C9_17 
REMARK   10  A    between atoms: C9_17  and  C10_18 
REMARK   11  A    between atoms: C10_18  and  N3_19 
REMARK   12  A    between atoms: N3_19  and  C11_22 
REMARK   13  A    between atoms: C11_22  and  C12_23 
REMARK   14  A    between atoms: C12_23  and  N4_24 
REMARK   15  A    between atoms: N4_24  and  C13_26 
ROOT
HETATM    1  C8  UNL     1       0.083 -34.552  20.707  1.00  0.00     0.233 C 
ENDROOT
BRANCH   1   2
HETATM    2  N2  UNL     1      -1.145 -34.253  20.027  1.00  0.00    -0.075 N 
ATOM      3  H22 UNL     1      -0.992 -33.668  19.205  1.00  0.00     0.277 HD
ATOM      4  H21 UNL     1      -1.729 -33.611  20.562  1.00  0.00     0.277 HD
BRANCH   2   5
HETATM    5  C7  UNL     1      -1.848 -35.476  19.697  1.00  0.00     0.233 C 
BRANCH   5   6
HETATM    6  C6  UNL     1      -0.825 -36.621  19.623  1.00  0.00     0.055 C 
BRANCH   6   7
HETATM    7  C5  UNL     1      -1.377 -37.824  20.370  1.00  0.00     0.234 C 
BRANCH   7   8
HETATM    8  N1  UNL     1      -0.438 -38.361  21.322  1.00  0.00    -0.071 N 
ATOM      9  H12 UNL     1      -0.543 -37.927  22.238  1.00  0.00     0.277 HD
ATOM     10  H11 UNL     1       0.515 -38.064  21.115  1.00  0.00     0.277 HD
BRANCH   8  11
HETATM   11  C4  UNL     1      -0.536 -39.783  21.403  1.00  0.00     0.271 C 
BRANCH  11  12
HETATM   12  C3  UNL     1       0.863 -40.368  21.242  1.00  0.00    -0.023 A 
HETATM   13  C2  UNL     1       1.365 -41.243  22.134  1.00  0.00     0.053 A 
HETATM   14  C1  UNL     1       2.627 -41.717  21.901  1.00  0.00     0.107 A 
HETATM   15  S1  UNL     1       3.077 -40.938  20.457  1.00  0.00    -0.077 SA
HETATM   16  C18 UNL     1       1.663 -40.032  20.181  1.00  0.00     0.061 A 
BRANCH  14  17
HETATM   17  O1  UNL     1       3.374 -42.632  22.674  1.00  0.00    -0.354 OA
ATOM     18  H1  UNL     1       3.984 -42.446  23.377  1.00  0.00     0.218 HD
ENDBRANCH  14  17
ENDBRANCH  11  12
ENDBRANCH   8  11
ENDBRANCH   7   8
ENDBRANCH   6   7
ENDBRANCH   5   6
ENDBRANCH   2   5
ENDBRANCH   1   2
BRANCH   1  19
HETATM   19  C9  UNL     1       0.624 -33.196  21.203  1.00  0.00     0.055 C 
BRANCH  19  20
HETATM   20  C10 UNL     1      -0.392 -32.131  20.853  1.00  0.00     0.234 C 
BRANCH  20  21
HETATM   21  N3  UNL     1       0.229 -30.859  20.832  1.00  0.00    -0.074 N 
ATOM     22  H32 UNL     1       0.061 -30.356  21.704  1.00  0.00     0.277 HD
ATOM     23  H31 UNL     1       1.245 -30.947  20.884  1.00  0.00     0.277 HD
BRANCH  21  24
HETATM   24  C11 UNL     1      -0.158 -30.070  19.703  1.00  0.00     0.251 C 
BRANCH  24  25
HETATM   25  C12 UNL     1       0.916 -30.067  18.655  1.00  0.00     0.148 C 
BRANCH  25  26
HETATM   26  N4  UNL     1       0.597 -30.900  17.532  1.00  0.00    -0.373 N 
ATOM     27  H4  UNL     1       0.081 -30.491  16.753  1.00  0.00     0.161 HD
BRANCH  26  28
HETATM   28  C13 UNL     1       0.965 -32.261  17.454  1.00  0.00     0.123 A 
HETATM   29  N5  UNL     1       2.130 -32.755  17.902  1.00  0.00    -0.350 N 
HETATM   30  C14 UNL     1       2.460 -34.054  17.813  1.00  0.00     0.113 A 
ATOM     31  H5  UNL     1       2.797 -32.114  18.331  1.00  0.00     0.166 HD
HETATM   32  C15 UNL     1       1.632 -34.999  17.252  1.00  0.00     0.051 A 
HETATM   33 CL1  UNL     1       2.045 -36.695  17.125  1.00  0.00    -0.083 Cl
HETATM   34  C16 UNL     1       0.417 -34.535  16.776  1.00  0.00     0.053 A 
HETATM   35  C17 UNL     1       0.102 -33.203  16.878  1.00  0.00     0.079 A 
HETATM   36 CL2  UNL     1      -1.447 -32.624  16.272  1.00  0.00    -0.080 Cl
ENDBRANCH  26  28
ENDBRANCH  25  26
ENDBRANCH  24  25
ENDBRANCH  21  24
ENDBRANCH  20  21
ENDBRANCH  19  20
ENDBRANCH   1  19
TORSDOF 15
ENDMDL
MODEL 4
REMARK VINA RESULT: -5.948464745      3.924      6.544
REMARK  15 active torsions:
REMARK  status: ('A' for Active; 'I' for Inactive)
REMARK    1  A    between atoms: O1_1  and  C1_3 
REMARK    2  A    between atoms: C3_5  and  C4_6 
REMARK    3  A    between atoms: C4_6  and  N1_7 
REMARK    4  A    between atoms: N1_7  and  C5_10 
REMARK    5  A    between atoms: C5_10  and  C6_11 
REMARK    6  A    between atoms: C6_11  and  C7_12 
REMARK    7  A    between atoms: C7_12  and  N2_13 
REMARK    8  A    between atoms: N2_13  and  C8_16 
REMARK    9  A    between atoms: C8_16  and  C9_17 
REMARK   10  A    between atoms: C9_17  and  C10_18 
REMARK   11  A    between atoms: C10_18  and  N3_19 
REMARK   12  A    between atoms: N3_19  and  C11_22 
REMARK   13  A    between atoms: C11_22  and  C12_23 
REMARK   14  A    between atoms: C12_23  and  N4_24 
REMARK   15  A    between atoms: N4_24  and  C13_26 
ROOT
HETATM    1  C8  UNL     1      -1.817 -34.223  17.520  1.00  0.00     0.233 C 
ENDROOT
BRANCH   1   2
HETATM    2  N2  UNL     1      -2.441 -34.473  18.789  1.00  0.00    -0.075 N 
ATOM      3  H22 UNL     1      -3.119 -35.233  18.736  1.00  0.00     0.277 HD
ATOM      4  H21 UNL     1      -3.077 -33.721  19.054  1.00  0.00     0.277 HD
BRANCH   2   5
HETATM    5  C7  UNL     1      -1.436 -34.713  19.803  1.00  0.00     0.233 C 
BRANCH   5   6
HETATM    6  C6  UNL     1      -1.469 -36.204  20.178  1.00  0.00     0.055 C 
BRANCH   6   7
HETATM    7  C5  UNL     1      -0.209 -36.544  20.959  1.00  0.00     0.234 C 
BRANCH   7   8
HETATM    8  N1  UNL     1      -0.096 -37.953  21.238  1.00  0.00    -0.071 N 
ATOM      9  H12 UNL     1      -0.992 -38.428  21.131  1.00  0.00     0.277 HD
ATOM     10  H11 UNL     1       0.056 -38.127  22.231  1.00  0.00     0.277 HD
BRANCH   8  11
HETATM   11  C4  UNL     1       0.917 -38.561  20.438  1.00  0.00     0.271 C 
BRANCH  11  12
HETATM   12  C3  UNL     1       1.052 -40.019  20.866  1.00  0.00    -0.023 A 
HETATM   13  C2  UNL     1       2.132 -40.455  21.542  1.00  0.00     0.053 A 
HETATM   14  C1  UNL     1       2.158 -41.779  21.888  1.00  0.00     0.107 A 
HETATM   15  S1  UNL     1       0.692 -42.375  21.265  1.00  0.00    -0.077 SA
HETATM   16  C18 UNL     1       0.078 -40.942  20.584  1.00  0.00     0.061 A 
BRANCH  14  17
HETATM   17  O1  UNL     1       3.162 -42.479  22.590  1.00  0.00    -0.354 OA
ATOM     18  H1  UNL     1       3.648 -43.246  22.313  1.00  0.00     0.218 HD
ENDBRANCH  14  17
ENDBRANCH  11  12
ENDBRANCH   8  11
ENDBRANCH   7   8
ENDBRANCH   6   7
ENDBRANCH   5   6
ENDBRANCH   2   5
ENDBRANCH   1   2
BRANCH   1  19
HETATM   19  C9  UNL     1      -2.378 -35.296  16.564  1.00  0.00     0.055 C 
BRANCH  19  20
HETATM   20  C10 UNL     1      -1.287 -36.313  16.312  1.00  0.00     0.234 C 
BRANCH  20  21
HETATM   21  N3  UNL     1      -0.017 -35.718  16.512  1.00  0.00    -0.074 N 
ATOM     22  H32 UNL     1       0.372 -35.382  15.631  1.00  0.00     0.277 HD
ATOM     23  H31 UNL     1      -0.104 -34.829  17.005  1.00  0.00     0.277 HD
BRANCH  21  24
HETATM   24  C11 UNL     1       0.903 -36.587  17.180  1.00  0.00     0.251 C 
BRANCH  24  25
HETATM   25  C12 UNL     1       1.821 -35.810  18.078  1.00  0.00     0.148 C 
BRANCH  25  26
HETATM   26  N4  UNL     1       2.150 -34.517  17.549  1.00  0.00    -0.373 N 
ATOM     27  H4  UNL     1       2.654 -34.467  16.664  1.00  0.00     0.161 HD
BRANCH  26  28
HETATM   28  C13 UNL     1       1.809 -33.311  18.199  1.00  0.00     0.123 A 
HETATM   29  N5  UNL     1       1.820 -33.140  19.531  1.00  0.00    -0.350 N 
HETATM   30  C14 UNL     1       1.487 -31.984  20.126  1.00  0.00     0.113 A 
ATOM     31  H5  UNL     1       2.096 -33.927  20.118  1.00  0.00     0.166 HD
HETATM   32  C15 UNL     1       1.101 -30.865  19.424  1.00  0.00     0.051 A 
HETATM   33 CL1  UNL     1       0.662 -29.350  20.182  1.00  0.00    -0.083 Cl
HETATM   34  C16 UNL     1       1.074 -30.994  18.045  1.00  0.00     0.053 A 
HETATM   35  C17 UNL     1       1.419 -32.186  17.459  1.00  0.00     0.079 A 
HETATM   36 CL2  UNL     1       1.385 -32.338  15.705  1.00  0.00    -0.080 Cl
ENDBRANCH  26  28
ENDBRANCH  25  26
ENDBRANCH  24  25
ENDBRANCH  21  24
ENDBRANCH  20  21
ENDBRANCH  19  20
ENDBRANCH   1  19
TORSDOF 15
ENDMDL
MODEL 5
REMARK VINA RESULT: -5.916165546      2.826      4.610
REMARK  15 active torsions:
REMARK  status: ('A' for Active; 'I' for Inactive)
REMARK    1  A    between atoms: O1_1  and  C1_3 
REMARK    2  A    between atoms: C3_5  and  C4_6 
REMARK    3  A    between atoms: C4_6  and  N1_7 
REMARK    4  A    between atoms: N1_7  and  C5_10 
REMARK    5  A    between atoms: C5_10  and  C6_11 
REMARK    6  A    between atoms: C6_11  and  C7_12 
REMARK    7  A    between atoms: C7_12  and  N2_13 
REMARK    8  A    between atoms: N2_13  and  C8_16 
REMARK    9  A    between atoms: C8_16  and  C9_17 
REMARK   10  A    between atoms: C9_17  and  C10_18 
REMARK   11  A    between atoms: C10_18  and  N3_19 
REMARK   12  A    between atoms: N3_19  and  C11_22 
REMARK   13  A    between atoms: C11_22  and  C12_23 
REMARK   14  A    between atoms: C12_23  and  N4_24 
REMARK   15  A    between atoms: N4_24  and  C13_26 
ROOT
HETATM    1  C8  UNL     1       1.410 -32.329  20.161  1.00  0.00     0.233 C 
ENDROOT
BRANCH   1   2
HETATM    2  N2  UNL     1       1.621 -32.124  18.756  1.00  0.00    -0.075 N 
ATOM      3  H22 UNL     1       2.124 -31.257  18.569  1.00  0.00     0.277 HD
ATOM      4  H21 UNL     1       0.753 -31.902  18.270  1.00  0.00     0.277 HD
BRANCH   2   5
HETATM    5  C7  UNL     1       2.287 -33.272  18.176  1.00  0.00     0.233 C 
BRANCH   5   6
HETATM    6  C6  UNL     1       2.550 -32.982  16.689  1.00  0.00     0.055 C 
BRANCH   6   7
HETATM    7  C5  UNL     1       1.780 -31.734  16.286  1.00  0.00     0.234 C 
BRANCH   7   8
HETATM    8  N1  UNL     1       0.675 -32.027  15.409  1.00  0.00    -0.071 N 
ATOM      9  H12 UNL     1       0.611 -33.025  15.209  1.00  0.00     0.277 HD
ATOM     10  H11 UNL     1       0.849 -31.689  14.463  1.00  0.00     0.277 HD
BRANCH   8  11
HETATM   11  C4  UNL     1      -0.551 -31.517  15.930  1.00  0.00     0.271 C 
BRANCH  11  12
HETATM   12  C3  UNL     1      -1.524 -32.682  16.087  1.00  0.00    -0.023 A 
HETATM   13  C2  UNL     1      -1.488 -33.486  17.167  1.00  0.00     0.053 A 
HETATM   14  C1  UNL     1      -2.406 -34.499  17.220  1.00  0.00     0.107 A 
HETATM   15  S1  UNL     1      -3.285 -34.307  15.777  1.00  0.00    -0.077 SA
HETATM   16  C18 UNL     1      -2.477 -32.953  15.140  1.00  0.00     0.061 A 
BRANCH  14  17
HETATM   17  O1  UNL     1      -2.577 -35.470  18.231  1.00  0.00    -0.354 OA
ATOM     18  H1  UNL     1      -2.002 -36.190  18.458  1.00  0.00     0.218 HD
ENDBRANCH  14  17
ENDBRANCH  11  12
ENDBRANCH   8  11
ENDBRANCH   7   8
ENDBRANCH   6   7
ENDBRANCH   5   6
ENDBRANCH   2   5
ENDBRANCH   1   2
BRANCH   1  19
HETATM   19  C9  UNL     1       1.882 -33.770  20.446  1.00  0.00     0.055 C 
BRANCH  19  20
HETATM   20  C10 UNL     1       1.077 -34.303  21.611  1.00  0.00     0.234 C 
BRANCH  20  21
HETATM   21  N3  UNL     1       0.736 -35.658  21.382  1.00  0.00    -0.074 N 
ATOM     22  H32 UNL     1       1.420 -36.284  21.810  1.00  0.00     0.277 HD
ATOM     23  H31 UNL     1      -0.090 -35.923  21.919  1.00  0.00     0.277 HD
BRANCH  21  24
HETATM   24  C11 UNL     1       0.563 -35.960  19.994  1.00  0.00     0.251 C 
BRANCH  24  25
HETATM   25  C12 UNL     1       0.896 -37.395  19.711  1.00  0.00     0.148 C 
BRANCH  25  26
HETATM   26  N4  UNL     1       0.689 -38.248  20.845  1.00  0.00    -0.373 N 
ATOM     27  H4  UNL     1       1.408 -38.281  21.567  1.00  0.00     0.161 HD
BRANCH  26  28
HETATM   28  C13 UNL     1      -0.466 -39.043  21.010  1.00  0.00     0.123 A 
HETATM   29  N5  UNL     1      -1.704 -38.659  20.659  1.00  0.00    -0.350 N 
HETATM   30  C14 UNL     1      -2.789 -39.431  20.829  1.00  0.00     0.113 A 
ATOM     31  H5  UNL     1      -1.827 -37.736  20.243  1.00  0.00     0.166 HD
HETATM   32  C15 UNL     1      -2.732 -40.691  21.381  1.00  0.00     0.051 A 
HETATM   33 CL1  UNL     1      -4.134 -41.712  21.612  1.00  0.00    -0.083 Cl
HETATM   34  C16 UNL     1      -1.474 -41.130  21.758  1.00  0.00     0.053 A 
HETATM   35  C17 UNL     1      -0.380 -40.323  21.574  1.00  0.00     0.079 A 
HETATM   36 CL2  UNL     1       1.217 -40.893  22.055  1.00  0.00    -0.080 Cl
ENDBRANCH  26  28
ENDBRANCH  25  26
ENDBRANCH  24  25
ENDBRANCH  21  24
ENDBRANCH  20  21
ENDBRANCH  19  20
ENDBRANCH   1  19
TORSDOF 15
ENDMDL
