MODEL 1
REMARK VINA RESULT: -8.782566927      0.000      0.000
REMARK  14 active torsions:
REMARK  status: ('A' for Active; 'I' for Inactive)
REMARK    1  A    between atoms: C2_2  and  C3_3 
REMARK    2  A    between atoms: C3_3  and  C4_4 
REMARK       I    between atoms: N1_10  and  C10_12 
REMARK    3  A    between atoms: C10_12  and  C11_14 
REMARK    4  A    between atoms: N2_18  and  C15_19 
REMARK    5  A    between atoms: C15_19  and  C16_20 
REMARK    6  A    between atoms: C15_19  and  C28_40 
REMARK    7  A    between atoms: C16_20  and  C17_21 
REMARK    8  A    between atoms: C17_21  and  C18_22 
REMARK    9  A    between atoms: C18_22  and  N3_23 
REMARK       I    between atoms: N3_23  and  C19_25 
REMARK   10  A    between atoms: C19_25  and  C20_27 
REMARK   11  A    between atoms: C20_27  and  C25_37 
REMARK       I    between atoms: N4_28  and  C21_30 
REMARK   12  A    between atoms: C21_30  and  C22_32 
REMARK   13  A    between atoms: C22_32  and  C23_33 
REMARK   14  A    between atoms: C23_33  and  C24_34 
ROOT
HETATM    1  C15 UNL     1      28.433   8.962  11.270  1.00  0.00     0.312 C 
ENDROOT
BRANCH   1   2
HETATM    2  N2  UNL     1      27.443   8.937  12.367  1.00  0.00     0.115 N 
HETATM    3  C11 UNL     1      26.330   8.093  12.130  1.00  0.00     0.315 A 
HETATM    4  C12 UNL     1      25.086   8.829  12.520  1.00  0.00     0.047 A 
HETATM    5  C13 UNL     1      25.544  10.197  12.932  1.00  0.00     0.033 A 
HETATM    6  C14 UNL     1      27.030  10.232  12.779  1.00  0.00     0.275 A 
BRANCH   3   7
HETATM    7  C10 UNL     1      26.428   6.920  13.078  1.00  0.00     0.255 C 
HETATM    8  N1  UNL     1      27.534   6.732  13.932  1.00  0.00    -0.333 N 
HETATM    9  C2  UNL     1      27.927   5.609  14.433  1.00  0.00    -0.014 C 
ATOM     10  H1  UNL     1      28.075   7.561  14.177  1.00  0.00     0.168 HD
HETATM   11  C1  UNL     1      27.198   4.342  14.130  1.00  0.00     0.063 C 
HETATM   12  O1  UNL     1      25.491   6.093  13.105  1.00  0.00    -0.271 OA
BRANCH   9  13
HETATM   13  C3  UNL     1      29.104   5.566  15.300  1.00  0.00     0.056 C 
BRANCH  13  14
HETATM   14  C4  UNL     1      30.401   5.869  14.626  1.00  0.00    -0.009 C 
HETATM   15  C5  UNL     1      31.061   4.656  14.092  1.00  0.00     0.005 C 
HETATM   16  C6  UNL     1      32.399   5.012  13.465  1.00  0.00     0.000 C 
HETATM   17  C7  UNL     1      32.670   6.491  13.549  1.00  0.00     0.000 C 
HETATM   18  C8  UNL     1      32.588   6.977  14.985  1.00  0.00     0.000 C 
HETATM   19  C9  UNL     1      31.302   6.592  15.632  1.00  0.00     0.005 C 
ENDBRANCH  13  14
ENDBRANCH   9  13
ENDBRANCH   3   7
ENDBRANCH   1   2
BRANCH   1  20
HETATM   20  C16 UNL     1      28.236  10.218  10.515  1.00  0.00     0.047 C 
BRANCH  20  21
HETATM   21  C17 UNL     1      27.653  10.165   9.140  1.00  0.00     0.022 C 
BRANCH  21  22
HETATM   22  C18 UNL     1      27.449   8.744   8.724  1.00  0.00     0.123 C 
BRANCH  22  23
HETATM   23  N3  UNL     1      28.469   8.222   7.886  1.00  0.00    -0.356 N 
HETATM   24  C19 UNL     1      29.234   7.039   8.052  1.00  0.00     0.264 C 
HETATM   25  O2  UNL     1      28.949   6.359   9.092  1.00  0.00    -0.266 OA
ATOM     26  H3  UNL     1      28.680   8.770   7.053  1.00  0.00     0.162 HD
BRANCH  24  27
HETATM   27  C20 UNL     1      30.267   6.608   7.133  1.00  0.00     0.083 C 
HETATM   28  N4  UNL     1      30.178   6.599   5.904  1.00  0.00    -0.326 N 
HETATM   29  C21 UNL     1      29.286   6.909   4.916  1.00  0.00     0.222 C 
ATOM     30  H4  UNL     1      31.044   6.248   5.495  1.00  0.00     0.168 HD
HETATM   31  O3  UNL     1      28.057   6.692   5.012  1.00  0.00    -0.273 OA
BRANCH  29  32
HETATM   32  C22 UNL     1      29.741   7.539   3.627  1.00  0.00     0.112 C 
BRANCH  32  33
HETATM   33  C23 UNL     1      30.176   8.975   3.891  1.00  0.00     0.109 C 
BRANCH  33  34
HETATM   34  C24 UNL     1      28.994   9.817   4.202  1.00  0.00     0.231 C 
HETATM   35  N5  UNL     1      28.873  10.422   5.460  1.00  0.00    -0.062 NA
HETATM   36  O4  UNL     1      28.107   9.981   3.334  1.00  0.00    -0.277 OA
ENDBRANCH  33  34
ENDBRANCH  32  33
ENDBRANCH  29  32
BRANCH  27  37
HETATM   37  C25 UNL     1      31.586   6.153   7.721  1.00  0.00     0.033 C 
HETATM   38  C26 UNL     1      32.744   6.737   6.976  1.00  0.00     0.016 C 
HETATM   39  C27 UNL     1      31.640   4.649   7.853  1.00  0.00     0.016 C 
ENDBRANCH  27  37
ENDBRANCH  24  27
ENDBRANCH  22  23
ENDBRANCH  21  22
ENDBRANCH  20  21
ENDBRANCH   1  20
BRANCH   1  40
HETATM   40  C28 UNL     1      29.777   8.730  11.802  1.00  0.00     0.264 C 
HETATM   41  N6  UNL     1      30.923   8.493  11.004  1.00  0.00    -0.060 NA
HETATM   42  O5  UNL     1      29.963   8.732  13.039  1.00  0.00    -0.274 OA
ENDBRANCH   1  40
TORSDOF 14
ENDMDL
MODEL 2
REMARK VINA RESULT: -8.417570341      1.422      2.222
REMARK  14 active torsions:
REMARK  status: ('A' for Active; 'I' for Inactive)
REMARK    1  A    between atoms: C2_2  and  C3_3 
REMARK    2  A    between atoms: C3_3  and  C4_4 
REMARK       I    between atoms: N1_10  and  C10_12 
REMARK    3  A    between atoms: C10_12  and  C11_14 
REMARK    4  A    between atoms: N2_18  and  C15_19 
REMARK    5  A    between atoms: C15_19  and  C16_20 
REMARK    6  A    between atoms: C15_19  and  C28_40 
REMARK    7  A    between atoms: C16_20  and  C17_21 
REMARK    8  A    between atoms: C17_21  and  C18_22 
REMARK    9  A    between atoms: C18_22  and  N3_23 
REMARK       I    between atoms: N3_23  and  C19_25 
REMARK   10  A    between atoms: C19_25  and  C20_27 
REMARK   11  A    between atoms: C20_27  and  C25_37 
REMARK       I    between atoms: N4_28  and  C21_30 
REMARK   12  A    between atoms: C21_30  and  C22_32 
REMARK   13  A    between atoms: C22_32  and  C23_33 
REMARK   14  A    between atoms: C23_33  and  C24_34 
ROOT
HETATM    1  C15 UNL     1      28.806   8.614  11.023  1.00  0.00     0.312 C 
ENDROOT
BRANCH   1   2
HETATM    2  N2  UNL     1      27.868   8.739  12.159  1.00  0.00     0.115 N 
HETATM    3  C11 UNL     1      26.638   8.062  11.978  1.00  0.00     0.315 A 
HETATM    4  C12 UNL     1      25.529   8.973  12.408  1.00  0.00     0.047 A 
HETATM    5  C13 UNL     1      26.195  10.263  12.783  1.00  0.00     0.033 A 
HETATM    6  C14 UNL     1      27.663  10.083  12.571  1.00  0.00     0.275 A 
BRANCH   3   7
HETATM    7  C10 UNL     1      26.606   6.894  12.937  1.00  0.00     0.255 C 
HETATM    8  N1  UNL     1      27.685   6.591  13.791  1.00  0.00    -0.333 N 
HETATM    9  C2  UNL     1      27.951   5.436  14.302  1.00  0.00    -0.014 C 
ATOM     10  H1  UNL     1      28.316   7.357  14.028  1.00  0.00     0.168 HD
HETATM   11  C1  UNL     1      27.086   4.256  14.011  1.00  0.00     0.063 C 
HETATM   12  O1  UNL     1      25.582   6.177  12.971  1.00  0.00    -0.271 OA
BRANCH   9  13
HETATM   13  C3  UNL     1      29.118   5.270  15.169  1.00  0.00     0.056 C 
BRANCH  13  14
HETATM   14  C4  UNL     1      30.409   5.752  14.595  1.00  0.00    -0.009 C 
HETATM   15  C5  UNL     1      31.150   4.684  13.887  1.00  0.00     0.005 C 
HETATM   16  C6  UNL     1      32.478   5.213  13.370  1.00  0.00     0.000 C 
HETATM   17  C7  UNL     1      32.660   6.669  13.709  1.00  0.00     0.000 C 
HETATM   18  C8  UNL     1      32.519   6.900  15.203  1.00  0.00     0.000 C 
HETATM   19  C9  UNL     1      31.244   6.343  15.736  1.00  0.00     0.005 C 
ENDBRANCH  13  14
ENDBRANCH   9  13
ENDBRANCH   3   7
ENDBRANCH   1   2
BRANCH   1  20
HETATM   20  C16 UNL     1      29.687   7.456  11.293  1.00  0.00     0.047 C 
BRANCH  20  21
HETATM   21  C17 UNL     1      31.043   7.405  10.668  1.00  0.00     0.022 C 
BRANCH  21  22
HETATM   22  C18 UNL     1      31.061   6.397   9.564  1.00  0.00     0.123 C 
BRANCH  22  23
HETATM   23  N3  UNL     1      31.401   6.923   8.290  1.00  0.00    -0.356 N 
HETATM   24  C19 UNL     1      31.971   6.255   7.177  1.00  0.00     0.264 C 
HETATM   25  O2  UNL     1      32.193   5.012   7.356  1.00  0.00    -0.266 OA
ATOM     26  H3  UNL     1      31.208   7.916   8.157  1.00  0.00     0.162 HD
BRANCH  24  27
HETATM   27  C20 UNL     1      32.290   6.901   5.921  1.00  0.00     0.083 C 
HETATM   28  N4  UNL     1      31.623   6.832   4.887  1.00  0.00    -0.326 N 
HETATM   29  C21 UNL     1      30.475   6.257   4.417  1.00  0.00     0.222 C 
ATOM     30  H4  UNL     1      32.068   7.376   4.148  1.00  0.00     0.168 HD
HETATM   31  O3  UNL     1      30.108   5.104   4.737  1.00  0.00    -0.273 OA
BRANCH  29  32
HETATM   32  C22 UNL     1      29.571   6.991   3.464  1.00  0.00     0.112 C 
BRANCH  32  33
HETATM   33  C23 UNL     1      29.925   8.473   3.469  1.00  0.00     0.109 C 
BRANCH  33  34
HETATM   34  C24 UNL     1      28.798   9.264   4.025  1.00  0.00     0.231 C 
HETATM   35  N5  UNL     1      28.591   9.314   5.411  1.00  0.00    -0.062 NA
HETATM   36  O4  UNL     1      28.036   9.882   3.249  1.00  0.00    -0.277 OA
ENDBRANCH  33  34
ENDBRANCH  32  33
ENDBRANCH  29  32
BRANCH  27  37
HETATM   37  C25 UNL     1      33.535   7.761   5.868  1.00  0.00     0.033 C 
HETATM   38  C26 UNL     1      33.284   9.036   5.128  1.00  0.00     0.016 C 
HETATM   39  C27 UNL     1      34.722   6.980   5.356  1.00  0.00     0.016 C 
ENDBRANCH  27  37
ENDBRANCH  24  27
ENDBRANCH  22  23
ENDBRANCH  21  22
ENDBRANCH  20  21
ENDBRANCH   1  20
BRANCH   1  40
HETATM   40  C28 UNL     1      28.063   8.583   9.762  1.00  0.00     0.264 C 
HETATM   41  N6  UNL     1      27.612   9.734   9.072  1.00  0.00    -0.060 NA
HETATM   42  O5  UNL     1      27.791   7.484   9.230  1.00  0.00    -0.274 OA
ENDBRANCH   1  40
TORSDOF 14
ENDMDL
MODEL 3
REMARK VINA RESULT: -8.343805305      1.335      1.538
REMARK  14 active torsions:
REMARK  status: ('A' for Active; 'I' for Inactive)
REMARK    1  A    between atoms: C2_2  and  C3_3 
REMARK    2  A    between atoms: C3_3  and  C4_4 
REMARK       I    between atoms: N1_10  and  C10_12 
REMARK    3  A    between atoms: C10_12  and  C11_14 
REMARK    4  A    between atoms: N2_18  and  C15_19 
REMARK    5  A    between atoms: C15_19  and  C16_20 
REMARK    6  A    between atoms: C15_19  and  C28_40 
REMARK    7  A    between atoms: C16_20  and  C17_21 
REMARK    8  A    between atoms: C17_21  and  C18_22 
REMARK    9  A    between atoms: C18_22  and  N3_23 
REMARK       I    between atoms: N3_23  and  C19_25 
REMARK   10  A    between atoms: C19_25  and  C20_27 
REMARK   11  A    between atoms: C20_27  and  C25_37 
REMARK       I    between atoms: N4_28  and  C21_30 
REMARK   12  A    between atoms: C21_30  and  C22_32 
REMARK   13  A    between atoms: C22_32  and  C23_33 
REMARK   14  A    between atoms: C23_33  and  C24_34 
ROOT
HETATM    1  C15 UNL     1      28.824   8.875  11.821  1.00  0.00     0.312 C 
ENDROOT
BRANCH   1   2
HETATM    2  N2  UNL     1      27.657   8.818  12.726  1.00  0.00     0.115 N 
HETATM    3  C11 UNL     1      26.682   7.858  12.362  1.00  0.00     0.315 A 
HETATM    4  C12 UNL     1      25.329   8.491  12.471  1.00  0.00     0.047 A 
HETATM    5  C13 UNL     1      25.587   9.918  12.852  1.00  0.00     0.033 A 
HETATM    6  C14 UNL     1      27.067  10.089  12.961  1.00  0.00     0.275 A 
BRANCH   3   7
HETATM    7  C10 UNL     1      26.706   6.757  13.399  1.00  0.00     0.255 C 
HETATM    8  N1  UNL     1      27.889   6.373  14.062  1.00  0.00    -0.333 N 
HETATM    9  C2  UNL     1      28.119   5.224  14.603  1.00  0.00    -0.014 C 
ATOM     10  H1  UNL     1      28.634   7.068  14.118  1.00  0.00     0.168 HD
HETATM   11  C1  UNL     1      27.090   4.145  14.570  1.00  0.00     0.063 C 
HETATM   12  O1  UNL     1      25.635   6.175  13.676  1.00  0.00    -0.271 OA
BRANCH   9  13
HETATM   13  C3  UNL     1      29.405   4.965  15.252  1.00  0.00     0.056 C 
BRANCH  13  14
HETATM   14  C4  UNL     1      30.596   5.523  14.546  1.00  0.00    -0.009 C 
HETATM   15  C5  UNL     1      31.368   4.484  13.827  1.00  0.00     0.005 C 
HETATM   16  C6  UNL     1      32.596   5.095  13.171  1.00  0.00     0.000 C 
HETATM   17  C7  UNL     1      32.676   6.577  13.424  1.00  0.00     0.000 C 
HETATM   18  C8  UNL     1      32.638   6.877  14.912  1.00  0.00     0.000 C 
HETATM   19  C9  UNL     1      31.467   6.244  15.580  1.00  0.00     0.005 C 
ENDBRANCH  13  14
ENDBRANCH   9  13
ENDBRANCH   3   7
ENDBRANCH   1   2
BRANCH   1  20
HETATM   20  C16 UNL     1      28.495   9.807  10.721  1.00  0.00     0.047 C 
BRANCH  20  21
HETATM   21  C17 UNL     1      27.997   9.263   9.422  1.00  0.00     0.022 C 
BRANCH  21  22
HETATM   22  C18 UNL     1      28.466   7.856   9.241  1.00  0.00     0.123 C 
BRANCH  22  23
HETATM   23  N3  UNL     1      29.144   7.612   8.018  1.00  0.00    -0.356 N 
HETATM   24  C19 UNL     1      29.846   6.449   7.609  1.00  0.00     0.264 C 
HETATM   25  O2  UNL     1      29.851   5.500   8.461  1.00  0.00    -0.266 OA
ATOM     26  H3  UNL     1      29.123   8.375   7.341  1.00  0.00     0.162 HD
BRANCH  24  27
HETATM   27  C20 UNL     1      30.517   6.315   6.333  1.00  0.00     0.083 C 
HETATM   28  N4  UNL     1      30.062   6.663   5.242  1.00  0.00    -0.326 N 
HETATM   29  C21 UNL     1      28.943   7.237   4.708  1.00  0.00     0.222 C 
ATOM     30  H4  UNL     1      30.735   6.457   4.502  1.00  0.00     0.168 HD
HETATM   31  O3  UNL     1      27.786   6.988   5.116  1.00  0.00    -0.273 OA
BRANCH  29  32
HETATM   32  C22 UNL     1      29.038   8.220   3.572  1.00  0.00     0.112 C 
BRANCH  32  33
HETATM   33  C23 UNL     1      29.662   7.536   2.362  1.00  0.00     0.109 C 
BRANCH  33  34
HETATM   34  C24 UNL     1      30.971   8.160   2.043  1.00  0.00     0.231 C 
HETATM   35  N5  UNL     1      31.833   7.552   1.120  1.00  0.00    -0.062 NA
HETATM   36  O4  UNL     1      31.299   9.229   2.605  1.00  0.00    -0.277 OA
ENDBRANCH  33  34
ENDBRANCH  32  33
ENDBRANCH  29  32
BRANCH  27  37
HETATM   37  C25 UNL     1      31.911   5.724   6.329  1.00  0.00     0.033 C 
HETATM   38  C26 UNL     1      32.895   6.646   6.974  1.00  0.00     0.016 C 
HETATM   39  C27 UNL     1      32.312   5.271   4.945  1.00  0.00     0.016 C 
ENDBRANCH  27  37
ENDBRANCH  24  27
ENDBRANCH  22  23
ENDBRANCH  21  22
ENDBRANCH  20  21
ENDBRANCH   1  20
BRANCH   1  40
HETATM   40  C28 UNL     1      30.036   9.175  12.584  1.00  0.00     0.264 C 
HETATM   41  N6  UNL     1      31.213   9.733  12.028  1.00  0.00    -0.060 NA
HETATM   42  O5  UNL     1      30.071   8.936  13.812  1.00  0.00    -0.274 OA
ENDBRANCH   1  40
TORSDOF 14
ENDMDL
MODEL 4
REMARK VINA RESULT: -8.317877621      1.902      2.797
REMARK  14 active torsions:
REMARK  status: ('A' for Active; 'I' for Inactive)
REMARK    1  A    between atoms: C2_2  and  C3_3 
REMARK    2  A    between atoms: C3_3  and  C4_4 
REMARK       I    between atoms: N1_10  and  C10_12 
REMARK    3  A    between atoms: C10_12  and  C11_14 
REMARK    4  A    between atoms: N2_18  and  C15_19 
REMARK    5  A    between atoms: C15_19  and  C16_20 
REMARK    6  A    between atoms: C15_19  and  C28_40 
REMARK    7  A    between atoms: C16_20  and  C17_21 
REMARK    8  A    between atoms: C17_21  and  C18_22 
REMARK    9  A    between atoms: C18_22  and  N3_23 
REMARK       I    between atoms: N3_23  and  C19_25 
REMARK   10  A    between atoms: C19_25  and  C20_27 
REMARK   11  A    between atoms: C20_27  and  C25_37 
REMARK       I    between atoms: N4_28  and  C21_30 
REMARK   12  A    between atoms: C21_30  and  C22_32 
REMARK   13  A    between atoms: C22_32  and  C23_33 
REMARK   14  A    between atoms: C23_33  and  C24_34 
ROOT
HETATM    1  C15 UNL     1      25.625  10.206  10.219  1.00  0.00     0.312 C 
ENDROOT
BRANCH   1   2
HETATM    2  N2  UNL     1      25.798  10.608  11.631  1.00  0.00     0.115 N 
HETATM    3  C11 UNL     1      25.669   9.546  12.560  1.00  0.00     0.315 A 
HETATM    4  C12 UNL     1      24.810  10.012  13.694  1.00  0.00     0.047 A 
HETATM    5  C13 UNL     1      24.381  11.401  13.326  1.00  0.00     0.033 A 
HETATM    6  C14 UNL     1      24.993  11.718  12.000  1.00  0.00     0.275 A 
BRANCH   3   7
HETATM    7  C10 UNL     1      27.033   9.284  13.156  1.00  0.00     0.255 C 
HETATM    8  N1  UNL     1      27.508   7.980  13.405  1.00  0.00    -0.333 N 
HETATM    9  C2  UNL     1      28.410   7.651  14.267  1.00  0.00    -0.014 C 
ATOM     10  H1  UNL     1      27.101   7.226  12.851  1.00  0.00     0.168 HD
HETATM   11  C1  UNL     1      29.061   8.684  15.124  1.00  0.00     0.063 C 
HETATM   12  O1  UNL     1      27.762  10.261  13.432  1.00  0.00    -0.271 OA
BRANCH   9  13
HETATM   13  C3  UNL     1      28.797   6.248  14.421  1.00  0.00     0.056 C 
BRANCH  13  14
HETATM   14  C4  UNL     1      30.160   5.906  13.919  1.00  0.00    -0.009 C 
HETATM   15  C5  UNL     1      30.162   5.539  12.485  1.00  0.00     0.005 C 
HETATM   16  C6  UNL     1      31.561   5.149  12.039  1.00  0.00     0.000 C 
HETATM   17  C7  UNL     1      32.550   5.258  13.170  1.00  0.00     0.000 C 
HETATM   18  C8  UNL     1      32.103   4.434  14.363  1.00  0.00     0.000 C 
HETATM   19  C9  UNL     1      30.713   4.767  14.783  1.00  0.00     0.005 C 
ENDBRANCH  13  14
ENDBRANCH   9  13
ENDBRANCH   3   7
ENDBRANCH   1   2
BRANCH   1  20
HETATM   20  C16 UNL     1      26.338   8.924  10.026  1.00  0.00     0.047 C 
BRANCH  20  21
HETATM   21  C17 UNL     1      27.787   8.937   9.665  1.00  0.00     0.022 C 
BRANCH  21  22
HETATM   22  C18 UNL     1      28.409   7.617   9.989  1.00  0.00     0.123 C 
BRANCH  22  23
HETATM   23  N3  UNL     1      28.763   6.837   8.857  1.00  0.00    -0.356 N 
HETATM   24  C19 UNL     1      30.024   6.720   8.218  1.00  0.00     0.264 C 
HETATM   25  O2  UNL     1      30.958   7.406   8.750  1.00  0.00    -0.266 OA
ATOM     26  H3  UNL     1      28.009   6.286   8.447  1.00  0.00     0.162 HD
BRANCH  24  27
HETATM   27  C20 UNL     1      30.268   5.898   7.051  1.00  0.00     0.083 C 
HETATM   28  N4  UNL     1      29.792   6.084   5.930  1.00  0.00    -0.326 N 
HETATM   29  C21 UNL     1      28.964   6.950   5.273  1.00  0.00     0.222 C 
ATOM     30  H4  UNL     1      30.122   5.362   5.288  1.00  0.00     0.168 HD
HETATM   31  O3  UNL     1      27.939   7.443   5.794  1.00  0.00    -0.273 OA
BRANCH  29  32
HETATM   32  C22 UNL     1      29.241   7.366   3.853  1.00  0.00     0.112 C 
BRANCH  32  33
HETATM   33  C23 UNL     1      29.960   8.709   3.850  1.00  0.00     0.109 C 
BRANCH  33  34
HETATM   34  C24 UNL     1      28.975   9.814   3.963  1.00  0.00     0.231 C 
HETATM   35  N5  UNL     1      29.081  10.746   5.005  1.00  0.00    -0.062 NA
HETATM   36  O4  UNL     1      28.051   9.907   3.124  1.00  0.00    -0.277 OA
ENDBRANCH  33  34
ENDBRANCH  32  33
ENDBRANCH  29  32
BRANCH  27  37
HETATM   37  C25 UNL     1      31.209   4.722   7.203  1.00  0.00     0.033 C 
HETATM   38  C26 UNL     1      31.025   4.045   8.524  1.00  0.00     0.016 C 
HETATM   39  C27 UNL     1      32.637   5.119   6.912  1.00  0.00     0.016 C 
ENDBRANCH  27  37
ENDBRANCH  24  27
ENDBRANCH  22  23
ENDBRANCH  21  22
ENDBRANCH  20  21
ENDBRANCH   1  20
BRANCH   1  40
HETATM   40  C28 UNL     1      24.205  10.217   9.864  1.00  0.00     0.264 C 
HETATM   41  N6  UNL     1      23.586  11.220   9.078  1.00  0.00    -0.060 NA
HETATM   42  O5  UNL     1      23.458   9.298  10.266  1.00  0.00    -0.274 OA
ENDBRANCH   1  40
TORSDOF 14
ENDMDL
MODEL 5
REMARK VINA RESULT: -8.308257343      1.615      2.873
REMARK  14 active torsions:
REMARK  status: ('A' for Active; 'I' for Inactive)
REMARK    1  A    between atoms: C2_2  and  C3_3 
REMARK    2  A    between atoms: C3_3  and  C4_4 
REMARK       I    between atoms: N1_10  and  C10_12 
REMARK    3  A    between atoms: C10_12  and  C11_14 
REMARK    4  A    between atoms: N2_18  and  C15_19 
REMARK    5  A    between atoms: C15_19  and  C16_20 
REMARK    6  A    between atoms: C15_19  and  C28_40 
REMARK    7  A    between atoms: C16_20  and  C17_21 
REMARK    8  A    between atoms: C17_21  and  C18_22 
REMARK    9  A    between atoms: C18_22  and  N3_23 
REMARK       I    between atoms: N3_23  and  C19_25 
REMARK   10  A    between atoms: C19_25  and  C20_27 
REMARK   11  A    between atoms: C20_27  and  C25_37 
REMARK       I    between atoms: N4_28  and  C21_30 
REMARK   12  A    between atoms: C21_30  and  C22_32 
REMARK   13  A    between atoms: C22_32  and  C23_33 
REMARK   14  A    between atoms: C23_33  and  C24_34 
ROOT
HETATM    1  C15 UNL     1      28.475   8.582  11.369  1.00  0.00     0.312 C 
ENDROOT
BRANCH   1   2
HETATM    2  N2  UNL     1      27.870   8.630  12.718  1.00  0.00     0.115 N 
HETATM    3  C11 UNL     1      26.563   8.091  12.791  1.00  0.00     0.315 A 
HETATM    4  C12 UNL     1      25.710   9.024  13.593  1.00  0.00     0.047 A 
HETATM    5  C13 UNL     1      26.595  10.190  13.922  1.00  0.00     0.033 A 
HETATM    6  C14 UNL     1      27.933   9.917  13.315  1.00  0.00     0.275 A 
BRANCH   3   7
HETATM    7  C10 UNL     1      26.634   6.809  13.589  1.00  0.00     0.255 C 
HETATM    8  N1  UNL     1      27.808   6.401  14.255  1.00  0.00    -0.333 N 
HETATM    9  C2  UNL     1      28.118   5.190  14.576  1.00  0.00    -0.014 C 
ATOM     10  H1  UNL     1      28.474   7.131  14.507  1.00  0.00     0.168 HD
HETATM   11  C1  UNL     1      27.206   4.056  14.249  1.00  0.00     0.063 C 
HETATM   12  O1  UNL     1      25.612   6.092  13.660  1.00  0.00    -0.271 OA
BRANCH   9  13
HETATM   13  C3  UNL     1      29.382   4.916  15.261  1.00  0.00     0.056 C 
BRANCH  13  14
HETATM   14  C4  UNL     1      30.590   5.524  14.631  1.00  0.00    -0.009 C 
HETATM   15  C5  UNL     1      31.447   4.520  13.960  1.00  0.00     0.005 C 
HETATM   16  C6  UNL     1      32.687   5.182  13.382  1.00  0.00     0.000 C 
HETATM   17  C7  UNL     1      32.691   6.665  13.642  1.00  0.00     0.000 C 
HETATM   18  C8  UNL     1      32.550   6.958  15.125  1.00  0.00     0.000 C 
HETATM   19  C9  UNL     1      31.366   6.275  15.718  1.00  0.00     0.005 C 
ENDBRANCH  13  14
ENDBRANCH   9  13
ENDBRANCH   3   7
ENDBRANCH   1   2
BRANCH   1  20
HETATM   20  C16 UNL     1      28.429   9.950  10.808  1.00  0.00     0.047 C 
BRANCH  20  21
HETATM   21  C17 UNL     1      27.591  10.220   9.600  1.00  0.00     0.022 C 
BRANCH  21  22
HETATM   22  C18 UNL     1      27.233   8.935   8.926  1.00  0.00     0.123 C 
BRANCH  22  23
HETATM   23  N3  UNL     1      28.030   8.621   7.793  1.00  0.00    -0.356 N 
HETATM   24  C19 UNL     1      28.837   7.477   7.566  1.00  0.00     0.264 C 
HETATM   25  O2  UNL     1      28.826   6.619   8.510  1.00  0.00    -0.266 OA
ATOM     26  H3  UNL     1      28.021   9.311   7.042  1.00  0.00     0.162 HD
BRANCH  24  27
HETATM   27  C20 UNL     1      29.625   7.267   6.369  1.00  0.00     0.083 C 
HETATM   28  N4  UNL     1      30.812   6.939   6.339  1.00  0.00    -0.326 N 
HETATM   29  C21 UNL     1      31.841   6.648   7.191  1.00  0.00     0.222 C 
ATOM     30  H4  UNL     1      31.127   6.859   5.372  1.00  0.00     0.168 HD
HETATM   31  O3  UNL     1      32.032   7.261   8.265  1.00  0.00    -0.273 OA
BRANCH  29  32
HETATM   32  C22 UNL     1      32.826   5.555   6.877  1.00  0.00     0.112 C 
BRANCH  32  33
HETATM   33  C23 UNL     1      33.989   6.134   6.081  1.00  0.00     0.109 C 
BRANCH  33  34
HETATM   34  C24 UNL     1      33.834   5.805   4.641  1.00  0.00     0.231 C 
HETATM   35  N5  UNL     1      32.915   6.512   3.853  1.00  0.00    -0.062 NA
HETATM   36  O4  UNL     1      34.528   4.892   4.138  1.00  0.00    -0.277 OA
ENDBRANCH  33  34
ENDBRANCH  32  33
ENDBRANCH  29  32
BRANCH  27  37
HETATM   37  C25 UNL     1      28.933   7.434   5.033  1.00  0.00     0.033 C 
HETATM   38  C26 UNL     1      29.113   6.224   4.172  1.00  0.00     0.016 C 
HETATM   39  C27 UNL     1      29.336   8.726   4.363  1.00  0.00     0.016 C 
ENDBRANCH  27  37
ENDBRANCH  24  27
ENDBRANCH  22  23
ENDBRANCH  21  22
ENDBRANCH  20  21
ENDBRANCH   1  20
BRANCH   1  40
HETATM   40  C28 UNL     1      29.794   7.953  11.433  1.00  0.00     0.264 C 
HETATM   41  N6  UNL     1      31.017   8.638  11.232  1.00  0.00    -0.060 NA
HETATM   42  O5  UNL     1      29.887   6.729  11.679  1.00  0.00    -0.274 OA
ENDBRANCH   1  40
TORSDOF 14
ENDMDL
