MODEL 1
REMARK VINA RESULT: -8.748926596      0.000      0.000
REMARK  17 active torsions:
REMARK  status: ('A' for Active; 'I' for Inactive)
REMARK    1  A    between atoms: C2_2  and  C3_3 
REMARK    2  A    between atoms: C3_3  and  C4_4 
REMARK    3  A    between atoms: C4_4  and  C5_5 
REMARK    4  A    between atoms: C5_5  and  N1_6 
REMARK    5  A    between atoms: C5_5  and  C24_37 
REMARK       I    between atoms: N1_6  and  C6_8 
REMARK    6  A    between atoms: C6_8  and  C7_10 
REMARK    7  A    between atoms: C7_10  and  C8_11 
REMARK       I    between atoms: C8_11  and  N2_13 
REMARK    8  A    between atoms: N2_13  and  C9_15 
REMARK    9  A    between atoms: C9_15  and  C10_16 
REMARK   10  A    between atoms: C9_15  and  C14_24 
REMARK   11  A    between atoms: C10_16  and  C11_17 
REMARK   12  A    between atoms: C11_17  and  C12_18 
REMARK   13  A    between atoms: C12_18  and  N3_19 
REMARK   14  A    between atoms: C14_24  and  O3_25 
REMARK   15  A    between atoms: C14_24  and  N6_27 
REMARK   16  A    between atoms: C24_37  and  O4_38 
REMARK   17  A    between atoms: C24_37  and  N7_40 
ROOT
HETATM    1  C8  UNL     1      29.134   7.021   5.684  1.00  0.00     0.227 C 
HETATM    2  O2  UNL     1      29.576   6.370   4.654  1.00  0.00    -0.273 OA
HETATM    3  N2  UNL     1      29.739   6.725   6.900  1.00  0.00    -0.349 N 
ATOM      4  H2  UNL     1      29.410   7.225   7.726  1.00  0.00     0.163 HD
ENDROOT
BRANCH   3   5
HETATM    5  C9  UNL     1      30.816   5.748   7.081  1.00  0.00     0.159 C 
BRANCH   5   6
HETATM    6  C10 UNL     1      32.114   6.504   7.355  1.00  0.00     0.035 C 
BRANCH   6   7
HETATM    7  C11 UNL     1      32.966   6.494   6.086  1.00  0.00     0.022 C 
BRANCH   7   8
HETATM    8  C12 UNL     1      32.907   5.146   5.413  1.00  0.00     0.122 C 
BRANCH   8   9
HETATM    9  N3  UNL     1      33.883   4.294   6.075  1.00  0.00    -0.367 N 
HETATM   10  C13 UNL     1      34.865   3.740   5.453  1.00  0.00     0.196 C 
HETATM   11  N4  UNL     1      35.091   3.905   4.075  1.00  0.00    -0.067 NA
HETATM   12  N5  UNL     1      35.724   2.925   6.260  1.00  0.00    -0.067 NA
ATOM     13  H3  UNL     1      33.785   4.128   7.077  1.00  0.00     0.161 HD
ENDBRANCH   8   9
ENDBRANCH   7   8
ENDBRANCH   6   7
ENDBRANCH   5   6
BRANCH   5  14
HETATM   14  C14 UNL     1      30.457   4.832   8.190  1.00  0.00     0.137 C 
BRANCH  14  15
HETATM   15  O3  UNL     1      29.857   3.717   7.873  1.00  0.00    -0.348 OA
ATOM     16  H3  UNL     1      28.934   3.646   8.085  1.00  0.00     0.219 HD
ENDBRANCH  14  15
BRANCH  14  17
HETATM   17  N6  UNL     1      30.685   5.012   9.560  1.00  0.00    -0.364 N 
HETATM   18  C15 UNL     1      30.250   6.186  10.263  1.00  0.00     0.125 C 
HETATM   19  C16 UNL     1      31.188   6.506  11.439  1.00  0.00     0.029 C 
HETATM   20  C17 UNL     1      31.190   5.368  12.417  1.00  0.00    -0.037 C 
HETATM   21  C18 UNL     1      32.416   5.257  13.263  1.00  0.00     0.010 C 
HETATM   22  C21 UNL     1      30.123   5.690  13.465  1.00  0.00     0.010 C 
HETATM   23  C22 UNL     1      30.849   4.053  11.760  1.00  0.00     0.029 C 
HETATM   24  C19 UNL     1      31.977   4.524  14.523  1.00  0.00     0.001 C 
HETATM   25  C20 UNL     1      30.580   5.036  14.737  1.00  0.00     0.001 C 
HETATM   26  C23 UNL     1      31.394   4.003  10.354  1.00  0.00     0.125 C 
ENDBRANCH  14  17
ENDBRANCH   5  14
ENDBRANCH   3   5
BRANCH   1  27
HETATM   27  C7  UNL     1      28.050   8.009   5.522  1.00  0.00     0.205 C 
BRANCH  27  28
HETATM   28  C6  UNL     1      28.065   9.074   6.557  1.00  0.00     0.227 C 
HETATM   29  N1  UNL     1      27.640   8.799   7.893  1.00  0.00    -0.349 N 
ATOM     30  H1  UNL     1      27.314   7.860   8.121  1.00  0.00     0.163 HD
HETATM   31  O1  UNL     1      28.454  10.216   6.240  1.00  0.00    -0.273 OA
BRANCH  29  32
HETATM   32  C5  UNL     1      27.652   9.815   8.946  1.00  0.00     0.159 C 
BRANCH  32  33
HETATM   33  C4  UNL     1      27.963   9.261  10.269  1.00  0.00     0.033 C 
BRANCH  33  34
HETATM   34  C3  UNL     1      27.211   7.979  10.581  1.00  0.00     0.002 C 
BRANCH  34  35
HETATM   35  C2  UNL     1      27.219   7.783  12.088  1.00  0.00    -0.004 C 
HETATM   36  C1  UNL     1      28.076   8.782  12.806  1.00  0.00     0.005 C 
ENDBRANCH  34  35
ENDBRANCH  33  34
ENDBRANCH  32  33
BRANCH  32  37
HETATM   37  C24 UNL     1      26.455  10.645   8.900  1.00  0.00     0.137 C 
BRANCH  37  38
HETATM   38  O4  UNL     1      26.509  11.547   7.948  1.00  0.00    -0.348 OA
ATOM     39  H4  UNL     1      25.823  12.199   8.028  1.00  0.00     0.219 HD
ENDBRANCH  37  38
BRANCH  37  40
HETATM   40  N7  UNL     1      25.286  10.683   9.642  1.00  0.00    -0.364 N 
HETATM   41  C25 UNL     1      24.066   9.974   9.585  1.00  0.00     0.124 C 
HETATM   42  C26 UNL     1      23.516   9.996  11.035  1.00  0.00     0.021 C 
HETATM   43  C27 UNL     1      24.658  10.576  11.839  1.00  0.00     0.021 C 
HETATM   44  C28 UNL     1      25.158  11.603  10.804  1.00  0.00     0.124 C 
ENDBRANCH  37  40
ENDBRANCH  32  37
ENDBRANCH  29  32
ENDBRANCH  27  28
ENDBRANCH   1  27
TORSDOF 17
ENDMDL
MODEL 2
REMARK VINA RESULT: -8.741752209      0.841      1.024
REMARK  17 active torsions:
REMARK  status: ('A' for Active; 'I' for Inactive)
REMARK    1  A    between atoms: C2_2  and  C3_3 
REMARK    2  A    between atoms: C3_3  and  C4_4 
REMARK    3  A    between atoms: C4_4  and  C5_5 
REMARK    4  A    between atoms: C5_5  and  N1_6 
REMARK    5  A    between atoms: C5_5  and  C24_37 
REMARK       I    between atoms: N1_6  and  C6_8 
REMARK    6  A    between atoms: C6_8  and  C7_10 
REMARK    7  A    between atoms: C7_10  and  C8_11 
REMARK       I    between atoms: C8_11  and  N2_13 
REMARK    8  A    between atoms: N2_13  and  C9_15 
REMARK    9  A    between atoms: C9_15  and  C10_16 
REMARK   10  A    between atoms: C9_15  and  C14_24 
REMARK   11  A    between atoms: C10_16  and  C11_17 
REMARK   12  A    between atoms: C11_17  and  C12_18 
REMARK   13  A    between atoms: C12_18  and  N3_19 
REMARK   14  A    between atoms: C14_24  and  O3_25 
REMARK   15  A    between atoms: C14_24  and  N6_27 
REMARK   16  A    between atoms: C24_37  and  O4_38 
REMARK   17  A    between atoms: C24_37  and  N7_40 
ROOT
HETATM    1  C8  UNL     1      29.181   6.934   5.510  1.00  0.00     0.227 C 
HETATM    2  O2  UNL     1      29.851   6.635   4.442  1.00  0.00    -0.273 OA
HETATM    3  N2  UNL     1      29.610   6.335   6.689  1.00  0.00    -0.349 N 
ATOM      4  H2  UNL     1      29.098   6.555   7.544  1.00  0.00     0.163 HD
ENDROOT
BRANCH   3   5
HETATM    5  C9  UNL     1      30.742   5.411   6.792  1.00  0.00     0.159 C 
BRANCH   5   6
HETATM    6  C10 UNL     1      32.027   6.231   6.896  1.00  0.00     0.035 C 
BRANCH   6   7
HETATM    7  C11 UNL     1      33.217   5.274   6.945  1.00  0.00     0.022 C 
BRANCH   7   8
HETATM    8  C12 UNL     1      33.574   4.793   5.561  1.00  0.00     0.122 C 
BRANCH   8   9
HETATM    9  N3  UNL     1      34.408   3.611   5.720  1.00  0.00    -0.367 N 
HETATM   10  C13 UNL     1      35.246   3.221   4.824  1.00  0.00     0.196 C 
HETATM   11  N4  UNL     1      35.438   3.897   3.606  1.00  0.00    -0.067 NA
HETATM   12  N5  UNL     1      35.978   2.031   5.142  1.00  0.00    -0.067 NA
ATOM     13  H3  UNL     1      34.324   3.068   6.580  1.00  0.00     0.161 HD
ENDBRANCH   8   9
ENDBRANCH   7   8
ENDBRANCH   6   7
ENDBRANCH   5   6
BRANCH   5  14
HETATM   14  C14 UNL     1      30.543   4.531   7.968  1.00  0.00     0.137 C 
BRANCH  14  15
HETATM   15  O3  UNL     1      30.152   3.307   7.738  1.00  0.00    -0.348 OA
ATOM     16  H3  UNL     1      29.550   3.173   7.015  1.00  0.00     0.219 HD
ENDBRANCH  14  15
BRANCH  14  17
HETATM   17  N6  UNL     1      30.726   4.850   9.319  1.00  0.00    -0.364 N 
HETATM   18  C15 UNL     1      30.228   6.067   9.896  1.00  0.00     0.125 C 
HETATM   19  C16 UNL     1      31.120   6.534  11.058  1.00  0.00     0.029 C 
HETATM   20  C17 UNL     1      31.136   5.495  12.140  1.00  0.00    -0.037 C 
HETATM   21  C18 UNL     1      32.341   5.515  13.023  1.00  0.00     0.010 C 
HETATM   22  C21 UNL     1      30.029   5.874  13.127  1.00  0.00     0.010 C 
HETATM   23  C22 UNL     1      30.864   4.111  11.605  1.00  0.00     0.029 C 
HETATM   24  C19 UNL     1      31.895   4.888  14.336  1.00  0.00     0.001 C 
HETATM   25  C20 UNL     1      30.475   5.362  14.466  1.00  0.00     0.001 C 
HETATM   26  C23 UNL     1      31.449   3.949  10.224  1.00  0.00     0.125 C 
ENDBRANCH  14  17
ENDBRANCH   5  14
ENDBRANCH   3   5
BRANCH   1  27
HETATM   27  C7  UNL     1      28.036   7.862   5.426  1.00  0.00     0.205 C 
BRANCH  27  28
HETATM   28  C6  UNL     1      28.068   8.930   6.457  1.00  0.00     0.227 C 
HETATM   29  N1  UNL     1      27.665   8.660   7.801  1.00  0.00    -0.349 N 
ATOM     30  H1  UNL     1      27.343   7.722   8.037  1.00  0.00     0.163 HD
HETATM   31  O1  UNL     1      28.452  10.071   6.129  1.00  0.00    -0.273 OA
BRANCH  29  32
HETATM   32  C5  UNL     1      27.695   9.679   8.850  1.00  0.00     0.159 C 
BRANCH  32  33
HETATM   33  C4  UNL     1      28.107   9.145  10.153  1.00  0.00     0.033 C 
BRANCH  33  34
HETATM   34  C3  UNL     1      28.565  10.214  11.130  1.00  0.00     0.002 C 
BRANCH  34  35
HETATM   35  C2  UNL     1      29.229   9.522  12.307  1.00  0.00    -0.004 C 
HETATM   36  C1  UNL     1      30.654   9.942  12.510  1.00  0.00     0.005 C 
ENDBRANCH  34  35
ENDBRANCH  33  34
ENDBRANCH  32  33
BRANCH  32  37
HETATM   37  C24 UNL     1      26.462  10.457   8.874  1.00  0.00     0.137 C 
BRANCH  37  38
HETATM   38  O4  UNL     1      26.555  11.563   8.174  1.00  0.00    -0.348 OA
ATOM     39  H4  UNL     1      26.392  11.419   7.249  1.00  0.00     0.219 HD
ENDBRANCH  37  38
BRANCH  37  40
HETATM   40  N7  UNL     1      25.227  10.275   9.474  1.00  0.00    -0.364 N 
HETATM   41  C25 UNL     1      24.715   9.339  10.400  1.00  0.00     0.124 C 
HETATM   42  C26 UNL     1      23.572  10.083  11.139  1.00  0.00     0.021 C 
HETATM   43  C27 UNL     1      23.709  11.510  10.657  1.00  0.00     0.021 C 
HETATM   44  C28 UNL     1      24.107  11.215   9.199  1.00  0.00     0.124 C 
ENDBRANCH  37  40
ENDBRANCH  32  37
ENDBRANCH  29  32
ENDBRANCH  27  28
ENDBRANCH   1  27
TORSDOF 17
ENDMDL
MODEL 3
REMARK VINA RESULT: -8.689488461      3.328      6.885
REMARK  17 active torsions:
REMARK  status: ('A' for Active; 'I' for Inactive)
REMARK    1  A    between atoms: C2_2  and  C3_3 
REMARK    2  A    between atoms: C3_3  and  C4_4 
REMARK    3  A    between atoms: C4_4  and  C5_5 
REMARK    4  A    between atoms: C5_5  and  N1_6 
REMARK    5  A    between atoms: C5_5  and  C24_37 
REMARK       I    between atoms: N1_6  and  C6_8 
REMARK    6  A    between atoms: C6_8  and  C7_10 
REMARK    7  A    between atoms: C7_10  and  C8_11 
REMARK       I    between atoms: C8_11  and  N2_13 
REMARK    8  A    between atoms: N2_13  and  C9_15 
REMARK    9  A    between atoms: C9_15  and  C10_16 
REMARK   10  A    between atoms: C9_15  and  C14_24 
REMARK   11  A    between atoms: C10_16  and  C11_17 
REMARK   12  A    between atoms: C11_17  and  C12_18 
REMARK   13  A    between atoms: C12_18  and  N3_19 
REMARK   14  A    between atoms: C14_24  and  O3_25 
REMARK   15  A    between atoms: C14_24  and  N6_27 
REMARK   16  A    between atoms: C24_37  and  O4_38 
REMARK   17  A    between atoms: C24_37  and  N7_40 
ROOT
HETATM    1  C8  UNL     1      30.478   6.299   6.693  1.00  0.00     0.227 C 
HETATM    2  O2  UNL     1      30.645   5.030   6.491  1.00  0.00    -0.273 OA
HETATM    3  N2  UNL     1      31.182   7.150   5.849  1.00  0.00    -0.349 N 
ATOM      4  H2  UNL     1      31.068   8.154   5.988  1.00  0.00     0.163 HD
ENDROOT
BRANCH   3   5
HETATM    5  C9  UNL     1      32.077   6.709   4.775  1.00  0.00     0.159 C 
BRANCH   5   6
HETATM    6  C10 UNL     1      31.906   7.652   3.586  1.00  0.00     0.035 C 
BRANCH   6   7
HETATM    7  C11 UNL     1      30.983   6.990   2.564  1.00  0.00     0.022 C 
BRANCH   7   8
HETATM    8  C12 UNL     1      29.546   7.369   2.816  1.00  0.00     0.122 C 
BRANCH   8   9
HETATM    9  N3  UNL     1      29.513   8.809   3.027  1.00  0.00    -0.367 N 
HETATM   10  C13 UNL     1      28.928   9.354   4.036  1.00  0.00     0.196 C 
HETATM   11  N4  UNL     1      28.265   8.615   5.032  1.00  0.00    -0.067 NA
HETATM   12  N5  UNL     1      28.986  10.785   4.082  1.00  0.00    -0.067 NA
ATOM     13  H3  UNL     1      29.974   9.412   2.346  1.00  0.00     0.161 HD
ENDBRANCH   8   9
ENDBRANCH   7   8
ENDBRANCH   6   7
ENDBRANCH   5   6
BRANCH   5  14
HETATM   14  C14 UNL     1      33.471   6.693   5.282  1.00  0.00     0.137 C 
BRANCH  14  15
HETATM   15  O3  UNL     1      33.934   7.804   5.788  1.00  0.00    -0.348 OA
ATOM     16  H3  UNL     1      33.859   8.587   5.256  1.00  0.00     0.219 HD
ENDBRANCH  14  15
BRANCH  14  17
HETATM   17  N6  UNL     1      34.369   5.620   5.287  1.00  0.00    -0.364 N 
HETATM   18  C15 UNL     1      35.503   5.562   4.407  1.00  0.00     0.125 C 
HETATM   19  C16 UNL     1      35.861   4.107   4.061  1.00  0.00     0.029 C 
HETATM   20  C17 UNL     1      36.219   3.357   5.310  1.00  0.00    -0.037 C 
HETATM   21  C18 UNL     1      36.029   1.877   5.239  1.00  0.00     0.010 C 
HETATM   22  C21 UNL     1      37.738   3.463   5.465  1.00  0.00     0.010 C 
HETATM   23  C22 UNL     1      35.560   3.942   6.535  1.00  0.00     0.029 C 
HETATM   24  C19 UNL     1      36.988   1.293   6.268  1.00  0.00     0.001 C 
HETATM   25  C20 UNL     1      38.169   2.218   6.185  1.00  0.00     0.001 C 
HETATM   26  C23 UNL     1      34.192   4.482   6.196  1.00  0.00     0.125 C 
ENDBRANCH  14  17
ENDBRANCH   5  14
ENDBRANCH   3   5
BRANCH   1  27
HETATM   27  C7  UNL     1      29.583   6.762   7.770  1.00  0.00     0.205 C 
BRANCH  27  28
HETATM   28  C6  UNL     1      30.220   6.749   9.112  1.00  0.00     0.227 C 
HETATM   29  N1  UNL     1      29.576   6.117  10.220  1.00  0.00    -0.349 N 
ATOM     30  H1  UNL     1      28.664   5.683  10.075  1.00  0.00     0.163 HD
HETATM   31  O1  UNL     1      31.329   7.302   9.256  1.00  0.00    -0.273 OA
BRANCH  29  32
HETATM   32  C5  UNL     1      30.176   6.068  11.553  1.00  0.00     0.159 C 
BRANCH  32  33
HETATM   33  C4  UNL     1      30.607   4.718  11.936  1.00  0.00     0.033 C 
BRANCH  33  34
HETATM   34  C3  UNL     1      32.117   4.553  11.978  1.00  0.00     0.002 C 
BRANCH  34  35
HETATM   35  C2  UNL     1      32.603   5.018  13.340  1.00  0.00    -0.004 C 
HETATM   36  C1  UNL     1      32.091   4.173  14.467  1.00  0.00     0.005 C 
ENDBRANCH  34  35
ENDBRANCH  33  34
ENDBRANCH  32  33
BRANCH  32  37
HETATM   37  C24 UNL     1      29.339   6.740  12.539  1.00  0.00     0.137 C 
BRANCH  37  38
HETATM   38  O4  UNL     1      28.175   7.096  12.046  1.00  0.00    -0.348 OA
ATOM     39  H4  UNL     1      27.907   7.958  12.341  1.00  0.00     0.219 HD
ENDBRANCH  37  38
BRANCH  37  40
HETATM   40  N7  UNL     1      29.511   7.078  13.871  1.00  0.00    -0.364 N 
HETATM   41  C25 UNL     1      29.205   6.438  15.092  1.00  0.00     0.124 C 
HETATM   42  C26 UNL     1      30.237   6.990  16.110  1.00  0.00     0.021 C 
HETATM   43  C27 UNL     1      31.198   7.778  15.247  1.00  0.00     0.021 C 
HETATM   44  C28 UNL     1      30.178   8.354  14.247  1.00  0.00     0.124 C 
ENDBRANCH  37  40
ENDBRANCH  32  37
ENDBRANCH  29  32
ENDBRANCH  27  28
ENDBRANCH   1  27
TORSDOF 17
ENDMDL
MODEL 4
REMARK VINA RESULT: -8.680710182      3.458      6.635
REMARK  17 active torsions:
REMARK  status: ('A' for Active; 'I' for Inactive)
REMARK    1  A    between atoms: C2_2  and  C3_3 
REMARK    2  A    between atoms: C3_3  and  C4_4 
REMARK    3  A    between atoms: C4_4  and  C5_5 
REMARK    4  A    between atoms: C5_5  and  N1_6 
REMARK    5  A    between atoms: C5_5  and  C24_37 
REMARK       I    between atoms: N1_6  and  C6_8 
REMARK    6  A    between atoms: C6_8  and  C7_10 
REMARK    7  A    between atoms: C7_10  and  C8_11 
REMARK       I    between atoms: C8_11  and  N2_13 
REMARK    8  A    between atoms: N2_13  and  C9_15 
REMARK    9  A    between atoms: C9_15  and  C10_16 
REMARK   10  A    between atoms: C9_15  and  C14_24 
REMARK   11  A    between atoms: C10_16  and  C11_17 
REMARK   12  A    between atoms: C11_17  and  C12_18 
REMARK   13  A    between atoms: C12_18  and  N3_19 
REMARK   14  A    between atoms: C14_24  and  O3_25 
REMARK   15  A    between atoms: C14_24  and  N6_27 
REMARK   16  A    between atoms: C24_37  and  O4_38 
REMARK   17  A    between atoms: C24_37  and  N7_40 
ROOT
HETATM    1  C8  UNL     1      30.146   5.929   7.995  1.00  0.00     0.227 C 
HETATM    2  O2  UNL     1      30.514   4.768   7.551  1.00  0.00    -0.273 OA
HETATM    3  N2  UNL     1      30.138   6.963   7.067  1.00  0.00    -0.349 N 
ATOM      4  H2  UNL     1      29.852   7.887   7.391  1.00  0.00     0.163 HD
ENDROOT
BRANCH   3   5
HETATM    5  C9  UNL     1      30.511   6.823   5.656  1.00  0.00     0.159 C 
BRANCH   5   6
HETATM    6  C10 UNL     1      29.514   7.616   4.813  1.00  0.00     0.035 C 
BRANCH   6   7
HETATM    7  C11 UNL     1      29.311   6.890   3.483  1.00  0.00     0.022 C 
BRANCH   7   8
HETATM    8  C12 UNL     1      29.465   7.842   2.325  1.00  0.00     0.122 C 
BRANCH   8   9
HETATM    9  N3  UNL     1      30.616   8.685   2.612  1.00  0.00    -0.367 N 
HETATM   10  C13 UNL     1      31.751   8.542   2.022  1.00  0.00     0.196 C 
HETATM   11  N4  UNL     1      31.990   7.561   1.043  1.00  0.00    -0.067 NA
HETATM   12  N5  UNL     1      32.778   9.453   2.434  1.00  0.00    -0.067 NA
ATOM     13  H3  UNL     1      30.519   9.421   3.311  1.00  0.00     0.161 HD
ENDBRANCH   8   9
ENDBRANCH   7   8
ENDBRANCH   6   7
ENDBRANCH   5   6
BRANCH   5  14
HETATM   14  C14 UNL     1      31.903   7.300   5.474  1.00  0.00     0.137 C 
BRANCH  14  15
HETATM   15  O3  UNL     1      32.096   8.591   5.471  1.00  0.00    -0.348 OA
ATOM     16  H3  UNL     1      31.834   9.070   6.248  1.00  0.00     0.219 HD
ENDBRANCH  14  15
BRANCH  14  17
HETATM   17  N6  UNL     1      33.058   6.528   5.301  1.00  0.00    -0.364 N 
HETATM   18  C15 UNL     1      34.377   7.090   5.386  1.00  0.00     0.125 C 
HETATM   19  C16 UNL     1      35.362   6.328   4.484  1.00  0.00     0.029 C 
HETATM   20  C17 UNL     1      35.451   4.895   4.919  1.00  0.00    -0.037 C 
HETATM   21  C18 UNL     1      35.878   3.933   3.858  1.00  0.00     0.010 C 
HETATM   22  C21 UNL     1      36.622   4.806   5.900  1.00  0.00     0.010 C 
HETATM   23  C22 UNL     1      34.195   4.431   5.614  1.00  0.00     0.029 C 
HETATM   24  C19 UNL     1      36.494   2.755   4.599  1.00  0.00     0.001 C 
HETATM   25  C20 UNL     1      37.168   3.414   5.770  1.00  0.00     0.001 C 
HETATM   26  C23 UNL     1      32.979   5.092   5.012  1.00  0.00     0.125 C 
ENDBRANCH  14  17
ENDBRANCH   5  14
ENDBRANCH   3   5
BRANCH   1  27
HETATM   27  C7  UNL     1      29.768   6.090   9.412  1.00  0.00     0.205 C 
BRANCH  27  28
HETATM   28  C6  UNL     1      30.759   6.866  10.200  1.00  0.00     0.227 C 
HETATM   29  N1  UNL     1      30.984   6.575  11.581  1.00  0.00    -0.349 N 
ATOM     30  H1  UNL     1      30.443   5.829  12.019  1.00  0.00     0.163 HD
HETATM   31  O1  UNL     1      31.392   7.782   9.636  1.00  0.00    -0.273 OA
BRANCH  29  32
HETATM   32  C5  UNL     1      31.960   7.305  12.389  1.00  0.00     0.159 C 
BRANCH  32  33
HETATM   33  C4  UNL     1      32.637   6.453  13.374  1.00  0.00     0.033 C 
BRANCH  33  34
HETATM   34  C3  UNL     1      32.483   4.967  13.098  1.00  0.00     0.002 C 
BRANCH  34  35
HETATM   35  C2  UNL     1      31.934   4.311  14.353  1.00  0.00    -0.004 C 
HETATM   36  C1  UNL     1      30.670   4.949  14.847  1.00  0.00     0.005 C 
ENDBRANCH  34  35
ENDBRANCH  33  34
ENDBRANCH  32  33
BRANCH  32  37
HETATM   37  C24 UNL     1      31.391   8.531  12.935  1.00  0.00     0.137 C 
BRANCH  37  38
HETATM   38  O4  UNL     1      31.776   9.598  12.275  1.00  0.00    -0.348 OA
ATOM     39  H4  UNL     1      31.321   9.693  11.447  1.00  0.00     0.219 HD
ENDBRANCH  37  38
BRANCH  37  40
HETATM   40  N7  UNL     1      30.538   8.802  13.992  1.00  0.00    -0.364 N 
HETATM   41  C25 UNL     1      29.212   8.428  14.303  1.00  0.00     0.124 C 
HETATM   42  C26 UNL     1      29.129   8.476  15.851  1.00  0.00     0.021 C 
HETATM   43  C27 UNL     1      30.565   8.689  16.276  1.00  0.00     0.021 C 
HETATM   44  C28 UNL     1      30.996   9.634  15.138  1.00  0.00     0.124 C 
ENDBRANCH  37  40
ENDBRANCH  32  37
ENDBRANCH  29  32
ENDBRANCH  27  28
ENDBRANCH   1  27
TORSDOF 17
ENDMDL
MODEL 5
REMARK VINA RESULT: -8.443042838      1.650      2.511
REMARK  17 active torsions:
REMARK  status: ('A' for Active; 'I' for Inactive)
REMARK    1  A    between atoms: C2_2  and  C3_3 
REMARK    2  A    between atoms: C3_3  and  C4_4 
REMARK    3  A    between atoms: C4_4  and  C5_5 
REMARK    4  A    between atoms: C5_5  and  N1_6 
REMARK    5  A    between atoms: C5_5  and  C24_37 
REMARK       I    between atoms: N1_6  and  C6_8 
REMARK    6  A    between atoms: C6_8  and  C7_10 
REMARK    7  A    between atoms: C7_10  and  C8_11 
REMARK       I    between atoms: C8_11  and  N2_13 
REMARK    8  A    between atoms: N2_13  and  C9_15 
REMARK    9  A    between atoms: C9_15  and  C10_16 
REMARK   10  A    between atoms: C9_15  and  C14_24 
REMARK   11  A    between atoms: C10_16  and  C11_17 
REMARK   12  A    between atoms: C11_17  and  C12_18 
REMARK   13  A    between atoms: C12_18  and  N3_19 
REMARK   14  A    between atoms: C14_24  and  O3_25 
REMARK   15  A    between atoms: C14_24  and  N6_27 
REMARK   16  A    between atoms: C24_37  and  O4_38 
REMARK   17  A    between atoms: C24_37  and  N7_40 
ROOT
HETATM    1  C8  UNL     1      29.122   6.960   5.691  1.00  0.00     0.227 C 
HETATM    2  O2  UNL     1      29.581   6.335   4.652  1.00  0.00    -0.273 OA
HETATM    3  N2  UNL     1      29.720   6.648   6.906  1.00  0.00    -0.349 N 
ATOM      4  H2  UNL     1      29.377   7.127   7.739  1.00  0.00     0.163 HD
ENDROOT
BRANCH   3   5
HETATM    5  C9  UNL     1      30.809   5.681   7.077  1.00  0.00     0.159 C 
BRANCH   5   6
HETATM    6  C10 UNL     1      32.102   6.451   7.336  1.00  0.00     0.035 C 
BRANCH   6   7
HETATM    7  C11 UNL     1      32.905   6.513   6.036  1.00  0.00     0.022 C 
BRANCH   7   8
HETATM    8  C12 UNL     1      33.043   7.936   5.560  1.00  0.00     0.122 C 
BRANCH   8   9
HETATM    9  N3  UNL     1      32.150   8.095   4.422  1.00  0.00    -0.367 N 
HETATM   10  C13 UNL     1      31.605   9.220   4.112  1.00  0.00     0.196 C 
HETATM   11  N4  UNL     1      31.820  10.404   4.841  1.00  0.00    -0.067 NA
HETATM   12  N5  UNL     1      30.746   9.193   2.966  1.00  0.00    -0.067 NA
ATOM     13  H3  UNL     1      31.946   7.279   3.844  1.00  0.00     0.161 HD
ENDBRANCH   8   9
ENDBRANCH   7   8
ENDBRANCH   6   7
ENDBRANCH   5   6
BRANCH   5  14
HETATM   14  C14 UNL     1      30.470   4.764   8.191  1.00  0.00     0.137 C 
BRANCH  14  15
HETATM   15  O3  UNL     1      29.899   3.632   7.880  1.00  0.00    -0.348 OA
ATOM     16  H3  UNL     1      30.226   2.849   8.306  1.00  0.00     0.219 HD
ENDBRANCH  14  15
BRANCH  14  17
HETATM   17  N6  UNL     1      30.691   4.959   9.560  1.00  0.00    -0.364 N 
HETATM   18  C15 UNL     1      31.383   3.998  10.372  1.00  0.00     0.125 C 
HETATM   19  C16 UNL     1      30.877   4.032  11.823  1.00  0.00     0.029 C 
HETATM   20  C17 UNL     1      31.120   5.387  12.419  1.00  0.00    -0.037 C 
HETATM   21  C18 UNL     1      30.215   5.758  13.548  1.00  0.00     0.010 C 
HETATM   22  C21 UNL     1      32.476   5.317  13.126  1.00  0.00     0.010 C 
HETATM   23  C22 UNL     1      31.170   6.470  11.370  1.00  0.00     0.029 C 
HETATM   24  C19 UNL     1      30.986   6.783  14.369  1.00  0.00     0.001 C 
HETATM   25  C20 UNL     1      32.404   6.299  14.259  1.00  0.00     0.001 C 
HETATM   26  C23 UNL     1      30.212   6.166  10.245  1.00  0.00     0.125 C 
ENDBRANCH  14  17
ENDBRANCH   5  14
ENDBRANCH   3   5
BRANCH   1  27
HETATM   27  C7  UNL     1      28.026   7.936   5.539  1.00  0.00     0.205 C 
BRANCH  27  28
HETATM   28  C6  UNL     1      28.062   9.023   6.550  1.00  0.00     0.227 C 
HETATM   29  N1  UNL     1      27.644   8.783   7.895  1.00  0.00    -0.349 N 
ATOM     30  H1  UNL     1      27.309   7.853   8.146  1.00  0.00     0.163 HD
HETATM   31  O1  UNL     1      28.462  10.153   6.205  1.00  0.00    -0.273 OA
BRANCH  29  32
HETATM   32  C5  UNL     1      27.677   9.821   8.925  1.00  0.00     0.159 C 
BRANCH  32  33
HETATM   33  C4  UNL     1      27.998   9.294  10.256  1.00  0.00     0.033 C 
BRANCH  33  34
HETATM   34  C3  UNL     1      27.234   8.029  10.608  1.00  0.00     0.002 C 
BRANCH  34  35
HETATM   35  C2  UNL     1      27.383   7.789  12.100  1.00  0.00    -0.004 C 
HETATM   36  C1  UNL     1      28.186   8.850  12.790  1.00  0.00     0.005 C 
ENDBRANCH  34  35
ENDBRANCH  33  34
ENDBRANCH  32  33
BRANCH  32  37
HETATM   37  C24 UNL     1      26.487  10.661   8.875  1.00  0.00     0.137 C 
BRANCH  37  38
HETATM   38  O4  UNL     1      26.553  11.565   7.925  1.00  0.00    -0.348 OA
ATOM     39  H4  UNL     1      27.301  11.434   7.355  1.00  0.00     0.219 HD
ENDBRANCH  37  38
BRANCH  37  40
HETATM   40  N7  UNL     1      25.314  10.705   9.611  1.00  0.00    -0.364 N 
HETATM   41  C25 UNL     1      24.067  10.052   9.507  1.00  0.00     0.124 C 
HETATM   42  C26 UNL     1      23.505  10.016  10.952  1.00  0.00     0.021 C 
HETATM   43  C27 UNL     1      24.664  10.504  11.794  1.00  0.00     0.021 C 
HETATM   44  C28 UNL     1      25.214  11.564  10.821  1.00  0.00     0.124 C 
ENDBRANCH  37  40
ENDBRANCH  32  37
ENDBRANCH  29  32
ENDBRANCH  27  28
ENDBRANCH   1  27
TORSDOF 17
ENDMDL
