MODEL 1
REMARK VINA RESULT: -8.067563755      0.000      0.000
REMARK  13 active torsions:
REMARK  status: ('A' for Active; 'I' for Inactive)
REMARK       I    between atoms: C2_2  and  N1_4 
REMARK       I    between atoms: N1_4  and  C3_5 
REMARK    1  A    between atoms: N1_4  and  C23_40 
REMARK       I    between atoms: C3_5  and  N2_7 
REMARK    2  A    between atoms: N2_7  and  C4_9 
REMARK    3  A    between atoms: C4_9  and  C5_10 
REMARK    4  A    between atoms: C5_10  and  C6_11 
REMARK    5  A    between atoms: C6_11  and  N3_12 
REMARK       I    between atoms: N3_12  and  C7_14 
REMARK       I    between atoms: C7_14  and  N4_16 
REMARK    6  A    between atoms: C10_19  and  C12_21 
REMARK    7  A    between atoms: C12_21  and  N5_22 
REMARK    8  A    between atoms: N5_22  and  S1_24 
REMARK    9  A    between atoms: S1_24  and  C13_27 
REMARK   10  A    between atoms: C13_27  and  C14_28 
REMARK   11  A    between atoms: C14_28  and  N6_29 
REMARK       I    between atoms: N6_29  and  C15_31 
REMARK   12  A    between atoms: C15_31  and  C16_33 
REMARK   13  A    between atoms: C16_33  and  C17_34 
ROOT
HETATM    1  N3  UNL     1      27.239   8.678  10.153  1.00  0.00    -0.343 N 
ATOM      2  H3  UNL     1      28.252   8.620  10.262  1.00  0.00     0.164 HD
HETATM    3  C7  UNL     1      26.403   8.080  11.124  1.00  0.00     0.318 C 
HETATM    4  O3  UNL     1      25.157   8.155  10.980  1.00  0.00    -0.247 OA
HETATM    5  N4  UNL     1      26.911   7.403  12.247  1.00  0.00    -0.334 N 
HETATM    6  C8  UNL     1      28.321   7.236  12.549  1.00  0.00     0.128 C 
HETATM    7  C9  UNL     1      28.627   8.097  13.755  1.00  0.00     0.031 C 
HETATM    8  C10 UNL     1      27.489   8.242  14.687  1.00  0.00    -0.024 C 
HETATM    9  C11 UNL     1      26.813   9.597  14.572  1.00  0.00     0.017 C 
HETATM   10  C21 UNL     1      26.464   7.137  14.608  1.00  0.00     0.031 C 
HETATM   11  C22 UNL     1      26.009   6.800  13.233  1.00  0.00     0.128 C 
ENDROOT
BRANCH   1  12
HETATM   12  C6  UNL     1      26.686   9.372   9.004  1.00  0.00     0.126 C 
BRANCH  12  13
HETATM   13  C5  UNL     1      27.604   9.590   7.892  1.00  0.00     0.039 C 
BRANCH  13  14
HETATM   14  C4  UNL     1      28.012   8.595   6.916  1.00  0.00     0.126 C 
BRANCH  14  15
HETATM   15  N2  UNL     1      28.792   7.475   7.321  1.00  0.00    -0.343 N 
HETATM   16  C3  UNL     1      29.979   6.938   6.810  1.00  0.00     0.325 C 
HETATM   17  N1  UNL     1      30.681   5.795   7.353  1.00  0.00    -0.266 N 
HETATM   18  O2  UNL     1      30.499   7.455   5.813  1.00  0.00    -0.247 OA
HETATM   19  C2  UNL     1      31.871   5.322   6.760  1.00  0.00     0.224 C 
HETATM   20  C1  UNL     1      32.489   5.931   5.560  1.00  0.00     0.117 C 
HETATM   21  O1  UNL     1      32.475   4.334   7.239  1.00  0.00    -0.273 OA
ATOM     22  H2  UNL     1      28.420   6.976   8.128  1.00  0.00     0.164 HD
BRANCH  17  23
HETATM   23  C23 UNL     1      30.142   5.142   8.520  1.00  0.00     0.097 A 
HETATM   24  C24 UNL     1      30.276   5.819   9.897  1.00  0.00     0.028 A 
HETATM   25  C25 UNL     1      31.084   4.608   9.570  1.00  0.00     0.028 A 
ENDBRANCH  17  23
ENDBRANCH  14  15
ENDBRANCH  13  14
ENDBRANCH  12  13
ENDBRANCH   1  12
BRANCH   8  26
HETATM   26  C12 UNL     1      28.033   8.176  16.125  1.00  0.00     0.141 C 
BRANCH  26  27
HETATM   27  N5  UNL     1      28.040   9.448  16.759  1.00  0.00    -0.315 N 
ATOM     28  H5  UNL     1      27.224  10.000  17.023  1.00  0.00     0.172 HD
BRANCH  27  29
HETATM   29  S1  UNL     1      29.754   9.894  17.005  1.00  0.00     0.250 S 
HETATM   30  O4  UNL     1      30.411   8.527  17.001  1.00  0.00    -0.201 OA
HETATM   31  O5  UNL     1      29.821  10.572  18.338  1.00  0.00    -0.201 OA
BRANCH  29  32
HETATM   32  C13 UNL     1      30.175  10.906  15.672  1.00  0.00     0.148 C 
BRANCH  32  33
HETATM   33  C14 UNL     1      31.279  10.655  14.753  1.00  0.00     0.104 C 
BRANCH  33  34
HETATM   34  N6  UNL     1      31.849   9.388  14.660  1.00  0.00    -0.337 N 
HETATM   35  C15 UNL     1      32.310   8.699  13.547  1.00  0.00     0.221 C 
HETATM   36  O6  UNL     1      32.227   9.160  12.394  1.00  0.00    -0.273 OA
ATOM     37  H6  UNL     1      31.943   8.890  15.546  1.00  0.00     0.168 HD
BRANCH  35  38
HETATM   38  C16 UNL     1      32.944   7.334  13.689  1.00  0.00     0.108 C 
BRANCH  38  39
HETATM   39  C17 UNL     1      32.184   6.331  12.889  1.00  0.00    -0.002 A 
HETATM   40  C18 UNL     1      32.602   4.887  13.102  1.00  0.00     0.010 A 
HETATM   41  C19 UNL     1      31.250   5.366  13.507  1.00  0.00    -0.014 A 
HETATM   42  C20 UNL     1      30.968   5.337  14.977  1.00  0.00     0.010 C 
ENDBRANCH  38  39
ENDBRANCH  35  38
ENDBRANCH  33  34
ENDBRANCH  32  33
ENDBRANCH  29  32
ENDBRANCH  27  29
ENDBRANCH  26  27
ENDBRANCH   8  26
TORSDOF 13
ENDMDL
MODEL 2
REMARK VINA RESULT: -8.059216070      3.281      8.898
REMARK  13 active torsions:
REMARK  status: ('A' for Active; 'I' for Inactive)
REMARK       I    between atoms: C2_2  and  N1_4 
REMARK       I    between atoms: N1_4  and  C3_5 
REMARK    1  A    between atoms: N1_4  and  C23_40 
REMARK       I    between atoms: C3_5  and  N2_7 
REMARK    2  A    between atoms: N2_7  and  C4_9 
REMARK    3  A    between atoms: C4_9  and  C5_10 
REMARK    4  A    between atoms: C5_10  and  C6_11 
REMARK    5  A    between atoms: C6_11  and  N3_12 
REMARK       I    between atoms: N3_12  and  C7_14 
REMARK       I    between atoms: C7_14  and  N4_16 
REMARK    6  A    between atoms: C10_19  and  C12_21 
REMARK    7  A    between atoms: C12_21  and  N5_22 
REMARK    8  A    between atoms: N5_22  and  S1_24 
REMARK    9  A    between atoms: S1_24  and  C13_27 
REMARK   10  A    between atoms: C13_27  and  C14_28 
REMARK   11  A    between atoms: C14_28  and  N6_29 
REMARK       I    between atoms: N6_29  and  C15_31 
REMARK   12  A    between atoms: C15_31  and  C16_33 
REMARK   13  A    between atoms: C16_33  and  C17_34 
ROOT
HETATM    1  N3  UNL     1      31.595   6.935  12.618  1.00  0.00    -0.343 N 
ATOM      2  H3  UNL     1      30.937   7.692  12.432  1.00  0.00     0.164 HD
HETATM    3  C7  UNL     1      31.525   5.751  11.849  1.00  0.00     0.318 C 
HETATM    4  O3  UNL     1      32.338   4.824  12.087  1.00  0.00    -0.247 OA
HETATM    5  N4  UNL     1      30.578   5.569  10.825  1.00  0.00    -0.334 N 
HETATM    6  C8  UNL     1      29.578   6.546  10.434  1.00  0.00     0.128 C 
HETATM    7  C9  UNL     1      29.972   7.071   9.071  1.00  0.00     0.031 C 
HETATM    8  C10 UNL     1      30.678   6.079   8.232  1.00  0.00    -0.024 C 
HETATM    9  C11 UNL     1      32.173   6.337   8.162  1.00  0.00     0.017 C 
HETATM   10  C21 UNL     1      30.412   4.639   8.599  1.00  0.00     0.031 C 
HETATM   11  C22 UNL     1      30.540   4.326  10.048  1.00  0.00     0.128 C 
ENDROOT
BRANCH   1  12
HETATM   12  C6  UNL     1      32.585   7.096  13.668  1.00  0.00     0.126 C 
BRANCH  12  13
HETATM   13  C5  UNL     1      32.096   6.930  15.032  1.00  0.00     0.039 C 
BRANCH  13  14
HETATM   14  C4  UNL     1      30.903   7.540  15.591  1.00  0.00     0.126 C 
BRANCH  14  15
HETATM   15  N2  UNL     1      29.625   6.961  15.353  1.00  0.00    -0.343 N 
HETATM   16  C3  UNL     1      28.670   7.195  14.357  1.00  0.00     0.325 C 
HETATM   17  N1  UNL     1      27.410   6.496  14.226  1.00  0.00    -0.266 N 
HETATM   18  O2  UNL     1      28.887   8.063  13.502  1.00  0.00    -0.247 OA
HETATM   19  C2  UNL     1      26.508   6.812  13.188  1.00  0.00     0.224 C 
HETATM   20  C1  UNL     1      26.757   7.858  12.171  1.00  0.00     0.117 C 
HETATM   21  O1  UNL     1      25.419   6.199  13.080  1.00  0.00    -0.273 OA
ATOM     22  H2  UNL     1      29.358   6.245  16.029  1.00  0.00     0.164 HD
BRANCH  17  23
HETATM   23  C23 UNL     1      27.088   5.464  15.180  1.00  0.00     0.097 A 
HETATM   24  C24 UNL     1      28.149   4.407  15.539  1.00  0.00     0.028 A 
HETATM   25  C25 UNL     1      26.965   4.036  14.711  1.00  0.00     0.028 A 
ENDBRANCH  17  23
ENDBRANCH  14  15
ENDBRANCH  13  14
ENDBRANCH  12  13
ENDBRANCH   1  12
BRANCH   8  26
HETATM   26  C12 UNL     1      30.168   6.220   6.787  1.00  0.00     0.141 C 
BRANCH  26  27
HETATM   27  N5  UNL     1      29.341   7.363   6.616  1.00  0.00    -0.315 N 
ATOM     28  H5  UNL     1      28.920   7.924   7.356  1.00  0.00     0.172 HD
BRANCH  27  29
HETATM   29  S1  UNL     1      29.182   7.628   4.855  1.00  0.00     0.250 S 
HETATM   30  O4  UNL     1      28.035   8.620   4.816  1.00  0.00    -0.201 OA
HETATM   31  O5  UNL     1      28.828   6.300   4.264  1.00  0.00    -0.201 OA
BRANCH  29  32
HETATM   32  C13 UNL     1      30.703   8.256   4.332  1.00  0.00     0.148 C 
BRANCH  32  33
HETATM   33  C14 UNL     1      31.642   7.551   3.469  1.00  0.00     0.104 C 
BRANCH  33  34
HETATM   34  N6  UNL     1      32.196   6.337   3.867  1.00  0.00    -0.337 N 
HETATM   35  C15 UNL     1      33.329   6.083   4.628  1.00  0.00     0.221 C 
HETATM   36  O6  UNL     1      34.067   6.992   5.051  1.00  0.00    -0.273 OA
ATOM     37  H6  UNL     1      31.693   5.507   3.552  1.00  0.00     0.168 HD
BRANCH  35  38
HETATM   38  C16 UNL     1      33.722   4.668   4.983  1.00  0.00     0.108 C 
BRANCH  38  39
HETATM   39  C17 UNL     1      35.101   4.646   5.549  1.00  0.00    -0.002 A 
HETATM   40  C18 UNL     1      35.656   3.264   5.844  1.00  0.00     0.010 A 
HETATM   41  C19 UNL     1      36.262   4.131   4.793  1.00  0.00    -0.014 A 
HETATM   42  C20 UNL     1      36.154   3.618   3.392  1.00  0.00     0.010 C 
ENDBRANCH  38  39
ENDBRANCH  35  38
ENDBRANCH  33  34
ENDBRANCH  32  33
ENDBRANCH  29  32
ENDBRANCH  27  29
ENDBRANCH  26  27
ENDBRANCH   8  26
TORSDOF 13
ENDMDL
MODEL 3
REMARK VINA RESULT: -8.010309393      3.024      7.937
REMARK  13 active torsions:
REMARK  status: ('A' for Active; 'I' for Inactive)
REMARK       I    between atoms: C2_2  and  N1_4 
REMARK       I    between atoms: N1_4  and  C3_5 
REMARK    1  A    between atoms: N1_4  and  C23_40 
REMARK       I    between atoms: C3_5  and  N2_7 
REMARK    2  A    between atoms: N2_7  and  C4_9 
REMARK    3  A    between atoms: C4_9  and  C5_10 
REMARK    4  A    between atoms: C5_10  and  C6_11 
REMARK    5  A    between atoms: C6_11  and  N3_12 
REMARK       I    between atoms: N3_12  and  C7_14 
REMARK       I    between atoms: C7_14  and  N4_16 
REMARK    6  A    between atoms: C10_19  and  C12_21 
REMARK    7  A    between atoms: C12_21  and  N5_22 
REMARK    8  A    between atoms: N5_22  and  S1_24 
REMARK    9  A    between atoms: S1_24  and  C13_27 
REMARK   10  A    between atoms: C13_27  and  C14_28 
REMARK   11  A    between atoms: C14_28  and  N6_29 
REMARK       I    between atoms: N6_29  and  C15_31 
REMARK   12  A    between atoms: C15_31  and  C16_33 
REMARK   13  A    between atoms: C16_33  and  C17_34 
ROOT
HETATM    1  N3  UNL     1      28.115  10.424  14.870  1.00  0.00    -0.343 N 
ATOM      2  H3  UNL     1      28.577  11.139  14.307  1.00  0.00     0.164 HD
HETATM    3  C7  UNL     1      27.305   9.457  14.231  1.00  0.00     0.318 C 
HETATM    4  O3  UNL     1      26.738   8.582  14.932  1.00  0.00    -0.247 OA
HETATM    5  N4  UNL     1      27.108   9.435  12.839  1.00  0.00    -0.334 N 
HETATM    6  C8  UNL     1      27.694  10.375  11.902  1.00  0.00     0.128 C 
HETATM    7  C9  UNL     1      28.734   9.621  11.100  1.00  0.00     0.031 C 
HETATM    8  C10 UNL     1      28.410   8.191  10.903  1.00  0.00    -0.024 C 
HETATM    9  C11 UNL     1      29.231   7.282  11.799  1.00  0.00     0.017 C 
HETATM   10  C21 UNL     1      26.943   7.855  11.016  1.00  0.00     0.031 C 
HETATM   11  C22 UNL     1      26.262   8.412  12.215  1.00  0.00     0.128 C 
ENDROOT
BRANCH   1  12
HETATM   12  C6  UNL     1      28.302  10.421  16.310  1.00  0.00     0.126 C 
BRANCH  12  13
HETATM   13  C5  UNL     1      29.667  10.640  16.773  1.00  0.00     0.039 C 
BRANCH  13  14
HETATM   14  C4  UNL     1      30.543   9.637  17.352  1.00  0.00     0.126 C 
BRANCH  14  15
HETATM   15  N2  UNL     1      31.046   8.577  16.546  1.00  0.00    -0.343 N 
HETATM   16  C3  UNL     1      30.446   7.405  16.073  1.00  0.00     0.325 C 
HETATM   17  N1  UNL     1      31.085   6.421  15.226  1.00  0.00    -0.266 N 
HETATM   18  O2  UNL     1      29.273   7.157  16.382  1.00  0.00    -0.247 OA
HETATM   19  C2  UNL     1      30.395   5.264  14.806  1.00  0.00     0.224 C 
HETATM   20  C1  UNL     1      28.997   4.958  15.185  1.00  0.00     0.117 C 
HETATM   21  O1  UNL     1      30.956   4.418  14.070  1.00  0.00    -0.273 OA
ATOM     22  H2  UNL     1      32.019   8.692  16.262  1.00  0.00     0.164 HD
BRANCH  17  23
HETATM   23  C23 UNL     1      32.449   6.642  14.815  1.00  0.00     0.097 A 
HETATM   24  C24 UNL     1      32.759   7.736  13.777  1.00  0.00     0.028 A 
HETATM   25  C25 UNL     1      32.863   6.295  13.407  1.00  0.00     0.028 A 
ENDBRANCH  17  23
ENDBRANCH  14  15
ENDBRANCH  13  14
ENDBRANCH  12  13
ENDBRANCH   1  12
BRANCH   8  26
HETATM   26  C12 UNL     1      28.795   7.806   9.463  1.00  0.00     0.141 C 
BRANCH  26  27
HETATM   27  N5  UNL     1      29.017   6.409   9.320  1.00  0.00    -0.315 N 
ATOM     28  H5  UNL     1      28.416   5.660   9.663  1.00  0.00     0.172 HD
BRANCH  27  29
HETATM   29  S1  UNL     1      30.551   6.219   8.421  1.00  0.00     0.250 S 
HETATM   30  O4  UNL     1      31.014   4.866   8.926  1.00  0.00    -0.201 OA
HETATM   31  O5  UNL     1      31.435   7.343   8.863  1.00  0.00    -0.201 OA
BRANCH  29  32
HETATM   32  C13 UNL     1      30.128   6.263   6.748  1.00  0.00     0.148 C 
BRANCH  32  33
HETATM   33  C14 UNL     1      30.729   5.429   5.716  1.00  0.00     0.104 C 
BRANCH  33  34
HETATM   34  N6  UNL     1      32.019   4.925   5.873  1.00  0.00    -0.337 N 
HETATM   35  C15 UNL     1      33.163   5.161   5.125  1.00  0.00     0.221 C 
HETATM   36  O6  UNL     1      33.163   5.886   4.114  1.00  0.00    -0.273 OA
ATOM     37  H6  UNL     1      32.140   4.286   6.659  1.00  0.00     0.168 HD
BRANCH  35  38
HETATM   38  C16 UNL     1      34.484   4.535   5.512  1.00  0.00     0.108 C 
BRANCH  38  39
HETATM   39  C17 UNL     1      34.819   3.426   4.575  1.00  0.00    -0.002 A 
HETATM   40  C18 UNL     1      36.190   3.519   3.929  1.00  0.00     0.010 A 
HETATM   41  C19 UNL     1      35.856   2.417   4.876  1.00  0.00    -0.014 A 
HETATM   42  C20 UNL     1      36.632   2.409   6.156  1.00  0.00     0.010 C 
ENDBRANCH  38  39
ENDBRANCH  35  38
ENDBRANCH  33  34
ENDBRANCH  32  33
ENDBRANCH  29  32
ENDBRANCH  27  29
ENDBRANCH  26  27
ENDBRANCH   8  26
TORSDOF 13
ENDMDL
MODEL 4
REMARK VINA RESULT: -7.982669262      2.537      3.933
REMARK  13 active torsions:
REMARK  status: ('A' for Active; 'I' for Inactive)
REMARK       I    between atoms: C2_2  and  N1_4 
REMARK       I    between atoms: N1_4  and  C3_5 
REMARK    1  A    between atoms: N1_4  and  C23_40 
REMARK       I    between atoms: C3_5  and  N2_7 
REMARK    2  A    between atoms: N2_7  and  C4_9 
REMARK    3  A    between atoms: C4_9  and  C5_10 
REMARK    4  A    between atoms: C5_10  and  C6_11 
REMARK    5  A    between atoms: C6_11  and  N3_12 
REMARK       I    between atoms: N3_12  and  C7_14 
REMARK       I    between atoms: C7_14  and  N4_16 
REMARK    6  A    between atoms: C10_19  and  C12_21 
REMARK    7  A    between atoms: C12_21  and  N5_22 
REMARK    8  A    between atoms: N5_22  and  S1_24 
REMARK    9  A    between atoms: S1_24  and  C13_27 
REMARK   10  A    between atoms: C13_27  and  C14_28 
REMARK   11  A    between atoms: C14_28  and  N6_29 
REMARK       I    between atoms: N6_29  and  C15_31 
REMARK   12  A    between atoms: C15_31  and  C16_33 
REMARK   13  A    between atoms: C16_33  and  C17_34 
ROOT
HETATM    1  N3  UNL     1      29.444   6.568   9.376  1.00  0.00    -0.343 N 
ATOM      2  H3  UNL     1      29.848   6.079  10.175  1.00  0.00     0.164 HD
HETATM    3  C7  UNL     1      28.415   7.514   9.592  1.00  0.00     0.318 C 
HETATM    4  O3  UNL     1      27.922   8.110   8.602  1.00  0.00    -0.247 OA
HETATM    5  N4  UNL     1      27.920   7.815  10.873  1.00  0.00    -0.334 N 
HETATM    6  C8  UNL     1      28.388   7.212  12.107  1.00  0.00     0.128 C 
HETATM    7  C9  UNL     1      29.142   8.280  12.871  1.00  0.00     0.031 C 
HETATM    8  C10 UNL     1      28.631   9.648  12.641  1.00  0.00    -0.024 C 
HETATM    9  C11 UNL     1      29.523  10.452  11.712  1.00  0.00     0.017 C 
HETATM   10  C21 UNL     1      27.196   9.716  12.179  1.00  0.00     0.031 C 
HETATM   11  C22 UNL     1      26.854   8.806  11.054  1.00  0.00     0.128 C 
ENDROOT
BRANCH   1  12
HETATM   12  C6  UNL     1      29.936   6.279   8.041  1.00  0.00     0.126 C 
BRANCH  12  13
HETATM   13  C5  UNL     1      30.434   4.925   7.828  1.00  0.00     0.039 C 
BRANCH  13  14
HETATM   14  C4  UNL     1      31.805   4.482   8.008  1.00  0.00     0.126 C 
BRANCH  14  15
HETATM   15  N2  UNL     1      32.685   4.409   6.892  1.00  0.00    -0.343 N 
HETATM   16  C3  UNL     1      33.431   5.392   6.232  1.00  0.00     0.325 C 
HETATM   17  N1  UNL     1      34.317   5.158   5.112  1.00  0.00    -0.266 N 
HETATM   18  O2  UNL     1      33.352   6.568   6.609  1.00  0.00    -0.247 OA
HETATM   19  C2  UNL     1      35.022   6.219   4.508  1.00  0.00     0.224 C 
HETATM   20  C1  UNL     1      34.921   7.629   4.948  1.00  0.00     0.117 C 
HETATM   21  O1  UNL     1      35.790   6.007   3.540  1.00  0.00    -0.273 OA
ATOM     22  H2  UNL     1      32.791   3.472   6.503  1.00  0.00     0.164 HD
BRANCH  17  23
HETATM   23  C23 UNL     1      34.469   3.811   4.619  1.00  0.00     0.097 A 
HETATM   24  C24 UNL     1      35.463   2.859   5.310  1.00  0.00     0.028 A 
HETATM   25  C25 UNL     1      35.761   3.408   3.956  1.00  0.00     0.028 A 
ENDBRANCH  17  23
ENDBRANCH  14  15
ENDBRANCH  13  14
ENDBRANCH  12  13
ENDBRANCH   1  12
BRANCH   8  26
HETATM   26  C12 UNL     1      28.651  10.401  13.983  1.00  0.00     0.141 C 
BRANCH  26  27
HETATM   27  N5  UNL     1      29.716  11.340  14.060  1.00  0.00    -0.315 N 
ATOM     28  H5  UNL     1      29.749  12.258  13.616  1.00  0.00     0.172 HD
BRANCH  27  29
HETATM   29  S1  UNL     1      30.984  10.603  15.081  1.00  0.00     0.250 S 
HETATM   30  O4  UNL     1      31.585  11.836  15.729  1.00  0.00    -0.201 OA
HETATM   31  O5  UNL     1      31.927   9.916  14.144  1.00  0.00    -0.201 OA
BRANCH  29  32
HETATM   32  C13 UNL     1      30.161   9.542  16.166  1.00  0.00     0.148 C 
BRANCH  32  33
HETATM   33  C14 UNL     1      30.748   8.354  16.774  1.00  0.00     0.104 C 
BRANCH  33  34
HETATM   34  N6  UNL     1      31.067   7.244  15.996  1.00  0.00    -0.337 N 
HETATM   35  C15 UNL     1      30.271   6.179  15.597  1.00  0.00     0.221 C 
HETATM   36  O6  UNL     1      29.082   6.065  15.949  1.00  0.00    -0.273 OA
ATOM     37  H6  UNL     1      32.033   7.207  15.669  1.00  0.00     0.168 HD
BRANCH  35  38
HETATM   38  C16 UNL     1      30.822   5.093  14.701  1.00  0.00     0.108 C 
BRANCH  38  39
HETATM   39  C17 UNL     1      31.703   5.690  13.657  1.00  0.00    -0.002 A 
HETATM   40  C18 UNL     1      32.782   4.767  13.120  1.00  0.00     0.010 A 
HETATM   41  C19 UNL     1      31.674   5.248  12.246  1.00  0.00    -0.014 A 
HETATM   42  C20 UNL     1      30.740   4.190  11.747  1.00  0.00     0.010 C 
ENDBRANCH  38  39
ENDBRANCH  35  38
ENDBRANCH  33  34
ENDBRANCH  32  33
ENDBRANCH  29  32
ENDBRANCH  27  29
ENDBRANCH  26  27
ENDBRANCH   8  26
TORSDOF 13
ENDMDL
MODEL 5
REMARK VINA RESULT: -7.961252799      2.344      3.802
REMARK  13 active torsions:
REMARK  status: ('A' for Active; 'I' for Inactive)
REMARK       I    between atoms: C2_2  and  N1_4 
REMARK       I    between atoms: N1_4  and  C3_5 
REMARK    1  A    between atoms: N1_4  and  C23_40 
REMARK       I    between atoms: C3_5  and  N2_7 
REMARK    2  A    between atoms: N2_7  and  C4_9 
REMARK    3  A    between atoms: C4_9  and  C5_10 
REMARK    4  A    between atoms: C5_10  and  C6_11 
REMARK    5  A    between atoms: C6_11  and  N3_12 
REMARK       I    between atoms: N3_12  and  C7_14 
REMARK       I    between atoms: C7_14  and  N4_16 
REMARK    6  A    between atoms: C10_19  and  C12_21 
REMARK    7  A    between atoms: C12_21  and  N5_22 
REMARK    8  A    between atoms: N5_22  and  S1_24 
REMARK    9  A    between atoms: S1_24  and  C13_27 
REMARK   10  A    between atoms: C13_27  and  C14_28 
REMARK   11  A    between atoms: C14_28  and  N6_29 
REMARK       I    between atoms: N6_29  and  C15_31 
REMARK   12  A    between atoms: C15_31  and  C16_33 
REMARK   13  A    between atoms: C16_33  and  C17_34 
ROOT
HETATM    1  N3  UNL     1      29.384   5.658   9.412  1.00  0.00    -0.343 N 
ATOM      2  H3  UNL     1      29.129   5.181  10.277  1.00  0.00     0.164 HD
HETATM    3  C7  UNL     1      29.175   7.052   9.303  1.00  0.00     0.318 C 
HETATM    4  O3  UNL     1      29.490   7.630   8.233  1.00  0.00    -0.247 OA
HETATM    5  N4  UNL     1      28.627   7.819  10.346  1.00  0.00    -0.334 N 
HETATM    6  C8  UNL     1      28.217   7.296  11.636  1.00  0.00     0.128 C 
HETATM    7  C9  UNL     1      29.203   7.810  12.664  1.00  0.00     0.031 C 
HETATM    8  C10 UNL     1      29.764   9.139  12.336  1.00  0.00    -0.024 C 
HETATM    9  C11 UNL     1      31.186   9.054  11.813  1.00  0.00     0.017 C 
HETATM   10  C21 UNL     1      28.913   9.972  11.410  1.00  0.00     0.031 C 
HETATM   11  C22 UNL     1      28.430   9.264  10.194  1.00  0.00     0.128 C 
ENDROOT
BRANCH   1  12
HETATM   12  C6  UNL     1      29.953   4.892   8.318  1.00  0.00     0.126 C 
BRANCH  12  13
HETATM   13  C5  UNL     1      31.410   4.832   8.276  1.00  0.00     0.039 C 
BRANCH  13  14
HETATM   14  C4  UNL     1      32.265   5.523   7.327  1.00  0.00     0.126 C 
BRANCH  14  15
HETATM   15  N2  UNL     1      31.691   6.272   6.262  1.00  0.00    -0.343 N 
HETATM   16  C3  UNL     1      32.031   7.512   5.710  1.00  0.00     0.325 C 
HETATM   17  N1  UNL     1      31.362   8.142   4.593  1.00  0.00    -0.266 N 
HETATM   18  O2  UNL     1      32.976   8.150   6.191  1.00  0.00    -0.247 OA
HETATM   19  C2  UNL     1      31.777   9.402   4.113  1.00  0.00     0.224 C 
HETATM   20  C1  UNL     1      32.898  10.174   4.693  1.00  0.00     0.117 C 
HETATM   21  O1  UNL     1      31.193   9.940   3.142  1.00  0.00    -0.273 OA
ATOM     22  H2  UNL     1      30.887   5.824   5.821  1.00  0.00     0.164 HD
BRANCH  17  23
HETATM   23  C23 UNL     1      30.255   7.457   3.972  1.00  0.00     0.097 A 
HETATM   24  C24 UNL     1      28.816   7.903   4.287  1.00  0.00     0.028 A 
HETATM   25  C25 UNL     1      29.338   6.613   4.821  1.00  0.00     0.028 A 
ENDBRANCH  17  23
ENDBRANCH  14  15
ENDBRANCH  13  14
ENDBRANCH  12  13
ENDBRANCH   1  12
BRANCH   8  26
HETATM   26  C12 UNL     1      29.852   9.957  13.637  1.00  0.00     0.141 C 
BRANCH  26  27
HETATM   27  N5  UNL     1      28.574  10.369  14.103  1.00  0.00    -0.315 N 
ATOM     28  H5  UNL     1      27.844  10.824  13.554  1.00  0.00     0.172 HD
BRANCH  27  29
HETATM   29  S1  UNL     1      28.491   9.937  15.836  1.00  0.00     0.250 S 
HETATM   30  O4  UNL     1      27.950   8.522  15.754  1.00  0.00    -0.201 OA
HETATM   31  O5  UNL     1      27.528  10.897  16.459  1.00  0.00    -0.201 OA
BRANCH  29  32
HETATM   32  C13 UNL     1      30.106  10.063  16.433  1.00  0.00     0.148 C 
BRANCH  32  33
HETATM   33  C14 UNL     1      30.867   8.963  17.012  1.00  0.00     0.104 C 
BRANCH  33  34
HETATM   34  N6  UNL     1      30.947   7.735  16.358  1.00  0.00    -0.337 N 
HETATM   35  C15 UNL     1      31.808   7.316  15.355  1.00  0.00     0.221 C 
HETATM   36  O6  UNL     1      32.664   8.066  14.852  1.00  0.00    -0.273 OA
ATOM     37  H6  UNL     1      30.268   7.038  16.664  1.00  0.00     0.168 HD
BRANCH  35  38
HETATM   38  C16 UNL     1      31.745   5.903  14.819  1.00  0.00     0.108 C 
BRANCH  38  39
HETATM   39  C17 UNL     1      32.352   5.844  13.459  1.00  0.00    -0.002 A 
HETATM   40  C18 UNL     1      32.885   4.482  13.051  1.00  0.00     0.010 A 
HETATM   41  C19 UNL     1      31.729   5.102  12.343  1.00  0.00    -0.014 A 
HETATM   42  C20 UNL     1      30.426   4.378  12.478  1.00  0.00     0.010 C 
ENDBRANCH  38  39
ENDBRANCH  35  38
ENDBRANCH  33  34
ENDBRANCH  32  33
ENDBRANCH  29  32
ENDBRANCH  27  29
ENDBRANCH  26  27
ENDBRANCH   8  26
TORSDOF 13
ENDMDL
