MODEL 1
REMARK VINA RESULT: -9.235006473      0.000      0.000
REMARK  17 active torsions:
REMARK  status: ('A' for Active; 'I' for Inactive)
REMARK       I    between atoms: C2_2  and  N1_4 
REMARK    1  A    between atoms: N1_4  and  C3_6 
REMARK    2  A    between atoms: C3_6  and  C4_7 
REMARK    3  A    between atoms: C4_7  and  C5_8 
REMARK    4  A    between atoms: C5_8  and  C6_9 
REMARK    5  A    between atoms: C6_9  and  C7_10 
REMARK    6  A    between atoms: C7_10  and  C8_11 
REMARK    7  A    between atoms: C8_11  and  N2_12 
REMARK    8  A    between atoms: C8_11  and  C26_41 
REMARK       I    between atoms: N2_12  and  C9_14 
REMARK    9  A    between atoms: C9_14  and  C10_16 
REMARK   10  A    between atoms: C12_18  and  C13_19 
REMARK   11  A    between atoms: C13_19  and  O3_20 
REMARK   12  A    between atoms: C13_19  and  N3_22 
REMARK   13  A    between atoms: N3_22  and  C14_24 
REMARK   14  A    between atoms: C14_24  and  C15_25 
REMARK   15  A    between atoms: C14_24  and  C20_35 
REMARK       I    between atoms: C15_25  and  N4_27 
REMARK   16  A    between atoms: N4_27  and  C16_29 
REMARK   17  A    between atoms: C16_29  and  C17_30 
ROOT
HETATM    1  C10 UNL     1      31.226   4.994   8.941  1.00  0.00     0.090 A 
HETATM    2  C11 UNL     1      30.716   4.068   7.923  1.00  0.00     0.028 A 
HETATM    3  C12 UNL     1      29.921   5.269   8.154  1.00  0.00     0.074 A 
ENDROOT
BRANCH   3   4
HETATM    4  C13 UNL     1      30.001   6.525   7.393  1.00  0.00     0.120 C 
BRANCH   4   5
HETATM    5  O3  UNL     1      29.176   7.446   7.821  1.00  0.00    -0.349 OA
ATOM      6  H3  UNL     1      29.508   8.329   7.714  1.00  0.00     0.219 HD
ENDBRANCH   4   5
BRANCH   4   7
HETATM    7  N3  UNL     1      30.777   6.858   6.353  1.00  0.00    -0.339 N 
ATOM      8  H3  UNL     1      30.926   7.858   6.492  1.00  0.00     0.167 HD
BRANCH   7   9
HETATM    9  C14 UNL     1      31.396   6.634   5.344  1.00  0.00     0.083 C 
BRANCH   9  10
HETATM   10  C15 UNL     1      32.785   6.132   5.490  1.00  0.00     0.265 C 
HETATM   11  O4  UNL     1      33.462   6.519   6.453  1.00  0.00    -0.266 OA
HETATM   12  N4  UNL     1      33.330   5.226   4.546  1.00  0.00    -0.338 N 
ATOM     13  H4  UNL     1      32.768   4.917   3.754  1.00  0.00     0.164 HD
BRANCH  12  14
HETATM   14  C16 UNL     1      34.699   4.733   4.706  1.00  0.00     0.112 A 
HETATM   15  C18 UNL     1      34.891   3.729   5.811  1.00  0.00     0.043 A 
HETATM   16  C19 UNL     1      34.909   3.268   4.413  1.00  0.00     0.043 A 
BRANCH  14  17
HETATM   17  C17 UNL     1      35.793   5.663   4.345  1.00  0.00     0.259 C 
HETATM   18  N5  UNL     1      35.859   6.203   3.048  1.00  0.00    -0.060 NA
HETATM   19  O5  UNL     1      36.656   5.964   5.190  1.00  0.00    -0.274 OA
ENDBRANCH  14  17
ENDBRANCH  12  14
ENDBRANCH   9  10
BRANCH   9  20
HETATM   20  C20 UNL     1      30.887   6.805   3.966  1.00  0.00     0.041 C 
HETATM   21  C21 UNL     1      29.382   6.919   3.895  1.00  0.00     0.011 C 
HETATM   22  C22 UNL     1      28.993   7.480   2.557  1.00  0.00     0.001 C 
HETATM   23  C23 UNL     1      29.960   7.102   1.453  1.00  0.00     0.000 C 
HETATM   24  C24 UNL     1      31.336   7.687   1.730  1.00  0.00     0.001 C 
HETATM   25  C25 UNL     1      31.485   7.972   3.225  1.00  0.00     0.011 C 
ENDBRANCH   9  20
ENDBRANCH   7   9
ENDBRANCH   4   7
ENDBRANCH   3   4
BRANCH   1  26
HETATM   26  C9  UNL     1      30.985   4.897  10.383  1.00  0.00     0.223 C 
HETATM   27  N2  UNL     1      31.071   6.005  11.273  1.00  0.00    -0.353 N 
ATOM     28  H2  UNL     1      31.301   6.928  10.905  1.00  0.00     0.163 HD
HETATM   29  O2  UNL     1      30.689   3.782  10.886  1.00  0.00    -0.273 OA
BRANCH  27  30
HETATM   30  C8  UNL     1      30.829   5.837  12.735  1.00  0.00     0.111 C 
BRANCH  30  31
HETATM   31  C7  UNL     1      29.675   6.660  13.150  1.00  0.00    -0.006 C 
BRANCH  31  32
HETATM   32  C6  UNL     1      28.510   6.099  13.810  1.00  0.00    -0.029 C 
BRANCH  32  33
HETATM   33  C5  UNL     1      28.411   4.745  14.345  1.00  0.00     0.028 C 
BRANCH  33  34
HETATM   34  C4  UNL     1      27.044   4.178  14.568  1.00  0.00     0.023 C 
BRANCH  34  35
HETATM   35  C3  UNL     1      25.947   4.814  13.787  1.00  0.00     0.123 C 
BRANCH  35  36
HETATM   36  N1  UNL     1      25.089   3.868  13.106  1.00  0.00    -0.361 N 
HETATM   37  C2  UNL     1      23.716   3.716  13.421  1.00  0.00     0.213 C 
HETATM   38  C1  UNL     1      22.846   2.753  12.729  1.00  0.00     0.117 C 
HETATM   39  O1  UNL     1      23.224   4.437  14.331  1.00  0.00    -0.274 OA
ATOM     40  H1  UNL     1      25.489   3.287  12.369  1.00  0.00     0.162 HD
ENDBRANCH  35  36
ENDBRANCH  34  35
ENDBRANCH  33  34
ENDBRANCH  32  33
ENDBRANCH  31  32
ENDBRANCH  30  31
BRANCH  30  41
HETATM   41  C26 UNL     1      32.107   6.262  13.369  1.00  0.00     0.012 C 
HETATM   42  C27 UNL     1      32.343   7.798  13.317  1.00  0.00     0.007 C 
HETATM   43  C28 UNL     1      33.152   7.573  14.604  1.00  0.00     0.001 C 
HETATM   44  C29 UNL     1      32.156   6.415  14.867  1.00  0.00     0.007 C 
ENDBRANCH  30  41
ENDBRANCH  27  30
ENDBRANCH   1  26
TORSDOF 17
ENDMDL
MODEL 2
REMARK VINA RESULT: -9.133511666      1.304      1.519
REMARK  17 active torsions:
REMARK  status: ('A' for Active; 'I' for Inactive)
REMARK       I    between atoms: C2_2  and  N1_4 
REMARK    1  A    between atoms: N1_4  and  C3_6 
REMARK    2  A    between atoms: C3_6  and  C4_7 
REMARK    3  A    between atoms: C4_7  and  C5_8 
REMARK    4  A    between atoms: C5_8  and  C6_9 
REMARK    5  A    between atoms: C6_9  and  C7_10 
REMARK    6  A    between atoms: C7_10  and  C8_11 
REMARK    7  A    between atoms: C8_11  and  N2_12 
REMARK    8  A    between atoms: C8_11  and  C26_41 
REMARK       I    between atoms: N2_12  and  C9_14 
REMARK    9  A    between atoms: C9_14  and  C10_16 
REMARK   10  A    between atoms: C12_18  and  C13_19 
REMARK   11  A    between atoms: C13_19  and  O3_20 
REMARK   12  A    between atoms: C13_19  and  N3_22 
REMARK   13  A    between atoms: N3_22  and  C14_24 
REMARK   14  A    between atoms: C14_24  and  C15_25 
REMARK   15  A    between atoms: C14_24  and  C20_35 
REMARK       I    between atoms: C15_25  and  N4_27 
REMARK   16  A    between atoms: N4_27  and  C16_29 
REMARK   17  A    between atoms: C16_29  and  C17_30 
ROOT
HETATM    1  C10 UNL     1      30.245   5.603   9.981  1.00  0.00     0.090 A 
HETATM    2  C11 UNL     1      31.056   6.660   9.367  1.00  0.00     0.028 A 
HETATM    3  C12 UNL     1      31.330   5.299   8.918  1.00  0.00     0.074 A 
ENDROOT
BRANCH   3   4
HETATM    4  C13 UNL     1      30.758   4.643   7.733  1.00  0.00     0.120 C 
BRANCH   4   5
HETATM    5  O3  UNL     1      29.941   3.663   8.024  1.00  0.00    -0.349 OA
ATOM      6  H3  UNL     1      30.001   2.930   7.423  1.00  0.00     0.219 HD
ENDBRANCH   4   5
BRANCH   4   7
HETATM    7  N3  UNL     1      30.943   4.894   6.430  1.00  0.00    -0.339 N 
ATOM      8  H3  UNL     1      30.068   4.580   6.012  1.00  0.00     0.167 HD
BRANCH   7   9
HETATM    9  C14 UNL     1      31.569   5.285   5.479  1.00  0.00     0.083 C 
BRANCH   9  10
HETATM   10  C15 UNL     1      33.047   5.172   5.537  1.00  0.00     0.265 C 
HETATM   11  O4  UNL     1      33.683   5.994   6.212  1.00  0.00    -0.266 OA
HETATM   12  N4  UNL     1      33.723   4.142   4.835  1.00  0.00    -0.338 N 
ATOM     13  H4  UNL     1      33.192   3.473   4.278  1.00  0.00     0.164 HD
BRANCH  12  14
HETATM   14  C16 UNL     1      35.181   4.037   4.907  1.00  0.00     0.112 A 
HETATM   15  C18 UNL     1      35.727   3.644   6.253  1.00  0.00     0.043 A 
HETATM   16  C19 UNL     1      35.730   2.655   5.163  1.00  0.00     0.043 A 
BRANCH  14  17
HETATM   17  C17 UNL     1      35.962   4.925   4.017  1.00  0.00     0.259 C 
HETATM   18  N5  UNL     1      36.324   4.490   2.729  1.00  0.00    -0.060 NA
HETATM   19  O5  UNL     1      36.300   6.057   4.409  1.00  0.00    -0.274 OA
ENDBRANCH  14  17
ENDBRANCH  12  14
ENDBRANCH   9  10
BRANCH   9  20
HETATM   20  C20 UNL     1      30.989   5.861   4.245  1.00  0.00     0.041 C 
HETATM   21  C21 UNL     1      29.524   6.205   4.378  1.00  0.00     0.011 C 
HETATM   22  C22 UNL     1      29.132   7.128   3.259  1.00  0.00     0.001 C 
HETATM   23  C23 UNL     1      29.932   6.896   1.993  1.00  0.00     0.000 C 
HETATM   24  C24 UNL     1      31.405   7.190   2.235  1.00  0.00     0.001 C 
HETATM   25  C25 UNL     1      31.715   7.075   3.727  1.00  0.00     0.011 C 
ENDBRANCH   9  20
ENDBRANCH   7   9
ENDBRANCH   4   7
ENDBRANCH   3   4
BRANCH   1  26
HETATM   26  C9  UNL     1      30.529   4.940  11.257  1.00  0.00     0.223 C 
HETATM   27  N2  UNL     1      30.664   5.634  12.492  1.00  0.00    -0.353 N 
ATOM     28  H2  UNL     1      30.550   6.647  12.514  1.00  0.00     0.163 HD
HETATM   29  O2  UNL     1      30.672   3.690  11.285  1.00  0.00    -0.273 OA
BRANCH  27  30
HETATM   30  C8  UNL     1      30.971   4.902  13.755  1.00  0.00     0.111 C 
BRANCH  30  31
HETATM   31  C7  UNL     1      29.771   4.863  14.616  1.00  0.00    -0.006 C 
BRANCH  31  32
HETATM   32  C6  UNL     1      28.441   5.166  14.120  1.00  0.00    -0.029 C 
BRANCH  32  33
HETATM   33  C5  UNL     1      27.290   4.271  14.184  1.00  0.00     0.028 C 
BRANCH  33  34
HETATM   34  C4  UNL     1      25.924   4.879  14.124  1.00  0.00     0.023 C 
BRANCH  34  35
HETATM   35  C3  UNL     1      24.902   4.095  13.375  1.00  0.00     0.123 C 
BRANCH  35  36
HETATM   36  N1  UNL     1      23.550   4.291  13.851  1.00  0.00    -0.361 N 
HETATM   37  C2  UNL     1      22.521   3.339  13.644  1.00  0.00     0.213 C 
HETATM   38  C1  UNL     1      21.146   3.542  14.128  1.00  0.00     0.117 C 
HETATM   39  O1  UNL     1      22.798   2.279  13.021  1.00  0.00    -0.274 OA
ATOM     40  H1  UNL     1      23.328   5.149  14.357  1.00  0.00     0.162 HD
ENDBRANCH  35  36
ENDBRANCH  34  35
ENDBRANCH  33  34
ENDBRANCH  32  33
ENDBRANCH  31  32
ENDBRANCH  30  31
BRANCH  30  41
HETATM   41  C26 UNL     1      32.097   5.666  14.358  1.00  0.00     0.012 C 
HETATM   42  C27 UNL     1      32.543   6.887  13.504  1.00  0.00     0.007 C 
HETATM   43  C28 UNL     1      32.970   7.491  14.852  1.00  0.00     0.001 C 
HETATM   44  C29 UNL     1      31.793   6.672  15.439  1.00  0.00     0.007 C 
ENDBRANCH  30  41
ENDBRANCH  27  30
ENDBRANCH   1  26
TORSDOF 17
ENDMDL
MODEL 3
REMARK VINA RESULT: -9.099372072      2.844      5.309
REMARK  17 active torsions:
REMARK  status: ('A' for Active; 'I' for Inactive)
REMARK       I    between atoms: C2_2  and  N1_4 
REMARK    1  A    between atoms: N1_4  and  C3_6 
REMARK    2  A    between atoms: C3_6  and  C4_7 
REMARK    3  A    between atoms: C4_7  and  C5_8 
REMARK    4  A    between atoms: C5_8  and  C6_9 
REMARK    5  A    between atoms: C6_9  and  C7_10 
REMARK    6  A    between atoms: C7_10  and  C8_11 
REMARK    7  A    between atoms: C8_11  and  N2_12 
REMARK    8  A    between atoms: C8_11  and  C26_41 
REMARK       I    between atoms: N2_12  and  C9_14 
REMARK    9  A    between atoms: C9_14  and  C10_16 
REMARK   10  A    between atoms: C12_18  and  C13_19 
REMARK   11  A    between atoms: C13_19  and  O3_20 
REMARK   12  A    between atoms: C13_19  and  N3_22 
REMARK   13  A    between atoms: N3_22  and  C14_24 
REMARK   14  A    between atoms: C14_24  and  C15_25 
REMARK   15  A    between atoms: C14_24  and  C20_35 
REMARK       I    between atoms: C15_25  and  N4_27 
REMARK   16  A    between atoms: N4_27  and  C16_29 
REMARK   17  A    between atoms: C16_29  and  C17_30 
ROOT
HETATM    1  C10 UNL     1      32.244   5.730  13.165  1.00  0.00     0.090 A 
HETATM    2  C11 UNL     1      32.894   4.422  13.033  1.00  0.00     0.028 A 
HETATM    3  C12 UNL     1      31.490   4.482  12.644  1.00  0.00     0.074 A 
ENDROOT
BRANCH   3   4
HETATM    4  C13 UNL     1      30.972   4.690  11.283  1.00  0.00     0.120 C 
BRANCH   4   5
HETATM    5  O3  UNL     1      31.358   3.772  10.435  1.00  0.00    -0.349 OA
ATOM      6  H3  UNL     1      31.276   4.039   9.527  1.00  0.00     0.219 HD
ENDBRANCH   4   5
BRANCH   4   7
HETATM    7  N3  UNL     1      30.182   5.656  10.796  1.00  0.00    -0.339 N 
ATOM      8  H3  UNL     1      29.251   5.350  11.078  1.00  0.00     0.167 HD
BRANCH   7   9
HETATM    9  C14 UNL     1      29.960   6.684  10.211  1.00  0.00     0.083 C 
BRANCH   9  10
HETATM   10  C15 UNL     1      30.399   6.776   8.797  1.00  0.00     0.265 C 
HETATM   11  O4  UNL     1      31.394   7.462   8.523  1.00  0.00    -0.266 OA
HETATM   12  N4  UNL     1      29.696   6.091   7.774  1.00  0.00    -0.338 N 
ATOM     13  H4  UNL     1      28.875   5.532   8.007  1.00  0.00     0.164 HD
BRANCH  12  14
HETATM   14  C16 UNL     1      30.144   6.184   6.384  1.00  0.00     0.112 A 
HETATM   15  C18 UNL     1      31.531   5.660   6.124  1.00  0.00     0.043 A 
HETATM   16  C19 UNL     1      30.372   4.871   5.676  1.00  0.00     0.043 A 
BRANCH  14  17
HETATM   17  C17 UNL     1      29.608   7.306   5.580  1.00  0.00     0.259 C 
HETATM   18  N5  UNL     1      28.222   7.425   5.373  1.00  0.00    -0.060 NA
HETATM   19  O5  UNL     1      30.386   8.143   5.085  1.00  0.00    -0.274 OA
ENDBRANCH  14  17
ENDBRANCH  12  14
ENDBRANCH   9  10
BRANCH   9  20
HETATM   20  C20 UNL     1      29.273   7.866  10.778  1.00  0.00     0.041 C 
HETATM   21  C21 UNL     1      28.119   7.508  11.683  1.00  0.00     0.011 C 
HETATM   22  C22 UNL     1      27.750   8.708  12.509  1.00  0.00     0.001 C 
HETATM   23  C23 UNL     1      28.016  10.019  11.797  1.00  0.00     0.000 C 
HETATM   24  C24 UNL     1      29.503  10.183  11.524  1.00  0.00     0.001 C 
HETATM   25  C25 UNL     1      30.180   8.813  11.519  1.00  0.00     0.011 C 
ENDBRANCH   9  20
ENDBRANCH   7   9
ENDBRANCH   4   7
ENDBRANCH   3   4
BRANCH   1  26
HETATM   26  C9  UNL     1      31.637   6.264  14.388  1.00  0.00     0.223 C 
HETATM   27  N2  UNL     1      30.545   7.176  14.393  1.00  0.00    -0.353 N 
ATOM     28  H2  UNL     1      30.140   7.479  13.507  1.00  0.00     0.163 HD
HETATM   29  O2  UNL     1      32.094   5.915  15.508  1.00  0.00    -0.273 OA
BRANCH  27  30
HETATM   30  C8  UNL     1      29.982   7.696  15.672  1.00  0.00     0.111 C 
BRANCH  30  31
HETATM   31  C7  UNL     1      28.674   7.064  15.938  1.00  0.00    -0.006 C 
BRANCH  31  32
HETATM   32  C6  UNL     1      28.100   6.053  15.068  1.00  0.00    -0.029 C 
BRANCH  32  33
HETATM   33  C5  UNL     1      27.980   4.634  15.386  1.00  0.00     0.028 C 
BRANCH  33  34
HETATM   34  C4  UNL     1      27.028   3.811  14.576  1.00  0.00     0.023 C 
BRANCH  34  35
HETATM   35  C3  UNL     1      26.005   4.578  13.810  1.00  0.00     0.123 C 
BRANCH  35  36
HETATM   36  N1  UNL     1      25.050   3.744  13.114  1.00  0.00    -0.361 N 
HETATM   37  C2  UNL     1      23.673   3.713  13.450  1.00  0.00     0.213 C 
HETATM   38  C1  UNL     1      22.703   2.862  12.742  1.00  0.00     0.117 C 
HETATM   39  O1  UNL     1      23.268   4.444  14.394  1.00  0.00    -0.274 OA
ATOM     40  H1  UNL     1      25.380   3.154  12.349  1.00  0.00     0.162 HD
ENDBRANCH  35  36
ENDBRANCH  34  35
ENDBRANCH  33  34
ENDBRANCH  32  33
ENDBRANCH  31  32
ENDBRANCH  30  31
BRANCH  30  41
HETATM   41  C26 UNL     1      29.889   9.166  15.462  1.00  0.00     0.012 C 
HETATM   42  C27 UNL     1      30.171   9.995  16.747  1.00  0.00     0.007 C 
HETATM   43  C28 UNL     1      30.654  11.078  15.769  1.00  0.00     0.001 C 
HETATM   44  C29 UNL     1      31.071   9.889  14.868  1.00  0.00     0.007 C 
ENDBRANCH  30  41
ENDBRANCH  27  30
ENDBRANCH   1  26
TORSDOF 17
ENDMDL
MODEL 4
REMARK VINA RESULT: -8.965028484      1.846      2.301
REMARK  17 active torsions:
REMARK  status: ('A' for Active; 'I' for Inactive)
REMARK       I    between atoms: C2_2  and  N1_4 
REMARK    1  A    between atoms: N1_4  and  C3_6 
REMARK    2  A    between atoms: C3_6  and  C4_7 
REMARK    3  A    between atoms: C4_7  and  C5_8 
REMARK    4  A    between atoms: C5_8  and  C6_9 
REMARK    5  A    between atoms: C6_9  and  C7_10 
REMARK    6  A    between atoms: C7_10  and  C8_11 
REMARK    7  A    between atoms: C8_11  and  N2_12 
REMARK    8  A    between atoms: C8_11  and  C26_41 
REMARK       I    between atoms: N2_12  and  C9_14 
REMARK    9  A    between atoms: C9_14  and  C10_16 
REMARK   10  A    between atoms: C12_18  and  C13_19 
REMARK   11  A    between atoms: C13_19  and  O3_20 
REMARK   12  A    between atoms: C13_19  and  N3_22 
REMARK   13  A    between atoms: N3_22  and  C14_24 
REMARK   14  A    between atoms: C14_24  and  C15_25 
REMARK   15  A    between atoms: C14_24  and  C20_35 
REMARK       I    between atoms: C15_25  and  N4_27 
REMARK   16  A    between atoms: N4_27  and  C16_29 
REMARK   17  A    between atoms: C16_29  and  C17_30 
ROOT
HETATM    1  C10 UNL     1      30.288   5.637   9.961  1.00  0.00     0.090 A 
HETATM    2  C11 UNL     1      31.192   6.613   9.342  1.00  0.00     0.028 A 
HETATM    3  C12 UNL     1      31.378   5.223   8.942  1.00  0.00     0.074 A 
ENDROOT
BRANCH   3   4
HETATM    4  C13 UNL     1      30.794   4.573   7.758  1.00  0.00     0.120 C 
BRANCH   4   5
HETATM    5  O3  UNL     1      29.942   3.625   8.053  1.00  0.00    -0.349 OA
ATOM      6  H3  UNL     1      29.741   3.058   7.318  1.00  0.00     0.219 HD
ENDBRANCH   4   5
BRANCH   4   7
HETATM    7  N3  UNL     1      31.000   4.805   6.455  1.00  0.00    -0.339 N 
ATOM      8  H3  UNL     1      30.178   4.387   6.018  1.00  0.00     0.167 HD
BRANCH   7   9
HETATM    9  C14 UNL     1      31.615   5.231   5.512  1.00  0.00     0.083 C 
BRANCH   9  10
HETATM   10  C15 UNL     1      33.095   5.132   5.558  1.00  0.00     0.265 C 
HETATM   11  O4  UNL     1      33.728   5.950   6.239  1.00  0.00    -0.266 OA
HETATM   12  N4  UNL     1      33.775   4.118   4.836  1.00  0.00    -0.338 N 
ATOM     13  H4  UNL     1      33.246   3.452   4.273  1.00  0.00     0.164 HD
BRANCH  12  14
HETATM   14  C16 UNL     1      35.234   4.026   4.895  1.00  0.00     0.112 A 
HETATM   15  C18 UNL     1      35.793   3.604   6.227  1.00  0.00     0.043 A 
HETATM   16  C19 UNL     1      35.798   2.644   5.112  1.00  0.00     0.043 A 
BRANCH  14  17
HETATM   17  C17 UNL     1      36.000   4.944   4.022  1.00  0.00     0.259 C 
HETATM   18  N5  UNL     1      36.276   4.584   2.691  1.00  0.00    -0.060 NA
HETATM   19  O5  UNL     1      36.402   6.035   4.468  1.00  0.00    -0.274 OA
ENDBRANCH  14  17
ENDBRANCH  12  14
ENDBRANCH   9  10
BRANCH   9  20
HETATM   20  C20 UNL     1      31.021   5.839   4.300  1.00  0.00     0.041 C 
HETATM   21  C21 UNL     1      29.550   6.150   4.448  1.00  0.00     0.011 C 
HETATM   22  C22 UNL     1      29.137   7.104   3.363  1.00  0.00     0.001 C 
HETATM   23  C23 UNL     1      29.939   6.933   2.089  1.00  0.00     0.000 C 
HETATM   24  C24 UNL     1      31.407   7.247   2.339  1.00  0.00     0.001 C 
HETATM   25  C25 UNL     1      31.723   7.085   3.825  1.00  0.00     0.011 C 
ENDBRANCH   9  20
ENDBRANCH   7   9
ENDBRANCH   4   7
ENDBRANCH   3   4
BRANCH   1  26
HETATM   26  C9  UNL     1      30.485   4.995  11.263  1.00  0.00     0.223 C 
HETATM   27  N2  UNL     1      30.680   5.715  12.475  1.00  0.00    -0.353 N 
ATOM     28  H2  UNL     1      30.676   6.735  12.460  1.00  0.00     0.163 HD
HETATM   29  O2  UNL     1      30.491   3.738  11.338  1.00  0.00    -0.273 OA
BRANCH  27  30
HETATM   30  C8  UNL     1      30.892   5.002  13.768  1.00  0.00     0.111 C 
BRANCH  30  31
HETATM   31  C7  UNL     1      29.657   5.050  14.575  1.00  0.00    -0.006 C 
BRANCH  31  32
HETATM   32  C6  UNL     1      28.390   4.522  14.101  1.00  0.00    -0.029 C 
BRANCH  32  33
HETATM   33  C5  UNL     1      27.158   4.453  14.881  1.00  0.00     0.028 C 
BRANCH  33  34
HETATM   34  C4  UNL     1      25.951   5.163  14.350  1.00  0.00     0.023 C 
BRANCH  34  35
HETATM   35  C3  UNL     1      26.134   6.612  14.056  1.00  0.00     0.123 C 
BRANCH  35  36
HETATM   36  N1  UNL     1      26.129   6.927  12.644  1.00  0.00    -0.361 N 
HETATM   37  C2  UNL     1      27.249   7.488  11.981  1.00  0.00     0.213 C 
HETATM   38  C1  UNL     1      27.240   7.809  10.544  1.00  0.00     0.117 C 
HETATM   39  O1  UNL     1      28.291   7.718  12.651  1.00  0.00    -0.274 OA
ATOM     40  H1  UNL     1      25.284   6.738  12.103  1.00  0.00     0.162 HD
ENDBRANCH  35  36
ENDBRANCH  34  35
ENDBRANCH  33  34
ENDBRANCH  32  33
ENDBRANCH  31  32
ENDBRANCH  30  31
BRANCH  30  41
HETATM   41  C26 UNL     1      32.031   5.720  14.401  1.00  0.00     0.012 C 
HETATM   42  C27 UNL     1      32.644   6.828  13.497  1.00  0.00     0.007 C 
HETATM   43  C28 UNL     1      33.019   7.504  14.826  1.00  0.00     0.001 C 
HETATM   44  C29 UNL     1      31.734   6.832  15.374  1.00  0.00     0.007 C 
ENDBRANCH  30  41
ENDBRANCH  27  30
ENDBRANCH   1  26
TORSDOF 17
ENDMDL
MODEL 5
REMARK VINA RESULT: -8.943594122      2.252      3.951
REMARK  17 active torsions:
REMARK  status: ('A' for Active; 'I' for Inactive)
REMARK       I    between atoms: C2_2  and  N1_4 
REMARK    1  A    between atoms: N1_4  and  C3_6 
REMARK    2  A    between atoms: C3_6  and  C4_7 
REMARK    3  A    between atoms: C4_7  and  C5_8 
REMARK    4  A    between atoms: C5_8  and  C6_9 
REMARK    5  A    between atoms: C6_9  and  C7_10 
REMARK    6  A    between atoms: C7_10  and  C8_11 
REMARK    7  A    between atoms: C8_11  and  N2_12 
REMARK    8  A    between atoms: C8_11  and  C26_41 
REMARK       I    between atoms: N2_12  and  C9_14 
REMARK    9  A    between atoms: C9_14  and  C10_16 
REMARK   10  A    between atoms: C12_18  and  C13_19 
REMARK   11  A    between atoms: C13_19  and  O3_20 
REMARK   12  A    between atoms: C13_19  and  N3_22 
REMARK   13  A    between atoms: N3_22  and  C14_24 
REMARK   14  A    between atoms: C14_24  and  C15_25 
REMARK   15  A    between atoms: C14_24  and  C20_35 
REMARK       I    between atoms: C15_25  and  N4_27 
REMARK   16  A    between atoms: N4_27  and  C16_29 
REMARK   17  A    between atoms: C16_29  and  C17_30 
ROOT
HETATM    1  C10 UNL     1      31.079   4.743   9.793  1.00  0.00     0.090 A 
HETATM    2  C11 UNL     1      30.013   4.139   8.986  1.00  0.00     0.028 A 
HETATM    3  C12 UNL     1      30.164   5.585   8.870  1.00  0.00     0.074 A 
ENDROOT
BRANCH   3   4
HETATM    4  C13 UNL     1      30.939   6.298   7.843  1.00  0.00     0.120 C 
BRANCH   4   5
HETATM    5  O3  UNL     1      31.555   7.358   8.300  1.00  0.00    -0.349 OA
ATOM      6  H3  UNL     1      32.182   7.163   8.986  1.00  0.00     0.219 HD
ENDBRANCH   4   5
BRANCH   4   7
HETATM    7  N3  UNL     1      31.105   6.029   6.541  1.00  0.00    -0.339 N 
ATOM      8  H3  UNL     1      30.233   5.561   6.294  1.00  0.00     0.167 HD
BRANCH   7   9
HETATM    9  C14 UNL     1      31.711   6.032   5.501  1.00  0.00     0.083 C 
BRANCH   9  10
HETATM   10  C15 UNL     1      33.152   5.682   5.546  1.00  0.00     0.265 C 
HETATM   11  O4  UNL     1      33.924   6.409   6.187  1.00  0.00    -0.266 OA
HETATM   12  N4  UNL     1      33.640   4.535   4.870  1.00  0.00    -0.338 N 
ATOM     13  H4  UNL     1      32.998   3.945   4.340  1.00  0.00     0.164 HD
BRANCH  12  14
HETATM   14  C16 UNL     1      35.062   4.196   4.929  1.00  0.00     0.112 A 
HETATM   15  C18 UNL     1      35.516   3.567   6.219  1.00  0.00     0.043 A 
HETATM   16  C19 UNL     1      35.386   2.725   5.018  1.00  0.00     0.043 A 
BRANCH  14  17
HETATM   17  C17 UNL     1      35.988   5.050   4.150  1.00  0.00     0.259 C 
HETATM   18  N5  UNL     1      36.249   4.756   2.799  1.00  0.00    -0.060 NA
HETATM   19  O5  UNL     1      36.536   6.027   4.692  1.00  0.00    -0.274 OA
ENDBRANCH  14  17
ENDBRANCH  12  14
ENDBRANCH   9  10
BRANCH   9  20
HETATM   20  C20 UNL     1      31.139   6.345   4.172  1.00  0.00     0.041 C 
HETATM   21  C21 UNL     1      29.630   6.429   4.177  1.00  0.00     0.011 C 
HETATM   22  C22 UNL     1      29.172   7.128   2.928  1.00  0.00     0.001 C 
HETATM   23  C23 UNL     1      30.098   6.901   1.750  1.00  0.00     0.000 C 
HETATM   24  C24 UNL     1      31.474   7.485   2.036  1.00  0.00     0.001 C 
HETATM   25  C25 UNL     1      31.681   7.603   3.545  1.00  0.00     0.011 C 
ENDBRANCH   9  20
ENDBRANCH   7   9
ENDBRANCH   4   7
ENDBRANCH   3   4
BRANCH   1  26
HETATM   26  C9  UNL     1      30.963   5.151  11.196  1.00  0.00     0.223 C 
HETATM   27  N2  UNL     1      29.993   4.620  12.092  1.00  0.00    -0.353 N 
ATOM     28  H2  UNL     1      29.341   3.909  11.763  1.00  0.00     0.163 HD
HETATM   29  O2  UNL     1      31.749   6.020  11.654  1.00  0.00    -0.273 OA
BRANCH  27  30
HETATM   30  C8  UNL     1      29.916   5.089  13.506  1.00  0.00     0.111 C 
BRANCH  30  31
HETATM   31  C7  UNL     1      30.936   4.398  14.320  1.00  0.00    -0.006 C 
BRANCH  31  32
HETATM   32  C6  UNL     1      32.108   5.074  14.848  1.00  0.00    -0.029 C 
BRANCH  32  33
HETATM   33  C5  UNL     1      32.116   6.400  15.456  1.00  0.00     0.028 C 
BRANCH  33  34
HETATM   34  C4  UNL     1      32.718   7.527  14.676  1.00  0.00     0.023 C 
BRANCH  34  35
HETATM   35  C3  UNL     1      31.844   8.719  14.489  1.00  0.00     0.123 C 
BRANCH  35  36
HETATM   36  N1  UNL     1      30.772   8.515  13.538  1.00  0.00    -0.361 N 
HETATM   37  C2  UNL     1      30.839   8.974  12.199  1.00  0.00     0.213 C 
HETATM   38  C1  UNL     1      29.747   8.767  11.235  1.00  0.00     0.117 C 
HETATM   39  O1  UNL     1      31.876   9.584  11.824  1.00  0.00    -0.274 OA
ATOM     40  H1  UNL     1      29.934   8.020  13.844  1.00  0.00     0.162 HD
ENDBRANCH  35  36
ENDBRANCH  34  35
ENDBRANCH  33  34
ENDBRANCH  32  33
ENDBRANCH  31  32
ENDBRANCH  30  31
BRANCH  30  41
HETATM   41  C26 UNL     1      28.523   4.770  13.922  1.00  0.00     0.012 C 
HETATM   42  C27 UNL     1      28.346   4.666  15.464  1.00  0.00     0.007 C 
HETATM   43  C28 UNL     1      26.901   5.110  15.184  1.00  0.00     0.001 C 
HETATM   44  C29 UNL     1      27.514   5.888  13.992  1.00  0.00     0.007 C 
ENDBRANCH  30  41
ENDBRANCH  27  30
ENDBRANCH   1  26
TORSDOF 17
ENDMDL
