MODEL 1
REMARK VINA RESULT: -8.313325396      0.000      0.000
REMARK  14 active torsions:
REMARK  status: ('A' for Active; 'I' for Inactive)
REMARK    1  A    between atoms: C2_2  and  C4_4 
REMARK    2  A    between atoms: C4_4  and  C5_5 
REMARK    3  A    between atoms: C5_5  and  C6_6 
REMARK    4  A    between atoms: C6_6  and  C7_7 
REMARK       I    between atoms: C7_7  and  N1_9 
REMARK    5  A    between atoms: N1_9  and  C8_10 
REMARK    6  A    between atoms: C8_10  and  C10_12 
REMARK       I    between atoms: N3_15  and  C11_17 
REMARK    7  A    between atoms: C11_17  and  C12_19 
REMARK    8  A    between atoms: N4_24  and  C17_25 
REMARK    9  A    between atoms: C17_25  and  O4_26 
REMARK   10  A    between atoms: C18_28  and  C19_29 
REMARK   11  A    between atoms: C18_28  and  N8_39 
REMARK   12  A    between atoms: C19_29  and  C20_30 
REMARK   13  A    between atoms: C20_30  and  C21_31 
REMARK   14  A    between atoms: C21_31  and  N5_32 
REMARK       I    between atoms: C22_34  and  N6_35 
ROOT
HETATM    1  C12 UNL     1      28.493   8.981  10.725  1.00  0.00     0.178 C 
HETATM    2  C13 UNL     1      27.616   9.953  10.051  1.00  0.00     0.035 C 
HETATM    3  C14 UNL     1      26.238   9.375   9.754  1.00  0.00     0.004 C 
HETATM    4  C15 UNL     1      25.661   8.615  10.892  1.00  0.00     0.020 C 
HETATM    5  C16 UNL     1      26.669   7.597  11.459  1.00  0.00     0.126 C 
HETATM    6  N4  UNL     1      27.780   8.341  11.872  1.00  0.00    -0.347 N 
ENDROOT
BRANCH   6   7
HETATM    7  C17 UNL     1      28.235   8.689  13.129  1.00  0.00     0.156 C 
HETATM    8  C18 UNL     1      28.146   8.158  14.447  1.00  0.00     0.039 C 
BRANCH   7   9
HETATM    9  O4  UNL     1      28.952   9.818  13.110  1.00  0.00    -0.345 OA
ATOM     10  H4  UNL     1      29.029  10.207  13.973  1.00  0.00     0.219 HD
ENDBRANCH   7   9
BRANCH   8  11
HETATM   11  C19 UNL     1      27.615   6.870  14.818  1.00  0.00     0.057 C 
BRANCH  11  12
HETATM   12  C20 UNL     1      28.669   5.764  15.108  1.00  0.00     0.025 C 
BRANCH  12  13
HETATM   13  C21 UNL     1      27.730   4.506  15.254  1.00  0.00     0.122 C 
BRANCH  13  14
HETATM   14  N5  UNL     1      26.571   4.789  14.446  1.00  0.00    -0.365 N 
HETATM   15  C22 UNL     1      25.968   3.983  13.688  1.00  0.00     0.181 C 
HETATM   16  N6  UNL     1      26.196   2.662  13.388  1.00  0.00    -0.374 N 
HETATM   17  N7  UNL     1      24.693   4.547  13.188  1.00  0.00    -0.064 NA
ATOM     18  H62 UNL     1      27.074   2.274  13.733  1.00  0.00     0.158 HD
ATOM     19  H61 UNL     1      25.707   2.010  12.774  1.00  0.00     0.158 HD
ATOM     20  H5  UNL     1      26.201   5.738  14.492  1.00  0.00     0.162 HD
ENDBRANCH  13  14
ENDBRANCH  12  13
ENDBRANCH  11  12
ENDBRANCH   8  11
BRANCH   8  21
HETATM   21  N8  UNL     1      27.868   9.191  15.435  1.00  0.00    -0.283 NA
HETATM   22  C23 UNL     1      26.542   9.260  15.934  1.00  0.00     0.095 C 
HETATM   23  C24 UNL     1      26.484   9.389  17.462  1.00  0.00     0.015 C 
HETATM   24  C25 UNL     1      27.425  10.464  17.923  1.00  0.00     0.002 C 
HETATM   25  C26 UNL     1      28.777  10.434  17.233  1.00  0.00     0.015 C 
HETATM   26  C27 UNL     1      28.833   9.086  16.532  1.00  0.00     0.095 C 
ENDBRANCH   8  21
ENDBRANCH   6   7
BRANCH   1  27
HETATM   27  C11 UNL     1      28.870   7.874   9.784  1.00  0.00     0.244 C 
HETATM   28  N3  UNL     1      29.596   6.809  10.250  1.00  0.00    -0.332 N 
HETATM   29  C4  UNL     1      30.347   5.965   9.706  1.00  0.00    -0.007 C 
ATOM     30  H3  UNL     1      29.507   6.674  11.258  1.00  0.00     0.168 HD
HETATM   31  O3  UNL     1      28.517   7.935   8.595  1.00  0.00    -0.271 OA
BRANCH  29  32
HETATM   32  C2  UNL     1      30.729   5.831   8.301  1.00  0.00     0.023 C 
HETATM   33  C1  UNL     1      31.924   6.658   7.841  1.00  0.00     0.016 C 
HETATM   34  C3  UNL     1      31.234   4.369   8.048  1.00  0.00     0.016 C 
ENDBRANCH  29  32
BRANCH  29  35
HETATM   35  C5  UNL     1      30.858   4.940  10.665  1.00  0.00     0.063 C 
BRANCH  35  36
HETATM   36  C6  UNL     1      30.468   5.173  12.109  1.00  0.00     0.125 C 
BRANCH  36  37
HETATM   37  C7  UNL     1      31.975   5.374  12.687  1.00  0.00     0.292 C 
HETATM   38  O1  UNL     1      32.553   4.389  12.323  1.00  0.00    -0.257 OA
HETATM   39  N1  UNL     1      32.105   6.555  13.297  1.00  0.00    -0.370 NA
BRANCH  39  40
HETATM   40  C8  UNL     1      32.325   7.764  13.941  1.00  0.00     0.149 C 
HETATM   41  C9  UNL     1      32.164   7.722  15.426  1.00  0.00     0.090 C 
BRANCH  40  42
HETATM   42  C10 UNL     1      31.939   8.945  13.178  1.00  0.00     0.290 C 
HETATM   43  N2  UNL     1      31.751   8.927  11.766  1.00  0.00    -0.055 NA
HETATM   44  O2  UNL     1      31.759  10.089  13.702  1.00  0.00    -0.269 OA
ENDBRANCH  40  42
ENDBRANCH  39  40
ENDBRANCH  36  37
ENDBRANCH  35  36
ENDBRANCH  29  35
ENDBRANCH   1  27
TORSDOF 14
ENDMDL
MODEL 2
REMARK VINA RESULT: -8.166841391      3.132      8.198
REMARK  14 active torsions:
REMARK  status: ('A' for Active; 'I' for Inactive)
REMARK    1  A    between atoms: C2_2  and  C4_4 
REMARK    2  A    between atoms: C4_4  and  C5_5 
REMARK    3  A    between atoms: C5_5  and  C6_6 
REMARK    4  A    between atoms: C6_6  and  C7_7 
REMARK       I    between atoms: C7_7  and  N1_9 
REMARK    5  A    between atoms: N1_9  and  C8_10 
REMARK    6  A    between atoms: C8_10  and  C10_12 
REMARK       I    between atoms: N3_15  and  C11_17 
REMARK    7  A    between atoms: C11_17  and  C12_19 
REMARK    8  A    between atoms: N4_24  and  C17_25 
REMARK    9  A    between atoms: C17_25  and  O4_26 
REMARK   10  A    between atoms: C18_28  and  C19_29 
REMARK   11  A    between atoms: C18_28  and  N8_39 
REMARK   12  A    between atoms: C19_29  and  C20_30 
REMARK   13  A    between atoms: C20_30  and  C21_31 
REMARK   14  A    between atoms: C21_31  and  N5_32 
REMARK       I    between atoms: C22_34  and  N6_35 
ROOT
HETATM    1  C12 UNL     1      31.062   6.771   9.551  1.00  0.00     0.178 C 
HETATM    2  C13 UNL     1      31.421   5.692  10.488  1.00  0.00     0.035 C 
HETATM    3  C14 UNL     1      30.428   4.538  10.442  1.00  0.00     0.004 C 
HETATM    4  C15 UNL     1      30.050   4.140   9.062  1.00  0.00     0.020 C 
HETATM    5  C16 UNL     1      29.645   5.361   8.216  1.00  0.00     0.126 C 
HETATM    6  N4  UNL     1      30.758   6.210   8.200  1.00  0.00    -0.347 N 
ENDROOT
BRANCH   6   7
HETATM    7  C17 UNL     1      31.677   6.498   7.211  1.00  0.00     0.156 C 
HETATM    8  C18 UNL     1      31.944   6.058   5.883  1.00  0.00     0.039 C 
BRANCH   7   9
HETATM    9  O4  UNL     1      32.546   7.441   7.590  1.00  0.00    -0.345 OA
ATOM     10  H4  UNL     1      33.439   7.117   7.611  1.00  0.00     0.219 HD
ENDBRANCH   7   9
BRANCH   8  11
HETATM   11  C19 UNL     1      31.111   5.195   5.083  1.00  0.00     0.057 C 
BRANCH  11  12
HETATM   12  C20 UNL     1      30.347   5.885   3.918  1.00  0.00     0.025 C 
BRANCH  12  13
HETATM   13  C21 UNL     1      29.023   6.314   4.658  1.00  0.00     0.122 C 
BRANCH  13  14
HETATM   14  N5  UNL     1      28.942   7.746   4.515  1.00  0.00    -0.365 N 
HETATM   15  C22 UNL     1      28.531   8.566   5.378  1.00  0.00     0.181 C 
HETATM   16  N6  UNL     1      28.046   8.390   6.651  1.00  0.00    -0.374 N 
HETATM   17  N7  UNL     1      28.797   9.967   4.978  1.00  0.00    -0.064 NA
ATOM     18  H62 UNL     1      27.863   7.425   6.927  1.00  0.00     0.158 HD
ATOM     19  H61 UNL     1      27.713   9.055   7.350  1.00  0.00     0.158 HD
ATOM     20  H5  UNL     1      29.250   8.135   3.624  1.00  0.00     0.162 HD
ENDBRANCH  13  14
ENDBRANCH  12  13
ENDBRANCH  11  12
ENDBRANCH   8  11
BRANCH   8  21
HETATM   21  N8  UNL     1      33.365   5.845   5.652  1.00  0.00    -0.283 NA
HETATM   22  C23 UNL     1      33.837   4.511   5.749  1.00  0.00     0.095 C 
HETATM   23  C24 UNL     1      34.757   4.116   4.584  1.00  0.00     0.015 C 
HETATM   24  C25 UNL     1      35.797   5.177   4.369  1.00  0.00     0.002 C 
HETATM   25  C26 UNL     1      35.253   6.593   4.436  1.00  0.00     0.015 C 
HETATM   26  C27 UNL     1      33.742   6.441   4.368  1.00  0.00     0.095 C 
ENDBRANCH   8  21
ENDBRANCH   6   7
BRANCH   1  27
HETATM   27  C11 UNL     1      29.820   7.474  10.013  1.00  0.00     0.244 C 
HETATM   28  N3  UNL     1      29.419   7.347  11.319  1.00  0.00    -0.332 N 
HETATM   29  C4  UNL     1      28.317   7.475  11.905  1.00  0.00    -0.007 C 
ATOM     30  H3  UNL     1      30.180   7.095  11.949  1.00  0.00     0.168 HD
HETATM   31  O3  UNL     1      29.172   8.163   9.210  1.00  0.00    -0.271 OA
BRANCH  29  32
HETATM   32  C2  UNL     1      27.006   7.816  11.355  1.00  0.00     0.023 C 
HETATM   33  C1  UNL     1      25.797   7.441  12.203  1.00  0.00     0.016 C 
HETATM   34  C3  UNL     1      26.876   9.375  11.281  1.00  0.00     0.016 C 
ENDBRANCH  29  32
BRANCH  29  35
HETATM   35  C5  UNL     1      28.424   7.293  13.384  1.00  0.00     0.063 C 
BRANCH  35  36
HETATM   36  C6  UNL     1      28.927   5.934  13.821  1.00  0.00     0.125 C 
BRANCH  36  37
HETATM   37  C7  UNL     1      30.077   6.470  14.839  1.00  0.00     0.292 C 
HETATM   38  O1  UNL     1      29.720   6.066  15.910  1.00  0.00    -0.257 OA
HETATM   39  N1  UNL     1      31.050   7.103  14.179  1.00  0.00    -0.370 NA
BRANCH  39  40
HETATM   40  C8  UNL     1      32.104   7.768  13.568  1.00  0.00     0.149 C 
HETATM   41  C9  UNL     1      33.455   7.441  14.118  1.00  0.00     0.090 C 
BRANCH  40  42
HETATM   42  C10 UNL     1      31.792   9.112  13.096  1.00  0.00     0.290 C 
HETATM   43  N2  UNL     1      31.422  10.173  13.972  1.00  0.00    -0.055 NA
HETATM   44  O2  UNL     1      31.803   9.444  11.870  1.00  0.00    -0.269 OA
ENDBRANCH  40  42
ENDBRANCH  39  40
ENDBRANCH  36  37
ENDBRANCH  35  36
ENDBRANCH  29  35
ENDBRANCH   1  27
TORSDOF 14
ENDMDL
MODEL 3
REMARK VINA RESULT: -7.861808762      2.070      6.103
REMARK  14 active torsions:
REMARK  status: ('A' for Active; 'I' for Inactive)
REMARK    1  A    between atoms: C2_2  and  C4_4 
REMARK    2  A    between atoms: C4_4  and  C5_5 
REMARK    3  A    between atoms: C5_5  and  C6_6 
REMARK    4  A    between atoms: C6_6  and  C7_7 
REMARK       I    between atoms: C7_7  and  N1_9 
REMARK    5  A    between atoms: N1_9  and  C8_10 
REMARK    6  A    between atoms: C8_10  and  C10_12 
REMARK       I    between atoms: N3_15  and  C11_17 
REMARK    7  A    between atoms: C11_17  and  C12_19 
REMARK    8  A    between atoms: N4_24  and  C17_25 
REMARK    9  A    between atoms: C17_25  and  O4_26 
REMARK   10  A    between atoms: C18_28  and  C19_29 
REMARK   11  A    between atoms: C18_28  and  N8_39 
REMARK   12  A    between atoms: C19_29  and  C20_30 
REMARK   13  A    between atoms: C20_30  and  C21_31 
REMARK   14  A    between atoms: C21_31  and  N5_32 
REMARK       I    between atoms: C22_34  and  N6_35 
ROOT
HETATM    1  C12 UNL     1      28.877  10.208  13.961  1.00  0.00     0.178 C 
HETATM    2  C13 UNL     1      29.758  10.827  14.966  1.00  0.00     0.035 C 
HETATM    3  C14 UNL     1      29.099  10.907  16.337  1.00  0.00     0.004 C 
HETATM    4  C15 UNL     1      28.399   9.656  16.727  1.00  0.00     0.020 C 
HETATM    5  C16 UNL     1      27.472   9.156  15.604  1.00  0.00     0.126 C 
HETATM    6  N4  UNL     1      28.292   8.938  14.491  1.00  0.00    -0.347 N 
ENDROOT
BRANCH   6   7
HETATM    7  C17 UNL     1      28.751   7.776  13.903  1.00  0.00     0.156 C 
HETATM    8  C18 UNL     1      29.235   6.513  14.345  1.00  0.00     0.039 C 
BRANCH   7   9
HETATM    9  O4  UNL     1      28.732   7.846  12.567  1.00  0.00    -0.345 OA
ATOM     10  H4  UNL     1      29.083   7.061  12.163  1.00  0.00     0.219 HD
ENDBRANCH   7   9
BRANCH   8  11
HETATM   11  C19 UNL     1      29.221   6.015  15.698  1.00  0.00     0.057 C 
BRANCH  11  12
HETATM   12  C20 UNL     1      27.836   5.549  16.230  1.00  0.00     0.025 C 
BRANCH  12  13
HETATM   13  C21 UNL     1      27.577   4.302  15.301  1.00  0.00     0.122 C 
BRANCH  13  14
HETATM   14  N5  UNL     1      26.417   4.636  14.515  1.00  0.00    -0.365 N 
HETATM   15  C22 UNL     1      25.829   3.890  13.688  1.00  0.00     0.181 C 
HETATM   16  N6  UNL     1      26.077   2.603  13.277  1.00  0.00    -0.374 N 
HETATM   17  N7  UNL     1      24.548   4.476  13.231  1.00  0.00    -0.064 NA
ATOM     18  H62 UNL     1      26.960   2.200  13.591  1.00  0.00     0.158 HD
ATOM     19  H61 UNL     1      25.601   1.999  12.607  1.00  0.00     0.158 HD
ATOM     20  H5  UNL     1      26.033   5.573  14.641  1.00  0.00     0.162 HD
ENDBRANCH  13  14
ENDBRANCH  12  13
ENDBRANCH  11  12
ENDBRANCH   8  11
BRANCH   8  21
HETATM   21  N8  UNL     1      30.410   6.086  13.597  1.00  0.00    -0.283 NA
HETATM   22  C23 UNL     1      31.619   5.950  14.326  1.00  0.00     0.095 C 
HETATM   23  C24 UNL     1      32.359   4.641  14.017  1.00  0.00     0.015 C 
HETATM   24  C25 UNL     1      32.451   4.441  12.532  1.00  0.00     0.002 C 
HETATM   25  C26 UNL     1      31.165   4.758  11.789  1.00  0.00     0.015 C 
HETATM   26  C27 UNL     1      30.099   4.854  12.868  1.00  0.00     0.095 C 
ENDBRANCH   8  21
ENDBRANCH   6   7
BRANCH   1  27
HETATM   27  C11 UNL     1      27.723  11.113  13.646  1.00  0.00     0.244 C 
HETATM   28  N3  UNL     1      26.552  10.576  13.176  1.00  0.00    -0.332 N 
HETATM   29  C4  UNL     1      25.594  11.031  12.507  1.00  0.00    -0.007 C 
ATOM     30  H3  UNL     1      26.435   9.593  13.425  1.00  0.00     0.168 HD
HETATM   31  O3  UNL     1      27.840  12.337  13.817  1.00  0.00    -0.271 OA
BRANCH  29  32
HETATM   32  C2  UNL     1      25.397  12.374  11.962  1.00  0.00     0.023 C 
HETATM   33  C1  UNL     1      25.813  12.585  10.511  1.00  0.00     0.016 C 
HETATM   34  C3  UNL     1      23.861  12.678  11.904  1.00  0.00     0.016 C 
ENDBRANCH  29  32
BRANCH  29  35
HETATM   35  C5  UNL     1      24.499  10.035  12.310  1.00  0.00     0.063 C 
BRANCH  35  36
HETATM   36  C6  UNL     1      24.465   9.392  10.940  1.00  0.00     0.125 C 
BRANCH  36  37
HETATM   37  C7  UNL     1      25.778   8.451  11.134  1.00  0.00     0.292 C 
HETATM   38  O1  UNL     1      25.470   7.712  12.026  1.00  0.00    -0.257 OA
HETATM   39  N1  UNL     1      26.718   8.739  10.230  1.00  0.00    -0.370 NA
BRANCH  39  40
HETATM   40  C8  UNL     1      27.740   8.973   9.321  1.00  0.00     0.149 C 
HETATM   41  C9  UNL     1      27.398   9.930   8.225  1.00  0.00     0.090 C 
BRANCH  40  42
HETATM   42  C10 UNL     1      28.616   7.833   9.075  1.00  0.00     0.290 C 
HETATM   43  N2  UNL     1      29.109   7.502   7.780  1.00  0.00    -0.055 NA
HETATM   44  O2  UNL     1      28.994   7.031   9.985  1.00  0.00    -0.269 OA
ENDBRANCH  40  42
ENDBRANCH  39  40
ENDBRANCH  36  37
ENDBRANCH  35  36
ENDBRANCH  29  35
ENDBRANCH   1  27
TORSDOF 14
ENDMDL
MODEL 4
REMARK VINA RESULT: -7.755480516      2.713      5.946
REMARK  14 active torsions:
REMARK  status: ('A' for Active; 'I' for Inactive)
REMARK    1  A    between atoms: C2_2  and  C4_4 
REMARK    2  A    between atoms: C4_4  and  C5_5 
REMARK    3  A    between atoms: C5_5  and  C6_6 
REMARK    4  A    between atoms: C6_6  and  C7_7 
REMARK       I    between atoms: C7_7  and  N1_9 
REMARK    5  A    between atoms: N1_9  and  C8_10 
REMARK    6  A    between atoms: C8_10  and  C10_12 
REMARK       I    between atoms: N3_15  and  C11_17 
REMARK    7  A    between atoms: C11_17  and  C12_19 
REMARK    8  A    between atoms: N4_24  and  C17_25 
REMARK    9  A    between atoms: C17_25  and  O4_26 
REMARK   10  A    between atoms: C18_28  and  C19_29 
REMARK   11  A    between atoms: C18_28  and  N8_39 
REMARK   12  A    between atoms: C19_29  and  C20_30 
REMARK   13  A    between atoms: C20_30  and  C21_31 
REMARK   14  A    between atoms: C21_31  and  N5_32 
REMARK       I    between atoms: C22_34  and  N6_35 
ROOT
HETATM    1  C12 UNL     1      30.273   7.075  14.374  1.00  0.00     0.178 C 
HETATM    2  C13 UNL     1      31.230   5.955  14.363  1.00  0.00     0.035 C 
HETATM    3  C14 UNL     1      32.556   6.339  13.718  1.00  0.00     0.004 C 
HETATM    4  C15 UNL     1      33.065   7.661  14.162  1.00  0.00     0.020 C 
HETATM    5  C16 UNL     1      31.975   8.745  14.067  1.00  0.00     0.126 C 
HETATM    6  N4  UNL     1      30.928   8.316  14.890  1.00  0.00    -0.347 N 
ENDROOT
BRANCH   6   7
HETATM    7  C17 UNL     1      30.500   8.747  16.130  1.00  0.00     0.156 C 
HETATM    8  C18 UNL     1      29.294   9.252  16.693  1.00  0.00     0.039 C 
BRANCH   7   9
HETATM    9  O4  UNL     1      31.466   8.666  17.052  1.00  0.00    -0.345 OA
ATOM     10  H4  UNL     1      32.312   8.926  16.706  1.00  0.00     0.219 HD
ENDBRANCH   7   9
BRANCH   8  11
HETATM   11  C19 UNL     1      28.004   9.301  16.051  1.00  0.00     0.057 C 
BRANCH  11  12
HETATM   12  C20 UNL     1      27.200   7.970  16.049  1.00  0.00     0.025 C 
BRANCH  12  13
HETATM   13  C21 UNL     1      26.385   8.131  14.709  1.00  0.00     0.122 C 
BRANCH  13  14
HETATM   14  N5  UNL     1      25.569   6.947  14.605  1.00  0.00    -0.365 N 
HETATM   15  C22 UNL     1      25.905   5.844  14.097  1.00  0.00     0.181 C 
HETATM   16  N6  UNL     1      27.072   5.426  13.505  1.00  0.00    -0.374 N 
HETATM   17  N7  UNL     1      24.903   4.787  14.362  1.00  0.00    -0.064 NA
ATOM     18  H62 UNL     1      27.763   6.155  13.323  1.00  0.00     0.158 HD
ATOM     19  H61 UNL     1      27.344   4.533  13.094  1.00  0.00     0.158 HD
ATOM     20  H5  UNL     1      24.623   7.008  14.982  1.00  0.00     0.162 HD
ENDBRANCH  13  14
ENDBRANCH  12  13
ENDBRANCH  11  12
ENDBRANCH   8  11
BRANCH   8  21
HETATM   21  N8  UNL     1      29.534  10.391  17.569  1.00  0.00    -0.283 NA
HETATM   22  C23 UNL     1      29.781  11.639  16.943  1.00  0.00     0.095 C 
HETATM   23  C24 UNL     1      28.976  12.789  17.564  1.00  0.00     0.015 C 
HETATM   24  C25 UNL     1      29.104  12.756  19.060  1.00  0.00     0.002 C 
HETATM   25  C26 UNL     1      28.988  11.365  19.656  1.00  0.00     0.015 C 
HETATM   26  C27 UNL     1      28.438  10.499  18.534  1.00  0.00     0.095 C 
ENDBRANCH   8  21
ENDBRANCH   6   7
BRANCH   1  27
HETATM   27  C11 UNL     1      29.810   7.382  12.981  1.00  0.00     0.244 C 
HETATM   28  N3  UNL     1      29.314   8.629  12.694  1.00  0.00    -0.332 N 
HETATM   29  C4  UNL     1      28.549   9.076  11.806  1.00  0.00    -0.007 C 
ATOM     30  H3  UNL     1      29.638   9.347  13.342  1.00  0.00     0.168 HD
HETATM   31  O3  UNL     1      29.882   6.507  12.104  1.00  0.00    -0.271 OA
BRANCH  29  32
HETATM   32  C2  UNL     1      27.880   8.370  10.714  1.00  0.00     0.023 C 
HETATM   33  C1  UNL     1      26.434   7.955  10.961  1.00  0.00     0.016 C 
HETATM   34  C3  UNL     1      27.732   9.343   9.496  1.00  0.00     0.016 C 
ENDBRANCH  29  32
BRANCH  29  35
HETATM   35  C5  UNL     1      28.370  10.556  11.889  1.00  0.00     0.063 C 
BRANCH  35  36
HETATM   36  C6  UNL     1      27.328  11.014  12.888  1.00  0.00     0.125 C 
BRANCH  36  37
HETATM   37  C7  UNL     1      26.385  11.815  11.832  1.00  0.00     0.292 C 
HETATM   38  O1  UNL     1      27.125  12.621  11.344  1.00  0.00    -0.257 OA
HETATM   39  N1  UNL     1      25.154  11.296  11.794  1.00  0.00    -0.370 NA
BRANCH  39  40
HETATM   40  C8  UNL     1      23.858  10.813  11.689  1.00  0.00     0.149 C 
HETATM   41  C9  UNL     1      23.596   9.979  10.477  1.00  0.00     0.090 C 
BRANCH  40  42
HETATM   42  C10 UNL     1      22.828  11.693  12.230  1.00  0.00     0.290 C 
HETATM   43  N2  UNL     1      22.050  11.359  13.377  1.00  0.00    -0.055 NA
HETATM   44  O2  UNL     1      22.524  12.814  11.716  1.00  0.00    -0.269 OA
ENDBRANCH  40  42
ENDBRANCH  39  40
ENDBRANCH  36  37
ENDBRANCH  35  36
ENDBRANCH  29  35
ENDBRANCH   1  27
TORSDOF 14
ENDMDL
MODEL 5
REMARK VINA RESULT: -7.730878000      2.739      7.115
REMARK  14 active torsions:
REMARK  status: ('A' for Active; 'I' for Inactive)
REMARK    1  A    between atoms: C2_2  and  C4_4 
REMARK    2  A    between atoms: C4_4  and  C5_5 
REMARK    3  A    between atoms: C5_5  and  C6_6 
REMARK    4  A    between atoms: C6_6  and  C7_7 
REMARK       I    between atoms: C7_7  and  N1_9 
REMARK    5  A    between atoms: N1_9  and  C8_10 
REMARK    6  A    between atoms: C8_10  and  C10_12 
REMARK       I    between atoms: N3_15  and  C11_17 
REMARK    7  A    between atoms: C11_17  and  C12_19 
REMARK    8  A    between atoms: N4_24  and  C17_25 
REMARK    9  A    between atoms: C17_25  and  O4_26 
REMARK   10  A    between atoms: C18_28  and  C19_29 
REMARK   11  A    between atoms: C18_28  and  N8_39 
REMARK   12  A    between atoms: C19_29  and  C20_30 
REMARK   13  A    between atoms: C20_30  and  C21_31 
REMARK   14  A    between atoms: C21_31  and  N5_32 
REMARK       I    between atoms: C22_34  and  N6_35 
ROOT
HETATM    1  C12 UNL     1      29.995   9.534  12.179  1.00  0.00     0.178 C 
HETATM    2  C13 UNL     1      31.145   9.859  13.040  1.00  0.00     0.035 C 
HETATM    3  C14 UNL     1      30.770   9.882  14.516  1.00  0.00     0.004 C 
HETATM    4  C15 UNL     1      29.920   8.736  14.926  1.00  0.00     0.020 C 
HETATM    5  C16 UNL     1      28.727   8.550  13.970  1.00  0.00     0.126 C 
HETATM    6  N4  UNL     1      29.276   8.331  12.701  1.00  0.00    -0.347 N 
ENDROOT
BRANCH   6   7
HETATM    7  C17 UNL     1      29.385   7.189  11.933  1.00  0.00     0.156 C 
HETATM    8  C18 UNL     1      30.420   6.285  11.562  1.00  0.00     0.039 C 
BRANCH   7   9
HETATM    9  O4  UNL     1      28.213   6.826  11.400  1.00  0.00    -0.345 OA
ATOM     10  H4  UNL     1      27.669   7.576  11.190  1.00  0.00     0.219 HD
ENDBRANCH   7   9
BRANCH   8  11
HETATM   11  C19 UNL     1      31.760   6.252  12.092  1.00  0.00     0.057 C 
BRANCH  11  12
HETATM   12  C20 UNL     1      31.874   6.019  13.625  1.00  0.00     0.025 C 
BRANCH  12  13
HETATM   13  C21 UNL     1      31.017   4.705  13.779  1.00  0.00     0.122 C 
BRANCH  13  14
HETATM   14  N5  UNL     1      30.055   4.985  14.815  1.00  0.00    -0.365 N 
HETATM   15  C22 UNL     1      28.803   4.888  14.726  1.00  0.00     0.181 C 
HETATM   16  N6  UNL     1      27.985   4.517  13.686  1.00  0.00    -0.374 N 
HETATM   17  N7  UNL     1      28.142   5.036  16.043  1.00  0.00    -0.064 NA
ATOM     18  H62 UNL     1      28.440   4.415  12.778  1.00  0.00     0.158 HD
ATOM     19  H61 UNL     1      26.970   4.439  13.613  1.00  0.00     0.158 HD
ATOM     20  H5  UNL     1      30.427   5.294  15.714  1.00  0.00     0.162 HD
ENDBRANCH  13  14
ENDBRANCH  12  13
ENDBRANCH  11  12
ENDBRANCH   8  11
BRANCH   8  21
HETATM   21  N8  UNL     1      30.362   5.938  10.149  1.00  0.00    -0.283 NA
HETATM   22  C23 UNL     1      30.877   6.891   9.233  1.00  0.00     0.095 C 
HETATM   23  C24 UNL     1      31.796   6.266   8.174  1.00  0.00     0.015 C 
HETATM   24  C25 UNL     1      31.142   5.054   7.577  1.00  0.00     0.002 C 
HETATM   25  C26 UNL     1      30.468   4.154   8.597  1.00  0.00     0.015 C 
HETATM   26  C27 UNL     1      30.985   4.628   9.945  1.00  0.00     0.095 C 
ENDBRANCH   8  21
ENDBRANCH   6   7
BRANCH   1  27
HETATM   27  C11 UNL     1      29.004  10.660  12.181  1.00  0.00     0.244 C 
HETATM   28  N3  UNL     1      27.893  10.583  11.381  1.00  0.00    -0.332 N 
HETATM   29  C4  UNL     1      27.118  11.437  10.888  1.00  0.00    -0.007 C 
ATOM     30  H3  UNL     1      27.644   9.626  11.133  1.00  0.00     0.168 HD
HETATM   31  O3  UNL     1      29.199  11.647  12.909  1.00  0.00    -0.271 OA
BRANCH  29  32
HETATM   32  C2  UNL     1      27.145  12.894  11.003  1.00  0.00     0.023 C 
HETATM   33  C1  UNL     1      26.801  13.681   9.744  1.00  0.00     0.016 C 
HETATM   34  C3  UNL     1      26.013  13.348  11.986  1.00  0.00     0.016 C 
ENDBRANCH  29  32
BRANCH  29  35
HETATM   35  C5  UNL     1      25.990  10.822  10.124  1.00  0.00     0.063 C 
BRANCH  35  36
HETATM   36  C6  UNL     1      25.752   9.356  10.416  1.00  0.00     0.125 C 
BRANCH  36  37
HETATM   37  C7  UNL     1      24.246   9.518  11.009  1.00  0.00     0.292 C 
HETATM   38  O1  UNL     1      23.543   9.181  10.098  1.00  0.00    -0.257 OA
HETATM   39  N1  UNL     1      24.268   9.892  12.291  1.00  0.00    -0.370 NA
BRANCH  39  40
HETATM   40  C8  UNL     1      24.205  10.272  13.623  1.00  0.00     0.149 C 
HETATM   41  C9  UNL     1      25.346   9.800  14.465  1.00  0.00     0.090 C 
BRANCH  40  42
HETATM   42  C10 UNL     1      22.857  10.365  14.173  1.00  0.00     0.290 C 
HETATM   43  N2  UNL     1      21.966  11.434  13.861  1.00  0.00    -0.055 NA
HETATM   44  O2  UNL     1      22.373   9.520  14.989  1.00  0.00    -0.269 OA
ENDBRANCH  40  42
ENDBRANCH  39  40
ENDBRANCH  36  37
ENDBRANCH  35  36
ENDBRANCH  29  35
ENDBRANCH   1  27
TORSDOF 14
ENDMDL
