MODEL 1
REMARK VINA RESULT: -8.595668376      0.000      0.000
REMARK  15 active torsions:
REMARK  status: ('A' for Active; 'I' for Inactive)
REMARK    1  A    between atoms: C2_2  and  C4_4 
REMARK    2  A    between atoms: C4_4  and  C5_5 
REMARK    3  A    between atoms: C5_5  and  N1_6 
REMARK    4  A    between atoms: C5_5  and  C6_10 
REMARK       I    between atoms: C6_10  and  N2_12 
REMARK    5  A    between atoms: C10_16  and  C11_17 
REMARK    6  A    between atoms: C11_17  and  N3_18 
REMARK    7  A    between atoms: C15_22  and  C16_23 
REMARK       I    between atoms: C16_23  and  N4_25 
REMARK    8  A    between atoms: N4_25  and  C17_27 
REMARK    9  A    between atoms: C17_27  and  C18_28 
REMARK   10  A    between atoms: C17_27  and  C31_44 
REMARK   11  A    between atoms: C18_28  and  C19_29 
REMARK   12  A    between atoms: C19_29  and  C20_30 
REMARK   13  A    between atoms: C20_30  and  C21_31 
REMARK   14  A    between atoms: C21_31  and  N5_32 
REMARK   15  A    between atoms: N5_32  and  C22_35 
ROOT
HETATM    1  C16 UNL     1      29.269   7.982   9.587  1.00  0.00     0.252 C 
HETATM    2  O2  UNL     1      30.486   8.055   9.865  1.00  0.00    -0.271 OA
HETATM    3  N4  UNL     1      28.892   7.472   8.322  1.00  0.00    -0.346 N 
ATOM      4  H4  UNL     1      27.897   7.419   8.102  1.00  0.00     0.163 HD
ENDROOT
BRANCH   1   5
HETATM    5  C15 UNL     1      28.220   8.424  10.566  1.00  0.00     0.314 C 
HETATM    6  N3  UNL     1      28.379   9.811  10.850  1.00  0.00     0.104 N 
HETATM    7  C12 UNL     1      27.407  10.528  10.021  1.00  0.00     0.273 C 
HETATM    8  C13 UNL     1      26.450   9.528   9.471  1.00  0.00     0.033 C 
HETATM    9  C14 UNL     1      26.860   8.185   9.988  1.00  0.00     0.047 C 
BRANCH   6  10
HETATM   10  C11 UNL     1      28.077  10.191  12.222  1.00  0.00     0.298 C 
BRANCH  10  11
HETATM   11  C10 UNL     1      29.111   9.770  13.191  1.00  0.00     0.115 C 
HETATM   12  N2  UNL     1      28.571   8.870  14.174  1.00  0.00    -0.344 N 
HETATM   13  C6  UNL     1      27.314   8.250  14.330  1.00  0.00     0.250 C 
HETATM   14  C7  UNL     1      29.712   8.698  15.111  1.00  0.00     0.126 C 
HETATM   15  O1  UNL     1      26.402   8.465  13.516  1.00  0.00    -0.271 OA
HETATM   16  C8  UNL     1      30.146  10.146  15.309  1.00  0.00     0.022 C 
HETATM   17  C9  UNL     1      29.624  10.883  14.087  1.00  0.00     0.029 C 
BRANCH  13  18
HETATM   18  C5  UNL     1      27.046   7.317  15.481  1.00  0.00     0.275 C 
BRANCH  18  19
HETATM   19  C4  UNL     1      26.315   6.075  15.019  1.00  0.00     0.046 C 
BRANCH  19  20
HETATM   20  C2  UNL     1      27.070   4.816  15.276  1.00  0.00    -0.020 C 
HETATM   21  C1  UNL     1      26.917   3.801  14.163  1.00  0.00     0.009 C 
HETATM   22  C3  UNL     1      28.508   5.015  15.625  1.00  0.00     0.009 C 
ENDBRANCH  19  20
ENDBRANCH  18  19
BRANCH  18  23
HETATM   23  N1  UNL     1      26.182   8.031  16.409  1.00  0.00    -0.066 N 
ATOM     24  H13 UNL     1      26.081   9.018  16.173  1.00  0.00     0.275 HD
ATOM     25  H12 UNL     1      25.202   7.767  16.317  1.00  0.00     0.275 HD
ATOM     26  H11 UNL     1      26.542   7.887  17.352  1.00  0.00     0.275 HD
ENDBRANCH  18  23
ENDBRANCH  13  18
ENDBRANCH  10  11
ENDBRANCH   6  10
ENDBRANCH   1   5
BRANCH   3  27
HETATM   27  C17 UNL     1      29.849   7.018   7.313  1.00  0.00     0.173 C 
BRANCH  27  28
HETATM   28  C18 UNL     1      29.996   5.550   7.491  1.00  0.00     0.034 C 
BRANCH  28  29
HETATM   29  C19 UNL     1      31.368   5.037   7.729  1.00  0.00     0.004 C 
BRANCH  29  30
HETATM   30  C20 UNL     1      31.490   4.110   8.915  1.00  0.00     0.027 C 
BRANCH  30  31
HETATM   31  C21 UNL     1      30.365   4.321   9.899  1.00  0.00     0.232 C 
BRANCH  31  32
HETATM   32  N5  UNL     1      30.382   3.409  11.012  1.00  0.00    -0.070 N 
ATOM     33  H52 UNL     1      29.517   2.874  11.092  1.00  0.00     0.277 HD
ATOM     34  H51 UNL     1      31.019   2.626  10.866  1.00  0.00     0.277 HD
BRANCH  32  35
HETATM   35  C22 UNL     1      30.685   4.149  12.211  1.00  0.00     0.191 C 
HETATM   36  C23 UNL     1      30.525   5.624  12.170  1.00  0.00     0.043 C 
HETATM   37  C24 UNL     1      32.011   5.866  12.493  1.00  0.00    -0.028 A 
HETATM   38  C25 UNL     1      32.181   7.107  13.218  1.00  0.00     0.015 C 
HETATM   39  C29 UNL     1      32.618   4.915  13.614  1.00  0.00     0.006 A 
HETATM   40  C30 UNL     1      32.170   4.529  12.342  1.00  0.00     0.030 A 
HETATM   41  C26 UNL     1      32.758   6.891  14.567  1.00  0.00    -0.009 A 
HETATM   42  C27 UNL     1      32.305   6.412  15.797  1.00  0.00     0.010 A 
HETATM   43  C28 UNL     1      31.939   5.539  14.750  1.00  0.00    -0.005 A 
ENDBRANCH  32  35
ENDBRANCH  31  32
ENDBRANCH  30  31
ENDBRANCH  29  30
ENDBRANCH  28  29
ENDBRANCH  27  28
BRANCH  27  44
HETATM   44  C31 UNL     1      29.415   7.433   5.957  1.00  0.00     0.254 C 
HETATM   45  N6  UNL     1      28.103   7.405   5.477  1.00  0.00    -0.060 NA
HETATM   46  O3  UNL     1      30.300   7.860   5.135  1.00  0.00    -0.275 OA
ENDBRANCH  27  44
ENDBRANCH   3  27
TORSDOF 15
ENDMDL
MODEL 2
REMARK VINA RESULT: -8.416879509      1.386      1.568
REMARK  15 active torsions:
REMARK  status: ('A' for Active; 'I' for Inactive)
REMARK    1  A    between atoms: C2_2  and  C4_4 
REMARK    2  A    between atoms: C4_4  and  C5_5 
REMARK    3  A    between atoms: C5_5  and  N1_6 
REMARK    4  A    between atoms: C5_5  and  C6_10 
REMARK       I    between atoms: C6_10  and  N2_12 
REMARK    5  A    between atoms: C10_16  and  C11_17 
REMARK    6  A    between atoms: C11_17  and  N3_18 
REMARK    7  A    between atoms: C15_22  and  C16_23 
REMARK       I    between atoms: C16_23  and  N4_25 
REMARK    8  A    between atoms: N4_25  and  C17_27 
REMARK    9  A    between atoms: C17_27  and  C18_28 
REMARK   10  A    between atoms: C17_27  and  C31_44 
REMARK   11  A    between atoms: C18_28  and  C19_29 
REMARK   12  A    between atoms: C19_29  and  C20_30 
REMARK   13  A    between atoms: C20_30  and  C21_31 
REMARK   14  A    between atoms: C21_31  and  N5_32 
REMARK   15  A    between atoms: N5_32  and  C22_35 
ROOT
HETATM    1  C16 UNL     1      27.695   9.500   8.042  1.00  0.00     0.252 C 
HETATM    2  O2  UNL     1      27.906  10.415   7.216  1.00  0.00    -0.271 OA
HETATM    3  N4  UNL     1      28.271   8.229   7.809  1.00  0.00    -0.346 N 
ATOM      4  H4  UNL     1      28.091   7.488   8.486  1.00  0.00     0.163 HD
ENDROOT
BRANCH   1   5
HETATM    5  C15 UNL     1      26.847   9.733   9.259  1.00  0.00     0.314 C 
HETATM    6  N3  UNL     1      27.435  10.745  10.070  1.00  0.00     0.104 N 
HETATM    7  C12 UNL     1      26.726  11.993   9.771  1.00  0.00     0.273 C 
HETATM    8  C13 UNL     1      25.499  11.648   9.001  1.00  0.00     0.033 C 
HETATM    9  C14 UNL     1      25.474  10.160   8.841  1.00  0.00     0.047 C 
BRANCH   6  10
HETATM   10  C11 UNL     1      27.281  10.544  11.504  1.00  0.00     0.298 C 
BRANCH  10  11
HETATM   11  C10 UNL     1      28.507  10.047  12.163  1.00  0.00     0.115 C 
HETATM   12  N2  UNL     1      28.206   9.005  13.108  1.00  0.00    -0.344 N 
HETATM   13  C6  UNL     1      27.023   8.315  13.443  1.00  0.00     0.250 C 
HETATM   14  C7  UNL     1      29.525   8.763  13.748  1.00  0.00     0.126 C 
HETATM   15  O1  UNL     1      25.952   8.594  12.879  1.00  0.00    -0.271 OA
HETATM   16  C8  UNL     1      29.971  10.190  14.043  1.00  0.00     0.022 C 
HETATM   17  C9  UNL     1      29.186  11.056  13.072  1.00  0.00     0.029 C 
BRANCH  13  18
HETATM   18  C5  UNL     1      27.024   7.231  14.486  1.00  0.00     0.275 C 
BRANCH  18  19
HETATM   19  C4  UNL     1      27.466   5.907  13.899  1.00  0.00     0.046 C 
BRANCH  19  20
HETATM   20  C2  UNL     1      27.083   4.734  14.735  1.00  0.00    -0.020 C 
HETATM   21  C1  UNL     1      26.853   3.480  13.917  1.00  0.00     0.009 C 
HETATM   22  C3  UNL     1      28.000   4.464  15.882  1.00  0.00     0.009 C 
ENDBRANCH  19  20
ENDBRANCH  18  19
BRANCH  18  23
HETATM   23  N1  UNL     1      25.651   7.086  14.945  1.00  0.00    -0.066 N 
ATOM     24  H13 UNL     1      25.269   7.952  15.324  1.00  0.00     0.275 HD
ATOM     25  H12 UNL     1      24.990   6.969  14.177  1.00  0.00     0.275 HD
ATOM     26  H11 UNL     1      25.620   6.316  15.613  1.00  0.00     0.275 HD
ENDBRANCH  18  23
ENDBRANCH  13  18
ENDBRANCH  10  11
ENDBRANCH   6  10
ENDBRANCH   1   5
BRANCH   3  27
HETATM   27  C17 UNL     1      29.111   7.920   6.651  1.00  0.00     0.173 C 
BRANCH  27  28
HETATM   28  C18 UNL     1      29.793   6.634   6.948  1.00  0.00     0.034 C 
BRANCH  28  29
HETATM   29  C19 UNL     1      29.804   6.192   8.365  1.00  0.00     0.004 C 
BRANCH  29  30
HETATM   30  C20 UNL     1      30.095   4.722   8.558  1.00  0.00     0.027 C 
BRANCH  30  31
HETATM   31  C21 UNL     1      31.016   4.491   9.731  1.00  0.00     0.232 C 
BRANCH  31  32
HETATM   32  N5  UNL     1      30.425   3.728  10.798  1.00  0.00    -0.070 N 
ATOM     33  H52 UNL     1      29.471   3.435  10.587  1.00  0.00     0.277 HD
ATOM     34  H51 UNL     1      30.840   2.801  10.892  1.00  0.00     0.277 HD
BRANCH  32  35
HETATM   35  C22 UNL     1      30.510   4.494  12.015  1.00  0.00     0.191 C 
HETATM   36  C23 UNL     1      31.055   5.872  11.927  1.00  0.00     0.043 C 
HETATM   37  C24 UNL     1      32.219   5.550  12.884  1.00  0.00    -0.028 A 
HETATM   38  C25 UNL     1      32.612   6.729  13.625  1.00  0.00     0.015 C 
HETATM   39  C29 UNL     1      31.825   4.664  14.146  1.00  0.00     0.006 A 
HETATM   40  C30 UNL     1      31.812   4.260  12.803  1.00  0.00     0.030 A 
HETATM   41  C26 UNL     1      32.429   6.557  15.086  1.00  0.00    -0.009 A 
HETATM   42  C27 UNL     1      31.355   6.543  15.978  1.00  0.00     0.010 A 
HETATM   43  C28 UNL     1      31.099   5.711  14.866  1.00  0.00    -0.005 A 
ENDBRANCH  32  35
ENDBRANCH  31  32
ENDBRANCH  30  31
ENDBRANCH  29  30
ENDBRANCH  28  29
ENDBRANCH  27  28
BRANCH  27  44
HETATM   44  C31 UNL     1      28.304   7.916   5.407  1.00  0.00     0.254 C 
HETATM   45  N6  UNL     1      28.303   8.917   4.433  1.00  0.00    -0.060 NA
HETATM   46  O3  UNL     1      27.532   6.918   5.181  1.00  0.00    -0.275 OA
ENDBRANCH  27  44
ENDBRANCH   3  27
TORSDOF 15
ENDMDL
MODEL 3
REMARK VINA RESULT: -8.320334441      1.663      2.681
REMARK  15 active torsions:
REMARK  status: ('A' for Active; 'I' for Inactive)
REMARK    1  A    between atoms: C2_2  and  C4_4 
REMARK    2  A    between atoms: C4_4  and  C5_5 
REMARK    3  A    between atoms: C5_5  and  N1_6 
REMARK    4  A    between atoms: C5_5  and  C6_10 
REMARK       I    between atoms: C6_10  and  N2_12 
REMARK    5  A    between atoms: C10_16  and  C11_17 
REMARK    6  A    between atoms: C11_17  and  N3_18 
REMARK    7  A    between atoms: C15_22  and  C16_23 
REMARK       I    between atoms: C16_23  and  N4_25 
REMARK    8  A    between atoms: N4_25  and  C17_27 
REMARK    9  A    between atoms: C17_27  and  C18_28 
REMARK   10  A    between atoms: C17_27  and  C31_44 
REMARK   11  A    between atoms: C18_28  and  C19_29 
REMARK   12  A    between atoms: C19_29  and  C20_30 
REMARK   13  A    between atoms: C20_30  and  C21_31 
REMARK   14  A    between atoms: C21_31  and  N5_32 
REMARK   15  A    between atoms: N5_32  and  C22_35 
ROOT
HETATM    1  C16 UNL     1      27.818   9.199   7.509  1.00  0.00     0.252 C 
HETATM    2  O2  UNL     1      28.136  10.088   6.690  1.00  0.00    -0.271 OA
HETATM    3  N4  UNL     1      28.418   7.924   7.393  1.00  0.00    -0.346 N 
ATOM      4  H4  UNL     1      28.151   7.203   8.064  1.00  0.00     0.163 HD
ENDROOT
BRANCH   1   5
HETATM    5  C15 UNL     1      26.820   9.467   8.598  1.00  0.00     0.314 C 
HETATM    6  N3  UNL     1      27.347   9.044   9.852  1.00  0.00     0.104 N 
HETATM    7  C12 UNL     1      27.868  10.240  10.518  1.00  0.00     0.273 C 
HETATM    8  C13 UNL     1      27.361  11.431   9.782  1.00  0.00     0.033 C 
HETATM    9  C14 UNL     1      26.515  10.932   8.652  1.00  0.00     0.047 C 
BRANCH   6  10
HETATM   10  C11 UNL     1      26.366   8.483  10.769  1.00  0.00     0.298 C 
BRANCH  10  11
HETATM   11  C10 UNL     1      25.916   9.438  11.805  1.00  0.00     0.115 C 
HETATM   12  N2  UNL     1      26.095   8.898  13.125  1.00  0.00    -0.344 N 
HETATM   13  C6  UNL     1      26.691   7.718  13.616  1.00  0.00     0.250 C 
HETATM   14  C7  UNL     1      25.455   9.930  13.982  1.00  0.00     0.126 C 
HETATM   15  O1  UNL     1      27.183   6.890  12.832  1.00  0.00    -0.271 OA
HETATM   16  C8  UNL     1      24.145  10.156  13.235  1.00  0.00     0.022 C 
HETATM   17  C9  UNL     1      24.420   9.698  11.813  1.00  0.00     0.029 C 
BRANCH  13  18
HETATM   18  C5  UNL     1      26.746   7.430  15.092  1.00  0.00     0.275 C 
BRANCH  18  19
HETATM   19  C4  UNL     1      28.172   7.227  15.557  1.00  0.00     0.046 C 
BRANCH  19  20
HETATM   20  C2  UNL     1      28.827   8.484  16.017  1.00  0.00    -0.020 C 
HETATM   21  C1  UNL     1      29.585   9.190  14.913  1.00  0.00     0.009 C 
HETATM   22  C3  UNL     1      27.921   9.430  16.734  1.00  0.00     0.009 C 
ENDBRANCH  19  20
ENDBRANCH  18  19
BRANCH  18  23
HETATM   23  N1  UNL     1      26.019   6.188  15.306  1.00  0.00    -0.066 N 
ATOM     24  H13 UNL     1      25.288   6.034  14.611  1.00  0.00     0.275 HD
ATOM     25  H12 UNL     1      26.581   5.362  15.100  1.00  0.00     0.275 HD
ATOM     26  H11 UNL     1      25.660   6.191  16.260  1.00  0.00     0.275 HD
ENDBRANCH  18  23
ENDBRANCH  13  18
ENDBRANCH  10  11
ENDBRANCH   6  10
ENDBRANCH   1   5
BRANCH   3  27
HETATM   27  C17 UNL     1      29.400   7.580   6.364  1.00  0.00     0.173 C 
BRANCH  27  28
HETATM   28  C18 UNL     1      30.124   6.377   6.848  1.00  0.00     0.034 C 
BRANCH  28  29
HETATM   29  C19 UNL     1      29.849   5.942   8.240  1.00  0.00     0.004 C 
BRANCH  29  30
HETATM   30  C20 UNL     1      30.165   4.490   8.514  1.00  0.00     0.027 C 
BRANCH  30  31
HETATM   31  C21 UNL     1      31.014   4.335   9.752  1.00  0.00     0.232 C 
BRANCH  31  32
HETATM   32  N5  UNL     1      30.369   3.613  10.817  1.00  0.00    -0.070 N 
ATOM     33  H52 UNL     1      29.381   3.443  10.632  1.00  0.00     0.277 HD
ATOM     34  H51 UNL     1      30.671   2.639  10.868  1.00  0.00     0.277 HD
BRANCH  32  35
HETATM   35  C22 UNL     1      30.586   4.321  12.053  1.00  0.00     0.191 C 
HETATM   36  C23 UNL     1      30.552   5.804  12.013  1.00  0.00     0.043 C 
HETATM   37  C24 UNL     1      32.004   5.922  12.513  1.00  0.00    -0.028 A 
HETATM   38  C25 UNL     1      32.186   7.142  13.270  1.00  0.00     0.015 C 
HETATM   39  C29 UNL     1      32.394   4.921  13.687  1.00  0.00     0.006 A 
HETATM   40  C30 UNL     1      32.071   4.577  12.365  1.00  0.00     0.030 A 
HETATM   41  C26 UNL     1      32.578   6.875  14.675  1.00  0.00    -0.009 A 
HETATM   42  C27 UNL     1      31.944   6.431  15.837  1.00  0.00     0.010 A 
HETATM   43  C28 UNL     1      31.636   5.594  14.741  1.00  0.00    -0.005 A 
ENDBRANCH  32  35
ENDBRANCH  31  32
ENDBRANCH  30  31
ENDBRANCH  29  30
ENDBRANCH  28  29
ENDBRANCH  27  28
BRANCH  27  44
HETATM   44  C31 UNL     1      28.740   7.414   5.046  1.00  0.00     0.254 C 
HETATM   45  N6  UNL     1      29.145   8.013   3.851  1.00  0.00    -0.060 NA
HETATM   46  O3  UNL     1      27.707   6.660   4.970  1.00  0.00    -0.275 OA
ENDBRANCH  27  44
ENDBRANCH   3  27
TORSDOF 15
ENDMDL
MODEL 4
REMARK VINA RESULT: -8.216591321      1.924      2.662
REMARK  15 active torsions:
REMARK  status: ('A' for Active; 'I' for Inactive)
REMARK    1  A    between atoms: C2_2  and  C4_4 
REMARK    2  A    between atoms: C4_4  and  C5_5 
REMARK    3  A    between atoms: C5_5  and  N1_6 
REMARK    4  A    between atoms: C5_5  and  C6_10 
REMARK       I    between atoms: C6_10  and  N2_12 
REMARK    5  A    between atoms: C10_16  and  C11_17 
REMARK    6  A    between atoms: C11_17  and  N3_18 
REMARK    7  A    between atoms: C15_22  and  C16_23 
REMARK       I    between atoms: C16_23  and  N4_25 
REMARK    8  A    between atoms: N4_25  and  C17_27 
REMARK    9  A    between atoms: C17_27  and  C18_28 
REMARK   10  A    between atoms: C17_27  and  C31_44 
REMARK   11  A    between atoms: C18_28  and  C19_29 
REMARK   12  A    between atoms: C19_29  and  C20_30 
REMARK   13  A    between atoms: C20_30  and  C21_31 
REMARK   14  A    between atoms: C21_31  and  N5_32 
REMARK   15  A    between atoms: N5_32  and  C22_35 
ROOT
HETATM    1  C16 UNL     1      27.550   9.662   7.803  1.00  0.00     0.252 C 
HETATM    2  O2  UNL     1      28.003  10.463   6.957  1.00  0.00    -0.271 OA
HETATM    3  N4  UNL     1      28.092   8.356   7.860  1.00  0.00    -0.346 N 
ATOM      4  H4  UNL     1      27.715   7.708   8.551  1.00  0.00     0.163 HD
ENDROOT
BRANCH   1   5
HETATM    5  C15 UNL     1      26.452  10.064   8.744  1.00  0.00     0.314 C 
HETATM    6  N3  UNL     1      26.740   9.586  10.055  1.00  0.00     0.104 N 
HETATM    7  C12 UNL     1      27.312  10.711  10.800  1.00  0.00     0.273 C 
HETATM    8  C13 UNL     1      27.070  11.951  10.012  1.00  0.00     0.033 C 
HETATM    9  C14 UNL     1      26.334  11.557   8.771  1.00  0.00     0.047 C 
BRANCH   6  10
HETATM   10  C11 UNL     1      25.576   9.164  10.820  1.00  0.00     0.298 C 
BRANCH  10  11
HETATM   11  C10 UNL     1      25.533   9.728  12.185  1.00  0.00     0.115 C 
HETATM   12  N2  UNL     1      25.765   8.713  13.177  1.00  0.00    -0.344 N 
HETATM   13  C6  UNL     1      26.117   7.349  13.102  1.00  0.00     0.250 C 
HETATM   14  C7  UNL     1      25.533   9.448  14.448  1.00  0.00     0.126 C 
HETATM   15  O1  UNL     1      26.269   6.800  11.999  1.00  0.00    -0.271 OA
HETATM   16  C8  UNL     1      24.225  10.164  14.134  1.00  0.00     0.022 C 
HETATM   17  C9  UNL     1      24.166  10.228  12.617  1.00  0.00     0.029 C 
BRANCH  13  18
HETATM   18  C5  UNL     1      26.316   6.528  14.348  1.00  0.00     0.275 C 
BRANCH  18  19
HETATM   19  C4  UNL     1      27.440   5.530  14.172  1.00  0.00     0.046 C 
BRANCH  19  20
HETATM   20  C2  UNL     1      28.485   5.626  15.230  1.00  0.00    -0.020 C 
HETATM   21  C1  UNL     1      28.783   7.055  15.635  1.00  0.00     0.009 C 
HETATM   22  C3  UNL     1      28.234   4.771  16.429  1.00  0.00     0.009 C 
ENDBRANCH  19  20
ENDBRANCH  18  19
BRANCH  18  23
HETATM   23  N1  UNL     1      25.083   5.787  14.564  1.00  0.00    -0.066 N 
ATOM     24  H13 UNL     1      24.339   6.364  14.955  1.00  0.00     0.275 HD
ATOM     25  H12 UNL     1      24.617   5.535  13.692  1.00  0.00     0.275 HD
ATOM     26  H11 UNL     1      25.298   4.976  15.144  1.00  0.00     0.275 HD
ENDBRANCH  18  23
ENDBRANCH  13  18
ENDBRANCH  10  11
ENDBRANCH   6  10
ENDBRANCH   1   5
BRANCH   3  27
HETATM   27  C17 UNL     1      29.164   7.885   6.982  1.00  0.00     0.173 C 
BRANCH  27  28
HETATM   28  C18 UNL     1      29.654   6.604   7.554  1.00  0.00     0.034 C 
BRANCH  28  29
HETATM   29  C19 UNL     1      31.105   6.513   7.851  1.00  0.00     0.004 C 
BRANCH  29  30
HETATM   30  C20 UNL     1      31.561   5.153   8.324  1.00  0.00     0.027 C 
BRANCH  30  31
HETATM   31  C21 UNL     1      30.391   4.229   8.559  1.00  0.00     0.232 C 
BRANCH  31  32
HETATM   32  N5  UNL     1      30.276   3.763   9.916  1.00  0.00    -0.070 N 
ATOM     33  H52 UNL     1      29.306   3.706  10.228  1.00  0.00     0.277 HD
ATOM     34  H51 UNL     1      30.512   2.775  10.011  1.00  0.00     0.277 HD
BRANCH  32  35
HETATM   35  C22 UNL     1      31.080   4.605  10.763  1.00  0.00     0.191 C 
HETATM   36  C23 UNL     1      31.886   3.949  11.823  1.00  0.00     0.043 C 
HETATM   37  C24 UNL     1      31.163   4.714  12.947  1.00  0.00    -0.028 A 
HETATM   38  C25 UNL     1      32.046   4.919  14.076  1.00  0.00     0.015 C 
HETATM   39  C29 UNL     1      30.893   6.253  12.646  1.00  0.00     0.006 A 
HETATM   40  C30 UNL     1      30.321   5.158  11.983  1.00  0.00     0.030 A 
HETATM   41  C26 UNL     1      32.279   6.357  14.350  1.00  0.00    -0.009 A 
HETATM   42  C27 UNL     1      33.023   7.390  13.777  1.00  0.00     0.010 A 
HETATM   43  C28 UNL     1      32.278   6.700  12.796  1.00  0.00    -0.005 A 
ENDBRANCH  32  35
ENDBRANCH  31  32
ENDBRANCH  30  31
ENDBRANCH  29  30
ENDBRANCH  28  29
ENDBRANCH  27  28
BRANCH  27  44
HETATM   44  C31 UNL     1      28.689   7.791   5.581  1.00  0.00     0.254 C 
HETATM   45  N6  UNL     1      29.319   8.353   4.467  1.00  0.00    -0.060 NA
HETATM   46  O3  UNL     1      27.609   7.144   5.342  1.00  0.00    -0.275 OA
ENDBRANCH  27  44
ENDBRANCH   3  27
TORSDOF 15
ENDMDL
MODEL 5
REMARK VINA RESULT: -8.205673793      1.917      7.651
REMARK  15 active torsions:
REMARK  status: ('A' for Active; 'I' for Inactive)
REMARK    1  A    between atoms: C2_2  and  C4_4 
REMARK    2  A    between atoms: C4_4  and  C5_5 
REMARK    3  A    between atoms: C5_5  and  N1_6 
REMARK    4  A    between atoms: C5_5  and  C6_10 
REMARK       I    between atoms: C6_10  and  N2_12 
REMARK    5  A    between atoms: C10_16  and  C11_17 
REMARK    6  A    between atoms: C11_17  and  N3_18 
REMARK    7  A    between atoms: C15_22  and  C16_23 
REMARK       I    between atoms: C16_23  and  N4_25 
REMARK    8  A    between atoms: N4_25  and  C17_27 
REMARK    9  A    between atoms: C17_27  and  C18_28 
REMARK   10  A    between atoms: C17_27  and  C31_44 
REMARK   11  A    between atoms: C18_28  and  C19_29 
REMARK   12  A    between atoms: C19_29  and  C20_30 
REMARK   13  A    between atoms: C20_30  and  C21_31 
REMARK   14  A    between atoms: C21_31  and  N5_32 
REMARK   15  A    between atoms: N5_32  and  C22_35 
ROOT
HETATM    1  C16 UNL     1      28.558   7.694  12.331  1.00  0.00     0.252 C 
HETATM    2  O2  UNL     1      28.624   6.454  12.479  1.00  0.00    -0.271 OA
HETATM    3  N4  UNL     1      28.010   8.475  13.375  1.00  0.00    -0.346 N 
ATOM      4  H4  UNL     1      27.958   9.485  13.245  1.00  0.00     0.163 HD
ENDROOT
BRANCH   1   5
HETATM    5  C15 UNL     1      29.047   8.353  11.073  1.00  0.00     0.314 C 
HETATM    6  N3  UNL     1      28.417   7.761   9.941  1.00  0.00     0.104 N 
HETATM    7  C12 UNL     1      27.314   8.647   9.559  1.00  0.00     0.273 C 
HETATM    8  C13 UNL     1      27.490   9.935  10.284  1.00  0.00     0.033 C 
HETATM    9  C14 UNL     1      28.729   9.816  11.115  1.00  0.00     0.047 C 
BRANCH   6  10
HETATM   10  C11 UNL     1      29.260   7.655   8.759  1.00  0.00     0.298 C 
BRANCH  10  11
HETATM   11  C10 UNL     1      30.201   6.516   8.808  1.00  0.00     0.115 C 
HETATM   12  N2  UNL     1      30.586   6.101   7.486  1.00  0.00    -0.344 N 
HETATM   13  C6  UNL     1      30.333   6.615   6.198  1.00  0.00     0.250 C 
HETATM   14  C7  UNL     1      31.392   4.881   7.757  1.00  0.00     0.126 C 
HETATM   15  O1  UNL     1      29.627   7.626   6.053  1.00  0.00    -0.271 OA
HETATM   16  C8  UNL     1      30.487   4.148   8.739  1.00  0.00     0.022 C 
HETATM   17  C9  UNL     1      29.601   5.227   9.339  1.00  0.00     0.029 C 
BRANCH  13  18
HETATM   18  C5  UNL     1      30.905   5.956   4.972  1.00  0.00     0.275 C 
BRANCH  18  19
HETATM   19  C4  UNL     1      31.076   6.952   3.845  1.00  0.00     0.046 C 
BRANCH  19  20
HETATM   20  C2  UNL     1      29.997   6.872   2.819  1.00  0.00    -0.020 C 
HETATM   21  C1  UNL     1      29.096   8.089   2.818  1.00  0.00     0.009 C 
HETATM   22  C3  UNL     1      30.475   6.559   1.439  1.00  0.00     0.009 C 
ENDBRANCH  19  20
ENDBRANCH  18  19
BRANCH  18  23
HETATM   23  N1  UNL     1      29.942   4.952   4.546  1.00  0.00    -0.066 N 
ATOM     24  H13 UNL     1      29.249   5.321   3.896  1.00  0.00     0.275 HD
ATOM     25  H12 UNL     1      30.351   4.252   3.926  1.00  0.00     0.275 HD
ATOM     26  H11 UNL     1      29.522   4.542   5.380  1.00  0.00     0.275 HD
ENDBRANCH  18  23
ENDBRANCH  13  18
ENDBRANCH  10  11
ENDBRANCH   6  10
ENDBRANCH   1   5
BRANCH   3  27
HETATM   27  C17 UNL     1      27.514   7.913  14.632  1.00  0.00     0.173 C 
BRANCH  27  28
HETATM   28  C18 UNL     1      27.739   8.942  15.680  1.00  0.00     0.034 C 
BRANCH  28  29
HETATM   29  C19 UNL     1      28.369  10.214  15.247  1.00  0.00     0.004 C 
BRANCH  29  30
HETATM   30  C20 UNL     1      29.776  10.419  15.756  1.00  0.00     0.027 C 
BRANCH  30  31
HETATM   31  C21 UNL     1      30.094   9.477  16.892  1.00  0.00     0.232 C 
BRANCH  31  32
HETATM   32  N5  UNL     1      31.362   8.808  16.761  1.00  0.00    -0.070 N 
ATOM     33  H52 UNL     1      32.148   9.459  16.753  1.00  0.00     0.277 HD
ATOM     34  H51 UNL     1      31.618   8.289  17.601  1.00  0.00     0.277 HD
BRANCH  32  35
HETATM   35  C22 UNL     1      31.325   7.974  15.587  1.00  0.00     0.191 C 
HETATM   36  C23 UNL     1      30.845   6.578  15.749  1.00  0.00     0.043 C 
HETATM   37  C24 UNL     1      32.182   5.987  15.261  1.00  0.00    -0.028 A 
HETATM   38  C25 UNL     1      31.968   4.714  14.605  1.00  0.00     0.015 C 
HETATM   39  C29 UNL     1      32.827   6.729  14.010  1.00  0.00     0.006 A 
HETATM   40  C30 UNL     1      32.655   7.255  15.298  1.00  0.00     0.030 A 
HETATM   41  C26 UNL     1      32.389   4.740  13.184  1.00  0.00    -0.009 A 
HETATM   42  C27 UNL     1      31.891   5.263  11.990  1.00  0.00     0.010 A 
HETATM   43  C28 UNL     1      31.877   6.236  13.013  1.00  0.00    -0.005 A 
ENDBRANCH  32  35
ENDBRANCH  31  32
ENDBRANCH  30  31
ENDBRANCH  29  30
ENDBRANCH  28  29
ENDBRANCH  27  28
BRANCH  27  44
HETATM   44  C31 UNL     1      26.103   7.478  14.489  1.00  0.00     0.254 C 
HETATM   45  N6  UNL     1      25.659   6.154  14.456  1.00  0.00    -0.060 NA
HETATM   46  O3  UNL     1      25.194   8.374  14.386  1.00  0.00    -0.275 OA
ENDBRANCH  27  44
ENDBRANCH   3  27
TORSDOF 15
ENDMDL
