MODEL 1
REMARK VINA RESULT: -8.255440887      0.000      0.000
REMARK  7 active torsions:
REMARK  status: ('A' for Active; 'I' for Inactive)
REMARK       I    between atoms: C1_4  and  N3_6 
REMARK    1  A    between atoms: N4_9  and  C4_10 
REMARK    2  A    between atoms: C4_10  and  C5_11 
REMARK    3  A    between atoms: C5_11  and  N8_18 
REMARK    4  A    between atoms: N5_12  and  N6_14 
REMARK    5  A    between atoms: N8_18  and  C7_20 
REMARK    6  A    between atoms: C7_20  and  C8_21 
REMARK       I    between atoms: C8_21  and  N9_23 
REMARK    7  A    between atoms: N9_23  and  N10_25 
ROOT
HETATM    1  C5  UNL     1     -33.998 -58.503   8.185  1.00  0.00     0.106 C 
HETATM    2  N5  UNL     1     -34.851 -59.310   7.653  1.00  0.00    -0.288 N 
ATOM      3  H5  UNL     1     -35.036 -60.211   8.092  1.00  0.00     0.188 HD
ENDROOT
BRANCH   1   4
HETATM    4  C4  UNL     1     -33.332 -58.954   9.424  1.00  0.00     0.187 C 
BRANCH   4   5
HETATM    5  N4  UNL     1     -32.049 -58.401   9.686  1.00  0.00    -0.225 NA
HETATM    6  C3  UNL     1     -31.516 -58.557  10.988  1.00  0.00     0.130 C 
HETATM    7  C2  UNL     1     -30.042 -58.329  11.113  1.00  0.00     0.143 C 
HETATM    8  N3  UNL     1     -29.370 -58.054   9.876  1.00  0.00    -0.340 N 
HETATM    9  C1  UNL     1     -27.960 -57.946   9.881  1.00  0.00     0.185 C 
HETATM   10  C10 UNL     1     -30.086 -57.885   8.634  1.00  0.00     0.255 C 
HETATM   11  N1  UNL     1     -27.336 -57.711  10.971  1.00  0.00    -0.374 N 
HETATM   12  N2  UNL     1     -27.180 -58.093   8.692  1.00  0.00    -0.064 NA
ATOM     13  H12 UNL     1     -26.319 -57.633  10.975  1.00  0.00     0.158 HD
ATOM     14  H11 UNL     1     -27.893 -57.606  11.819  1.00  0.00     0.158 HD
HETATM   15  N13 UNL     1     -31.179 -58.858   8.689  1.00  0.00    -0.145 NA
ENDBRANCH   4   5
ENDBRANCH   1   4
BRANCH   1  16
HETATM   16  N8  UNL     1     -33.759 -57.274   7.550  1.00  0.00    -0.369 N 
ATOM     17  H8  UNL     1     -33.464 -57.320   6.575  1.00  0.00     0.161 HD
BRANCH  16  18
HETATM   18  C7  UNL     1     -33.882 -55.964   8.112  1.00  0.00     0.225 C 
BRANCH  18  19
HETATM   19  C8  UNL     1     -32.625 -55.191   8.208  1.00  0.00     0.253 C 
HETATM   20  O1  UNL     1     -32.266 -54.528   9.205  1.00  0.00    -0.270 OA
HETATM   21  N9  UNL     1     -31.767 -55.210   7.077  1.00  0.00    -0.267 N 
ATOM     22  H9  UNL     1     -32.018 -55.737   6.240  1.00  0.00     0.190 HD
BRANCH  21  23
HETATM   23  N10 UNL     1     -30.571 -54.488   7.138  1.00  0.00    -0.273 N 
HETATM   24  C9  UNL     1     -30.536 -53.336   6.554  1.00  0.00     0.215 C 
HETATM   25  N11 UNL     1     -31.646 -52.794   5.872  1.00  0.00    -0.065 NA
HETATM   26  N12 UNL     1     -29.319 -52.611   6.619  1.00  0.00    -0.065 NA
ATOM     27  H10 UNL     1     -29.755 -54.859   7.625  1.00  0.00     0.189 HD
ENDBRANCH  21  23
ENDBRANCH  18  19
ENDBRANCH  16  18
ENDBRANCH   1  16
BRANCH   2  28
HETATM   28  N6  UNL     1     -35.512 -58.968   6.502  1.00  0.00    -0.297 N 
HETATM   29  C6  UNL     1     -35.282 -59.511   5.380  1.00  0.00     0.206 C 
HETATM   30  N7  UNL     1     -34.338 -60.524   5.147  1.00  0.00    -0.095 NA
ATOM     31  H6  UNL     1     -36.224 -58.239   6.551  1.00  0.00     0.187 HD
ENDBRANCH   2  28
TORSDOF 7
ENDMDL
MODEL 2
REMARK VINA RESULT: -8.046648999      1.835      2.757
REMARK  7 active torsions:
REMARK  status: ('A' for Active; 'I' for Inactive)
REMARK       I    between atoms: C1_4  and  N3_6 
REMARK    1  A    between atoms: N4_9  and  C4_10 
REMARK    2  A    between atoms: C4_10  and  C5_11 
REMARK    3  A    between atoms: C5_11  and  N8_18 
REMARK    4  A    between atoms: N5_12  and  N6_14 
REMARK    5  A    between atoms: N8_18  and  C7_20 
REMARK    6  A    between atoms: C7_20  and  C8_21 
REMARK       I    between atoms: C8_21  and  N9_23 
REMARK    7  A    between atoms: N9_23  and  N10_25 
ROOT
HETATM    1  C5  UNL     1     -34.344 -58.180   8.724  1.00  0.00     0.106 C 
HETATM    2  N5  UNL     1     -34.819 -57.252   9.482  1.00  0.00    -0.288 N 
ATOM      3  H5  UNL     1     -34.612 -57.261  10.481  1.00  0.00     0.188 HD
ENDROOT
BRANCH   1   4
HETATM    4  C4  UNL     1     -33.514 -59.215   9.371  1.00  0.00     0.187 C 
BRANCH   4   5
HETATM    5  N4  UNL     1     -32.291 -58.774   9.947  1.00  0.00    -0.225 NA
HETATM    6  C3  UNL     1     -31.214 -59.692   9.994  1.00  0.00     0.130 C 
HETATM    7  C2  UNL     1     -29.864 -59.089  10.225  1.00  0.00     0.143 C 
HETATM    8  N3  UNL     1     -29.850 -57.656  10.296  1.00  0.00    -0.340 N 
HETATM    9  C1  UNL     1     -28.603 -56.996  10.391  1.00  0.00     0.185 C 
HETATM   10  C10 UNL     1     -31.064 -56.874  10.273  1.00  0.00     0.255 C 
HETATM   11  N1  UNL     1     -27.568 -57.628  10.789  1.00  0.00    -0.374 N 
HETATM   12  N2  UNL     1     -28.444 -55.616  10.052  1.00  0.00    -0.064 NA
ATOM     13  H12 UNL     1     -26.668 -57.152  10.858  1.00  0.00     0.158 HD
ATOM     14  H11 UNL     1     -27.682 -58.613  11.031  1.00  0.00     0.158 HD
HETATM   15  N13 UNL     1     -31.944 -57.566   9.331  1.00  0.00    -0.145 NA
ENDBRANCH   4   5
ENDBRANCH   1   4
BRANCH   1  16
HETATM   16  N8  UNL     1     -34.657 -58.145   7.355  1.00  0.00    -0.369 N 
ATOM     17  H8  UNL     1     -35.648 -58.180   7.118  1.00  0.00     0.161 HD
BRANCH  16  18
HETATM   18  C7  UNL     1     -33.746 -58.066   6.255  1.00  0.00     0.225 C 
BRANCH  18  19
HETATM   19  C8  UNL     1     -33.474 -56.704   5.748  1.00  0.00     0.253 C 
HETATM   20  O1  UNL     1     -34.125 -56.131   4.847  1.00  0.00    -0.270 OA
HETATM   21  N9  UNL     1     -32.391 -55.999   6.337  1.00  0.00    -0.267 N 
ATOM     22  H9  UNL     1     -31.832 -56.425   7.076  1.00  0.00     0.190 HD
BRANCH  21  23
HETATM   23  N10 UNL     1     -32.110 -54.708   5.879  1.00  0.00    -0.273 N 
HETATM   24  C9  UNL     1     -31.091 -54.100   6.390  1.00  0.00     0.215 C 
HETATM   25  N11 UNL     1     -30.269 -54.687   7.376  1.00  0.00    -0.065 NA
HETATM   26  N12 UNL     1     -30.814 -52.791   5.921  1.00  0.00    -0.065 NA
ATOM     27  H10 UNL     1     -32.689 -54.263   5.167  1.00  0.00     0.189 HD
ENDBRANCH  21  23
ENDBRANCH  18  19
ENDBRANCH  16  18
ENDBRANCH   1  16
BRANCH   2  28
HETATM   28  N6  UNL     1     -35.600 -56.255   8.961  1.00  0.00    -0.297 N 
HETATM   29  C6  UNL     1     -35.150 -55.115   8.638  1.00  0.00     0.206 C 
HETATM   30  N7  UNL     1     -33.813 -54.707   8.762  1.00  0.00    -0.095 NA
ATOM     31  H6  UNL     1     -36.595 -56.439   8.825  1.00  0.00     0.187 HD
ENDBRANCH   2  28
TORSDOF 7
ENDMDL
MODEL 3
REMARK VINA RESULT: -7.903990847      1.913      5.130
REMARK  7 active torsions:
REMARK  status: ('A' for Active; 'I' for Inactive)
REMARK       I    between atoms: C1_4  and  N3_6 
REMARK    1  A    between atoms: N4_9  and  C4_10 
REMARK    2  A    between atoms: C4_10  and  C5_11 
REMARK    3  A    between atoms: C5_11  and  N8_18 
REMARK    4  A    between atoms: N5_12  and  N6_14 
REMARK    5  A    between atoms: N8_18  and  C7_20 
REMARK    6  A    between atoms: C7_20  and  C8_21 
REMARK       I    between atoms: C8_21  and  N9_23 
REMARK    7  A    between atoms: N9_23  and  N10_25 
ROOT
HETATM    1  C5  UNL     1     -30.973 -57.193  11.510  1.00  0.00     0.106 C 
HETATM    2  N5  UNL     1     -30.853 -58.474  11.592  1.00  0.00    -0.288 N 
ATOM      3  H5  UNL     1     -31.644 -59.037  11.907  1.00  0.00     0.188 HD
ENDROOT
BRANCH   1   4
HETATM    4  C4  UNL     1     -32.279 -56.617  11.890  1.00  0.00     0.187 C 
BRANCH   4   5
HETATM    5  N4  UNL     1     -33.225 -56.456  10.841  1.00  0.00    -0.225 NA
HETATM    6  C3  UNL     1     -33.145 -55.282  10.054  1.00  0.00     0.130 C 
HETATM    7  C2  UNL     1     -33.870 -55.333   8.746  1.00  0.00     0.143 C 
HETATM    8  N3  UNL     1     -34.485 -56.595   8.448  1.00  0.00    -0.340 N 
HETATM    9  C1  UNL     1     -35.087 -56.772   7.182  1.00  0.00     0.185 C 
HETATM   10  C10 UNL     1     -34.506 -57.682   9.399  1.00  0.00     0.255 C 
HETATM   11  N1  UNL     1     -35.424 -55.759   6.481  1.00  0.00    -0.374 N 
HETATM   12  N2  UNL     1     -35.345 -58.067   6.635  1.00  0.00    -0.064 NA
ATOM     13  H12 UNL     1     -35.859 -55.886   5.567  1.00  0.00     0.158 HD
ATOM     14  H11 UNL     1     -35.241 -54.834   6.872  1.00  0.00     0.158 HD
HETATM   15  N13 UNL     1     -33.207 -57.624  10.071  1.00  0.00    -0.145 NA
ENDBRANCH   4   5
ENDBRANCH   1   4
BRANCH   1  16
HETATM   16  N8  UNL     1     -29.863 -56.448  11.084  1.00  0.00    -0.369 N 
ATOM     17  H8  UNL     1     -29.539 -55.718  11.719  1.00  0.00     0.161 HD
BRANCH  16  18
HETATM   18  C7  UNL     1     -29.132 -56.594   9.862  1.00  0.00     0.225 C 
BRANCH  18  19
HETATM   19  C8  UNL     1     -29.903 -56.348   8.625  1.00  0.00     0.253 C 
HETATM   20  O1  UNL     1     -30.803 -57.095   8.182  1.00  0.00    -0.270 OA
HETATM   21  N9  UNL     1     -29.591 -55.173   7.892  1.00  0.00    -0.267 N 
ATOM     22  H9  UNL     1     -28.864 -54.534   8.215  1.00  0.00     0.190 HD
BRANCH  21  23
HETATM   23  N10 UNL     1     -30.304 -54.914   6.717  1.00  0.00    -0.273 N 
HETATM   24  C9  UNL     1     -30.148 -53.755   6.166  1.00  0.00     0.215 C 
HETATM   25  N11 UNL     1     -29.297 -52.765   6.702  1.00  0.00    -0.065 NA
HETATM   26  N12 UNL     1     -30.875 -53.499   4.976  1.00  0.00    -0.065 NA
ATOM     27  H10 UNL     1     -30.924 -55.613   6.311  1.00  0.00     0.189 HD
ENDBRANCH  21  23
ENDBRANCH  18  19
ENDBRANCH  16  18
ENDBRANCH   1  16
BRANCH   2  28
HETATM   28  N6  UNL     1     -29.674 -59.088  11.260  1.00  0.00    -0.297 N 
HETATM   29  C6  UNL     1     -29.544 -59.847  10.253  1.00  0.00     0.206 C 
HETATM   30  N7  UNL     1     -30.563 -60.168   9.342  1.00  0.00    -0.095 NA
ATOM     31  H6  UNL     1     -28.860 -58.926  11.853  1.00  0.00     0.187 HD
ENDBRANCH   2  28
TORSDOF 7
ENDMDL
MODEL 4
REMARK VINA RESULT: -7.859364682      2.173      6.254
REMARK  7 active torsions:
REMARK  status: ('A' for Active; 'I' for Inactive)
REMARK       I    between atoms: C1_4  and  N3_6 
REMARK    1  A    between atoms: N4_9  and  C4_10 
REMARK    2  A    between atoms: C4_10  and  C5_11 
REMARK    3  A    between atoms: C5_11  and  N8_18 
REMARK    4  A    between atoms: N5_12  and  N6_14 
REMARK    5  A    between atoms: N8_18  and  C7_20 
REMARK    6  A    between atoms: C7_20  and  C8_21 
REMARK       I    between atoms: C8_21  and  N9_23 
REMARK    7  A    between atoms: N9_23  and  N10_25 
ROOT
HETATM    1  C5  UNL     1     -29.442 -57.358  10.987  1.00  0.00     0.106 C 
HETATM    2  N5  UNL     1     -30.111 -56.513  11.695  1.00  0.00    -0.288 N 
ATOM      3  H5  UNL     1     -30.115 -55.527  11.434  1.00  0.00     0.188 HD
ENDROOT
BRANCH   1   4
HETATM    4  C4  UNL     1     -28.709 -56.824   9.821  1.00  0.00     0.187 C 
BRANCH   4   5
HETATM    5  N4  UNL     1     -29.385 -55.842   9.047  1.00  0.00    -0.225 NA
HETATM    6  C3  UNL     1     -28.680 -55.248   7.972  1.00  0.00     0.130 C 
HETATM    7  C2  UNL     1     -29.527 -54.542   6.960  1.00  0.00     0.143 C 
HETATM    8  N3  UNL     1     -30.940 -54.629   7.191  1.00  0.00    -0.340 N 
HETATM    9  C1  UNL     1     -31.819 -54.095   6.221  1.00  0.00     0.185 C 
HETATM   10  C10 UNL     1     -31.487 -55.243   8.378  1.00  0.00     0.255 C 
HETATM   11  N1  UNL     1     -31.399 -53.233   5.377  1.00  0.00    -0.374 N 
HETATM   12  N2  UNL     1     -33.191 -54.485   6.140  1.00  0.00    -0.064 NA
ATOM     13  H12 UNL     1     -32.034 -52.848   4.677  1.00  0.00     0.158 HD
ATOM     14  H11 UNL     1     -30.420 -52.954   5.436  1.00  0.00     0.158 HD
HETATM   15  N13 UNL     1     -30.613 -56.385   8.653  1.00  0.00    -0.145 NA
ENDBRANCH   4   5
ENDBRANCH   1   4
BRANCH   1  16
HETATM   16  N8  UNL     1     -29.449 -58.705  11.379  1.00  0.00    -0.369 N 
ATOM     17  H8  UNL     1     -28.706 -58.994  12.017  1.00  0.00     0.161 HD
BRANCH  16  18
HETATM   18  C7  UNL     1     -30.377 -59.722  10.988  1.00  0.00     0.225 C 
BRANCH  18  19
HETATM   19  C8  UNL     1     -31.058 -59.499   9.695  1.00  0.00     0.253 C 
HETATM   20  O1  UNL     1     -30.588 -59.798   8.576  1.00  0.00    -0.270 OA
HETATM   21  N9  UNL     1     -32.345 -58.900   9.738  1.00  0.00    -0.267 N 
ATOM     22  H9  UNL     1     -32.770 -58.639  10.628  1.00  0.00     0.190 HD
BRANCH  21  23
HETATM   23  N10 UNL     1     -33.015 -58.677   8.531  1.00  0.00    -0.273 N 
HETATM   24  C9  UNL     1     -34.288 -58.895   8.503  1.00  0.00     0.215 C 
HETATM   25  N11 UNL     1     -35.009 -59.342   9.631  1.00  0.00    -0.065 NA
HETATM   26  N12 UNL     1     -34.960 -58.667   7.275  1.00  0.00    -0.065 NA
ATOM     27  H10 UNL     1     -32.516 -58.353   7.702  1.00  0.00     0.189 HD
ENDBRANCH  21  23
ENDBRANCH  18  19
ENDBRANCH  16  18
ENDBRANCH   1  16
BRANCH   2  28
HETATM   28  N6  UNL     1     -30.817 -56.926  12.793  1.00  0.00    -0.297 N 
HETATM   29  C6  UNL     1     -32.083 -56.900  12.857  1.00  0.00     0.206 C 
HETATM   30  N7  UNL     1     -32.937 -56.454  11.837  1.00  0.00    -0.095 NA
ATOM     31  H6  UNL     1     -30.298 -57.273  13.600  1.00  0.00     0.187 HD
ENDBRANCH   2  28
TORSDOF 7
ENDMDL
MODEL 5
REMARK VINA RESULT: -7.837763800      1.365      1.466
REMARK  7 active torsions:
REMARK  status: ('A' for Active; 'I' for Inactive)
REMARK       I    between atoms: C1_4  and  N3_6 
REMARK    1  A    between atoms: N4_9  and  C4_10 
REMARK    2  A    between atoms: C4_10  and  C5_11 
REMARK    3  A    between atoms: C5_11  and  N8_18 
REMARK    4  A    between atoms: N5_12  and  N6_14 
REMARK    5  A    between atoms: N8_18  and  C7_20 
REMARK    6  A    between atoms: C7_20  and  C8_21 
REMARK       I    between atoms: C8_21  and  N9_23 
REMARK    7  A    between atoms: N9_23  and  N10_25 
ROOT
HETATM    1  C5  UNL     1     -33.808 -57.742   7.946  1.00  0.00     0.106 C 
HETATM    2  N5  UNL     1     -34.216 -58.916   7.606  1.00  0.00    -0.288 N 
ATOM      3  H5  UNL     1     -34.296 -59.647   8.313  1.00  0.00     0.188 HD
ENDROOT
BRANCH   1   4
HETATM    4  C4  UNL     1     -33.474 -57.533   9.369  1.00  0.00     0.187 C 
BRANCH   4   5
HETATM    5  N4  UNL     1     -32.105 -57.297   9.667  1.00  0.00    -0.225 NA
HETATM    6  C3  UNL     1     -31.640 -57.647  10.958  1.00  0.00     0.130 C 
HETATM    7  C2  UNL     1     -30.155 -57.761  11.099  1.00  0.00     0.143 C 
HETATM    8  N3  UNL     1     -29.419 -57.568   9.883  1.00  0.00    -0.340 N 
HETATM    9  C1  UNL     1     -28.021 -57.777   9.897  1.00  0.00     0.185 C 
HETATM   10  C10 UNL     1     -30.061 -57.168   8.652  1.00  0.00     0.255 C 
HETATM   11  N1  UNL     1     -27.377 -57.754  10.999  1.00  0.00    -0.374 N 
HETATM   12  N2  UNL     1     -27.275 -58.021   8.702  1.00  0.00    -0.064 NA
ATOM     13  H12 UNL     1     -26.368 -57.905  11.010  1.00  0.00     0.158 HD
ATOM     14  H11 UNL     1     -27.910 -57.579  11.852  1.00  0.00     0.158 HD
HETATM   15  N13 UNL     1     -31.343 -57.875   8.645  1.00  0.00    -0.145 NA
ENDBRANCH   4   5
ENDBRANCH   1   4
BRANCH   1  16
HETATM   16  N8  UNL     1     -33.699 -56.761   6.946  1.00  0.00    -0.369 N 
ATOM     17  H8  UNL     1     -33.688 -57.098   5.984  1.00  0.00     0.161 HD
BRANCH  16  18
HETATM   18  C7  UNL     1     -33.602 -55.344   7.123  1.00  0.00     0.225 C 
BRANCH  18  19
HETATM   19  C8  UNL     1     -32.268 -54.760   6.868  1.00  0.00     0.253 C 
HETATM   20  O1  UNL     1     -31.750 -53.836   7.533  1.00  0.00    -0.270 OA
HETATM   21  N9  UNL     1     -31.525 -55.296   5.783  1.00  0.00    -0.267 N 
ATOM     22  H9  UNL     1     -31.906 -56.051   5.211  1.00  0.00     0.190 HD
BRANCH  21  23
HETATM   23  N10 UNL     1     -30.260 -54.764   5.516  1.00  0.00    -0.273 N 
HETATM   24  C9  UNL     1     -30.086 -54.170   4.381  1.00  0.00     0.215 C 
HETATM   25  N11 UNL     1     -31.114 -54.044   3.423  1.00  0.00    -0.065 NA
HETATM   26  N12 UNL     1     -28.800 -53.635   4.118  1.00  0.00    -0.065 NA
ATOM     27  H10 UNL     1     -29.501 -54.842   6.193  1.00  0.00     0.189 HD
ENDBRANCH  21  23
ENDBRANCH  18  19
ENDBRANCH  16  18
ENDBRANCH   1  16
BRANCH   2  28
HETATM   28  N6  UNL     1     -34.545 -59.193   6.305  1.00  0.00    -0.297 N 
HETATM   29  C6  UNL     1     -35.697 -59.581   5.946  1.00  0.00     0.206 C 
HETATM   30  N7  UNL     1     -36.789 -59.782   6.803  1.00  0.00    -0.095 NA
ATOM     31  H6  UNL     1     -33.826 -59.081   5.590  1.00  0.00     0.187 HD
ENDBRANCH   2  28
TORSDOF 7
ENDMDL
