MODEL 1
REMARK VINA RESULT: -8.383404837      0.000      0.000
REMARK  6 active torsions:
REMARK  status: ('A' for Active; 'I' for Inactive)
REMARK    1  A    between atoms: N3_4  and  C2_6 
REMARK    2  A    between atoms: C2_6  and  C3_7 
REMARK    3  A    between atoms: C3_7  and  C4_8 
REMARK    4  A    between atoms: C4_8  and  C5_9 
REMARK    5  A    between atoms: C9_19  and  C10_20 
REMARK    6  A    between atoms: C10_20  and  N6_21 
ROOT
HETATM    1  C5  UNL     1     -32.829 -58.713   9.722  1.00  0.00     0.176 C 
HETATM    2  N4  UNL     1     -31.473 -59.251   9.669  1.00  0.00    -0.346 N 
ATOM      3  H4  UNL     1     -31.145 -59.705   8.817  1.00  0.00     0.163 HD
HETATM    4  C6  UNL     1     -30.608 -59.150  10.778  1.00  0.00     0.236 C 
HETATM    5  O1  UNL     1     -29.683 -59.986  10.893  1.00  0.00    -0.272 OA
HETATM    6  C7  UNL     1     -30.774 -58.096  11.781  1.00  0.00     0.225 C 
HETATM    7  N5  UNL     1     -30.245 -56.813  11.363  1.00  0.00    -0.350 N 
ATOM      8  H5  UNL     1     -30.203 -56.092  12.084  1.00  0.00     0.163 HD
HETATM    9  C8  UNL     1     -29.786 -56.440  10.100  1.00  0.00     0.242 C 
HETATM   10  O2  UNL     1     -28.609 -55.932  10.033  1.00  0.00    -0.271 OA
HETATM   11  C9  UNL     1     -30.505 -56.562   8.807  1.00  0.00     0.194 C 
HETATM   12  N9  UNL     1     -31.927 -56.434   8.919  1.00  0.00    -0.344 N 
ATOM     13  H9  UNL     1     -32.353 -55.676   8.386  1.00  0.00     0.163 HD
HETATM   14  C12 UNL     1     -32.802 -57.228   9.674  1.00  0.00     0.241 C 
HETATM   15  O3  UNL     1     -33.657 -56.618  10.390  1.00  0.00    -0.271 OA
ENDROOT
BRANCH   1  16
HETATM   16  C4  UNL     1     -33.654 -59.209   8.568  1.00  0.00     0.036 C 
BRANCH  16  17
HETATM   17  C3  UNL     1     -34.987 -58.521   8.472  1.00  0.00     0.022 C 
BRANCH  17  18
HETATM   18  C2  UNL     1     -35.310 -58.001   7.101  1.00  0.00     0.122 C 
BRANCH  18  19
HETATM   19  N3  UNL     1     -35.582 -56.575   7.136  1.00  0.00    -0.367 N 
HETATM   20  C1  UNL     1     -34.730 -55.701   6.716  1.00  0.00     0.196 C 
HETATM   21  N1  UNL     1     -35.024 -54.320   6.763  1.00  0.00    -0.067 NA
HETATM   22  N2  UNL     1     -33.490 -56.178   6.209  1.00  0.00    -0.067 NA
ATOM     23  H3  UNL     1     -36.476 -56.253   7.505  1.00  0.00     0.161 HD
ENDBRANCH  18  19
ENDBRANCH  17  18
ENDBRANCH  16  17
ENDBRANCH   1  16
BRANCH  11  24
HETATM   24  C10 UNL     1     -29.988 -55.459   7.864  1.00  0.00     0.156 C 
BRANCH  24  25
HETATM   25  N6  UNL     1     -31.057 -54.648   7.376  1.00  0.00    -0.364 N 
HETATM   26  C11 UNL     1     -30.761 -53.531   6.794  1.00  0.00     0.197 C 
HETATM   27  N7  UNL     1     -29.418 -53.091   6.628  1.00  0.00    -0.067 NA
HETATM   28  N8  UNL     1     -31.786 -52.672   6.284  1.00  0.00    -0.067 NA
ATOM     29  H6  UNL     1     -32.029 -54.942   7.483  1.00  0.00     0.161 HD
ENDBRANCH  24  25
ENDBRANCH  11  24
TORSDOF 6
ENDMDL
MODEL 2
REMARK VINA RESULT: -8.271084912      1.204      1.450
REMARK  6 active torsions:
REMARK  status: ('A' for Active; 'I' for Inactive)
REMARK    1  A    between atoms: N3_4  and  C2_6 
REMARK    2  A    between atoms: C2_6  and  C3_7 
REMARK    3  A    between atoms: C3_7  and  C4_8 
REMARK    4  A    between atoms: C4_8  and  C5_9 
REMARK    5  A    between atoms: C9_19  and  C10_20 
REMARK    6  A    between atoms: C10_20  and  N6_21 
ROOT
HETATM    1  C5  UNL     1     -32.528 -58.554   9.864  1.00  0.00     0.176 C 
HETATM    2  N4  UNL     1     -31.355 -58.891   9.061  1.00  0.00    -0.346 N 
ATOM      3  H4  UNL     1     -31.479 -59.209   8.100  1.00  0.00     0.163 HD
HETATM    4  C6  UNL     1     -30.055 -58.784   9.595  1.00  0.00     0.236 C 
HETATM    5  O1  UNL     1     -29.147 -59.493   9.104  1.00  0.00    -0.272 OA
HETATM    6  C7  UNL     1     -29.757 -57.870  10.699  1.00  0.00     0.225 C 
HETATM    7  N5  UNL     1     -29.603 -56.490  10.281  1.00  0.00    -0.350 N 
ATOM      8  H5  UNL     1     -29.248 -55.847  10.988  1.00  0.00     0.163 HD
HETATM    9  C8  UNL     1     -29.880 -55.934   9.033  1.00  0.00     0.242 C 
HETATM   10  O2  UNL     1     -28.939 -55.263   8.471  1.00  0.00    -0.271 OA
HETATM   11  C9  UNL     1     -31.148 -56.023   8.266  1.00  0.00     0.194 C 
HETATM   12  N9  UNL     1     -32.318 -56.103   9.087  1.00  0.00    -0.344 N 
ATOM     13  H9  UNL     1     -33.007 -55.362   8.963  1.00  0.00     0.163 HD
HETATM   14  C12 UNL     1     -32.630 -57.082  10.043  1.00  0.00     0.241 C 
HETATM   15  O3  UNL     1     -33.038 -56.671  11.173  1.00  0.00    -0.271 OA
ENDROOT
BRANCH   1  16
HETATM   16  C4  UNL     1     -33.790 -59.040   9.210  1.00  0.00     0.036 C 
BRANCH  16  17
HETATM   17  C3  UNL     1     -33.895 -58.619   7.771  1.00  0.00     0.022 C 
BRANCH  17  18
HETATM   18  C2  UNL     1     -35.217 -58.007   7.408  1.00  0.00     0.122 C 
BRANCH  18  19
HETATM   19  N3  UNL     1     -35.033 -56.742   6.719  1.00  0.00    -0.367 N 
HETATM   20  C1  UNL     1     -35.242 -55.606   7.296  1.00  0.00     0.196 C 
HETATM   21  N1  UNL     1     -35.054 -54.392   6.598  1.00  0.00    -0.067 NA
HETATM   22  N2  UNL     1     -35.667 -55.623   8.652  1.00  0.00    -0.067 NA
ATOM     23  H3  UNL     1     -34.729 -56.751   5.745  1.00  0.00     0.161 HD
ENDBRANCH  18  19
ENDBRANCH  17  18
ENDBRANCH  16  17
ENDBRANCH   1  16
BRANCH  11  24
HETATM   24  C10 UNL     1     -31.261 -54.770   7.377  1.00  0.00     0.156 C 
BRANCH  24  25
HETATM   25  N6  UNL     1     -30.576 -54.949   6.136  1.00  0.00    -0.364 N 
HETATM   26  C11 UNL     1     -29.869 -53.967   5.680  1.00  0.00     0.197 C 
HETATM   27  N7  UNL     1     -29.754 -52.726   6.368  1.00  0.00    -0.067 NA
HETATM   28  N8  UNL     1     -29.159 -54.081   4.442  1.00  0.00    -0.067 NA
ATOM     29  H6  UNL     1     -30.642 -55.829   5.624  1.00  0.00     0.161 HD
ENDBRANCH  24  25
ENDBRANCH  11  24
TORSDOF 6
ENDMDL
MODEL 3
REMARK VINA RESULT: -8.258938965      2.252      4.501
REMARK  6 active torsions:
REMARK  status: ('A' for Active; 'I' for Inactive)
REMARK    1  A    between atoms: N3_4  and  C2_6 
REMARK    2  A    between atoms: C2_6  and  C3_7 
REMARK    3  A    between atoms: C3_7  and  C4_8 
REMARK    4  A    between atoms: C4_8  and  C5_9 
REMARK    5  A    between atoms: C9_19  and  C10_20 
REMARK    6  A    between atoms: C10_20  and  N6_21 
ROOT
HETATM    1  C5  UNL     1     -32.225 -58.777   9.360  1.00  0.00     0.176 C 
HETATM    2  N4  UNL     1     -32.146 -57.702  10.344  1.00  0.00    -0.346 N 
ATOM      3  H4  UNL     1     -31.329 -57.635  10.951  1.00  0.00     0.163 HD
HETATM    4  C6  UNL     1     -33.182 -56.753  10.467  1.00  0.00     0.236 C 
HETATM    5  O1  UNL     1     -33.329 -56.168  11.565  1.00  0.00    -0.272 OA
HETATM    6  C7  UNL     1     -34.073 -56.448   9.347  1.00  0.00     0.225 C 
HETATM    7  N5  UNL     1     -33.488 -55.550   8.371  1.00  0.00    -0.350 N 
ATOM      8  H5  UNL     1     -34.122 -55.193   7.657  1.00  0.00     0.163 HD
HETATM    9  C8  UNL     1     -32.166 -55.115   8.286  1.00  0.00     0.242 C 
HETATM   10  O2  UNL     1     -31.971 -53.846   8.233  1.00  0.00    -0.271 OA
HETATM   11  C9  UNL     1     -30.940 -55.952   8.248  1.00  0.00     0.194 C 
HETATM   12  N9  UNL     1     -31.126 -57.224   7.618  1.00  0.00    -0.344 N 
ATOM     13  H9  UNL     1     -30.542 -57.412   6.803  1.00  0.00     0.163 HD
HETATM   14  C12 UNL     1     -32.016 -58.243   7.988  1.00  0.00     0.241 C 
HETATM   15  O3  UNL     1     -32.712 -58.762   7.061  1.00  0.00    -0.271 OA
ENDROOT
BRANCH   1  16
HETATM   16  C4  UNL     1     -31.184 -59.829   9.622  1.00  0.00     0.036 C 
BRANCH  16  17
HETATM   17  C3  UNL     1     -30.743 -59.861  11.058  1.00  0.00     0.022 C 
BRANCH  17  18
HETATM   18  C2  UNL     1     -29.491 -59.078  11.330  1.00  0.00     0.122 C 
BRANCH  18  19
HETATM   19  N3  UNL     1     -28.611 -59.085  10.175  1.00  0.00    -0.367 N 
HETATM   20  C1  UNL     1     -28.021 -58.017   9.753  1.00  0.00     0.196 C 
HETATM   21  N1  UNL     1     -27.169 -58.057   8.626  1.00  0.00    -0.067 NA
HETATM   22  N2  UNL     1     -28.260 -56.806  10.458  1.00  0.00    -0.067 NA
ATOM     23  H3  UNL     1     -28.453 -59.963   9.682  1.00  0.00     0.161 HD
ENDBRANCH  18  19
ENDBRANCH  17  18
ENDBRANCH  16  17
ENDBRANCH   1  16
BRANCH  11  24
HETATM   24  C10 UNL     1     -29.854 -55.179   7.478  1.00  0.00     0.156 C 
BRANCH  24  25
HETATM   25  N6  UNL     1     -30.250 -54.929   6.129  1.00  0.00    -0.364 N 
HETATM   26  C11 UNL     1     -30.069 -53.742   5.647  1.00  0.00     0.197 C 
HETATM   27  N7  UNL     1     -29.494 -52.689   6.413  1.00  0.00    -0.067 NA
HETATM   28  N8  UNL     1     -30.446 -53.426   4.302  1.00  0.00    -0.067 NA
ATOM     29  H6  UNL     1     -30.665 -55.668   5.559  1.00  0.00     0.161 HD
ENDBRANCH  24  25
ENDBRANCH  11  24
TORSDOF 6
ENDMDL
MODEL 4
REMARK VINA RESULT: -8.258935347      2.158      4.514
REMARK  6 active torsions:
REMARK  status: ('A' for Active; 'I' for Inactive)
REMARK    1  A    between atoms: N3_4  and  C2_6 
REMARK    2  A    between atoms: C2_6  and  C3_7 
REMARK    3  A    between atoms: C3_7  and  C4_8 
REMARK    4  A    between atoms: C4_8  and  C5_9 
REMARK    5  A    between atoms: C9_19  and  C10_20 
REMARK    6  A    between atoms: C10_20  and  N6_21 
ROOT
HETATM    1  C5  UNL     1     -34.021 -55.893   7.066  1.00  0.00     0.176 C 
HETATM    2  N4  UNL     1     -33.515 -57.251   6.890  1.00  0.00    -0.346 N 
ATOM      3  H4  UNL     1     -32.858 -57.449   6.135  1.00  0.00     0.163 HD
HETATM    4  C6  UNL     1     -33.921 -58.294   7.748  1.00  0.00     0.236 C 
HETATM    5  O1  UNL     1     -33.872 -59.471   7.323  1.00  0.00    -0.272 OA
HETATM    6  C7  UNL     1     -34.389 -58.022   9.109  1.00  0.00     0.225 C 
HETATM    7  N5  UNL     1     -33.315 -57.782  10.052  1.00  0.00    -0.350 N 
ATOM      8  H5  UNL     1     -33.586 -57.739  11.034  1.00  0.00     0.163 HD
HETATM    9  C8  UNL     1     -31.959 -57.602   9.785  1.00  0.00     0.242 C 
HETATM   10  O2  UNL     1     -31.134 -58.355  10.420  1.00  0.00    -0.271 OA
HETATM   11  C9  UNL     1     -31.345 -56.632   8.843  1.00  0.00     0.194 C 
HETATM   12  N9  UNL     1     -32.084 -55.414   8.701  1.00  0.00    -0.344 N 
ATOM     13  H9  UNL     1     -31.590 -54.557   8.947  1.00  0.00     0.163 HD
HETATM   14  C12 UNL     1     -33.408 -55.261   8.263  1.00  0.00     0.241 C 
HETATM   15  O3  UNL     1     -34.158 -54.507   8.959  1.00  0.00    -0.271 OA
ENDROOT
BRANCH   1  16
HETATM   16  C4  UNL     1     -33.710 -55.039   5.869  1.00  0.00     0.036 C 
BRANCH  16  17
HETATM   17  C3  UNL     1     -32.545 -55.559   5.076  1.00  0.00     0.022 C 
BRANCH  17  18
HETATM   18  C2  UNL     1     -31.554 -54.502   4.679  1.00  0.00     0.122 C 
BRANCH  18  19
HETATM   19  N3  UNL     1     -30.334 -54.613   5.459  1.00  0.00    -0.367 N 
HETATM   20  C1  UNL     1     -30.083 -53.835   6.459  1.00  0.00     0.196 C 
HETATM   21  N1  UNL     1     -28.886 -53.968   7.199  1.00  0.00    -0.067 NA
HETATM   22  N2  UNL     1     -31.049 -52.844   6.784  1.00  0.00    -0.067 NA
ATOM     23  H3  UNL     1     -29.653 -55.329   5.209  1.00  0.00     0.161 HD
ENDBRANCH  18  19
ENDBRANCH  17  18
ENDBRANCH  16  17
ENDBRANCH   1  16
BRANCH  11  24
HETATM   24  C10 UNL     1     -29.934 -56.291   9.357  1.00  0.00     0.156 C 
BRANCH  24  25
HETATM   25  N6  UNL     1     -28.929 -56.985   8.617  1.00  0.00    -0.364 N 
HETATM   26  C11 UNL     1     -27.935 -57.498   9.267  1.00  0.00     0.197 C 
HETATM   27  N7  UNL     1     -27.814 -57.393  10.682  1.00  0.00    -0.067 NA
HETATM   28  N8  UNL     1     -26.893 -58.205   8.585  1.00  0.00    -0.067 NA
ATOM     29  H6  UNL     1     -28.993 -57.075   7.602  1.00  0.00     0.161 HD
ENDBRANCH  24  25
ENDBRANCH  11  24
TORSDOF 6
ENDMDL
MODEL 5
REMARK VINA RESULT: -7.850508489      1.814      2.350
REMARK  6 active torsions:
REMARK  status: ('A' for Active; 'I' for Inactive)
REMARK    1  A    between atoms: N3_4  and  C2_6 
REMARK    2  A    between atoms: C2_6  and  C3_7 
REMARK    3  A    between atoms: C3_7  and  C4_8 
REMARK    4  A    between atoms: C4_8  and  C5_9 
REMARK    5  A    between atoms: C9_19  and  C10_20 
REMARK    6  A    between atoms: C10_20  and  N6_21 
ROOT
HETATM    1  C5  UNL     1     -30.643 -58.587  10.692  1.00  0.00     0.176 C 
HETATM    2  N4  UNL     1     -29.824 -58.671   9.486  1.00  0.00    -0.346 N 
ATOM      3  H4  UNL     1     -30.206 -59.112   8.649  1.00  0.00     0.163 HD
HETATM    4  C6  UNL     1     -28.514 -58.150   9.460  1.00  0.00     0.236 C 
HETATM    5  O1  UNL     1     -27.697 -58.627   8.640  1.00  0.00    -0.272 OA
HETATM    6  C7  UNL     1     -28.104 -57.074  10.365  1.00  0.00     0.225 C 
HETATM    7  N5  UNL     1     -28.540 -55.760   9.936  1.00  0.00    -0.350 N 
ATOM      8  H5  UNL     1     -28.150 -54.971  10.451  1.00  0.00     0.163 HD
HETATM    9  C8  UNL     1     -29.425 -55.441   8.908  1.00  0.00     0.242 C 
HETATM   10  O2  UNL     1     -29.017 -54.601   8.026  1.00  0.00    -0.271 OA
HETATM   11  C9  UNL     1     -30.802 -55.961   8.707  1.00  0.00     0.194 C 
HETATM   12  N9  UNL     1     -31.487 -56.274   9.925  1.00  0.00    -0.344 N 
ATOM     13  H9  UNL     1     -32.358 -55.771  10.093  1.00  0.00     0.163 HD
HETATM   14  C12 UNL     1     -31.102 -57.191  10.914  1.00  0.00     0.241 C 
HETATM   15  O3  UNL     1     -31.149 -56.789  12.118  1.00  0.00    -0.271 OA
ENDROOT
BRANCH   1  16
HETATM   16  C4  UNL     1     -31.853 -59.472  10.589  1.00  0.00     0.036 C 
BRANCH  16  17
HETATM   17  C3  UNL     1     -32.437 -59.492   9.204  1.00  0.00     0.022 C 
BRANCH  17  18
HETATM   18  C2  UNL     1     -33.889 -59.115   9.148  1.00  0.00     0.122 C 
BRANCH  18  19
HETATM   19  N3  UNL     1     -34.165 -58.276   7.995  1.00  0.00    -0.367 N 
HETATM   20  C1  UNL     1     -34.481 -57.030   8.110  1.00  0.00     0.196 C 
HETATM   21  N1  UNL     1     -34.743 -56.239   6.968  1.00  0.00    -0.067 NA
HETATM   22  N2  UNL     1     -34.558 -56.486   9.422  1.00  0.00    -0.067 NA
ATOM     23  H3  UNL     1     -34.105 -58.685   7.063  1.00  0.00     0.161 HD
ENDBRANCH  18  19
ENDBRANCH  17  18
ENDBRANCH  16  17
ENDBRANCH   1  16
BRANCH  11  24
HETATM   24  C10 UNL     1     -31.613 -54.892   7.951  1.00  0.00     0.156 C 
BRANCH  24  25
HETATM   25  N6  UNL     1     -31.587 -55.121   6.541  1.00  0.00    -0.364 N 
HETATM   26  C11 UNL     1     -31.612 -54.094   5.754  1.00  0.00     0.197 C 
HETATM   27  N7  UNL     1     -31.665 -52.759   6.244  1.00  0.00    -0.067 NA
HETATM   28  N8  UNL     1     -31.589 -54.255   4.331  1.00  0.00    -0.067 NA
ATOM     29  H6  UNL     1     -31.549 -56.069   6.164  1.00  0.00     0.161 HD
ENDBRANCH  24  25
ENDBRANCH  11  24
TORSDOF 6
ENDMDL
