MODEL 1
REMARK VINA RESULT: -7.566492528      0.000      0.000
REMARK  10 active torsions:
REMARK  status: ('A' for Active; 'I' for Inactive)
REMARK    1  A    between atoms: N1_2  and  C4_5 
REMARK    2  A    between atoms: C4_5  and  C5_6 
REMARK       I    between atoms: C5_6  and  N2_8 
REMARK    3  A    between atoms: N2_8  and  C6_10 
REMARK    4  A    between atoms: C6_10  and  C7_11 
REMARK    5  A    between atoms: C6_10  and  C11_27 
REMARK    6  A    between atoms: C7_11  and  N3_12 
REMARK    7  A    between atoms: N3_12  and  C8_14 
REMARK    8  A    between atoms: C9_17  and  N5_18 
REMARK       I    between atoms: C11_27  and  N8_29 
REMARK    9  A    between atoms: N8_29  and  N9_31 
REMARK   10  A    between atoms: N9_31  and  N10_33 
ROOT
HETATM    1  C6  UNL     1     -30.255 -54.304   6.604  1.00  0.00     0.196 C 
ENDROOT
BRANCH   1   2
HETATM    2  N2  UNL     1     -31.252 -55.328   6.624  1.00  0.00    -0.345 N 
HETATM    3  C5  UNL     1     -32.206 -55.443   7.699  1.00  0.00     0.244 C 
HETATM    4  O1  UNL     1     -32.137 -54.604   8.632  1.00  0.00    -0.272 OA
ATOM      5  H2  UNL     1     -31.290 -55.997   5.855  1.00  0.00     0.163 HD
BRANCH   3   6
HETATM    6  C4  UNL     1     -33.228 -56.481   7.736  1.00  0.00     0.338 C 
BRANCH   6   7
HETATM    7  N1  UNL     1     -34.569 -56.105   7.501  1.00  0.00    -0.070 N 
HETATM    8  C1  UNL     1     -35.339 -55.648   8.611  1.00  0.00     0.272 C 
HETATM    9  C2  UNL     1     -35.269 -57.296   6.972  1.00  0.00     0.272 C 
HETATM   10  C3  UNL     1     -34.705 -55.113   6.436  1.00  0.00     0.272 C 
ENDBRANCH   6   7
ENDBRANCH   3   6
ENDBRANCH   1   2
BRANCH   1  11
HETATM   11  C7  UNL     1     -28.893 -54.737   7.082  1.00  0.00     0.173 C 
BRANCH  11  12
HETATM   12  N3  UNL     1     -28.805 -54.931   8.483  1.00  0.00    -0.223 N 
ATOM     13  H3  UNL     1     -28.641 -54.095   9.042  1.00  0.00     0.177 HD
BRANCH  12  14
HETATM   14  C8  UNL     1     -28.909 -56.037   9.132  1.00  0.00     0.696 A 
HETATM   15  N4  UNL     1     -28.042 -57.002   8.783  1.00  0.00    -0.022 N 
HETATM   16  C9  UNL     1     -28.050 -58.203   9.391  1.00  0.00     0.694 A 
ATOM     17  H4  UNL     1     -27.364 -56.821   8.043  1.00  0.00     0.203 HD
HETATM   18  N6  UNL     1     -28.966 -58.398  10.364  1.00  0.00    -0.141 N 
HETATM   19  C10 UNL     1     -29.827 -57.449  10.714  1.00  0.00     0.352 A 
ATOM     20  H6  UNL     1     -28.998 -59.298  10.844  1.00  0.00     0.189 HD
HETATM   21  O2  UNL     1     -30.692 -57.613  11.621  1.00  0.00    -0.246 OA
HETATM   22  N7  UNL     1     -29.827 -56.228  10.103  1.00  0.00    -0.140 N 
ATOM     23  H7  UNL     1     -30.487 -55.497  10.367  1.00  0.00     0.189 HD
BRANCH  16  24
HETATM   24  N5  UNL     1     -27.236 -59.141   9.077  1.00  0.00    -0.234 N 
ATOM     25  H52 UNL     1     -26.694 -59.613   9.801  1.00  0.00     0.174 HD
ATOM     26  H51 UNL     1     -27.097 -59.449   8.115  1.00  0.00     0.174 HD
ENDBRANCH  16  24
ENDBRANCH  12  14
ENDBRANCH  11  12
ENDBRANCH   1  11
BRANCH   1  27
HETATM   27  C11 UNL     1     -30.053 -53.802   5.180  1.00  0.00     0.261 C 
HETATM   28  O3  UNL     1     -30.315 -52.595   4.981  1.00  0.00    -0.269 OA
HETATM   29  N8  UNL     1     -29.595 -54.655   4.162  1.00  0.00    -0.254 N 
ATOM     30  H8  UNL     1     -29.399 -55.629   4.392  1.00  0.00     0.191 HD
BRANCH  29  31
HETATM   31  N9  UNL     1     -29.401 -54.233   2.874  1.00  0.00    -0.247 N 
ATOM     32  H9  UNL     1     -28.545 -54.448   2.363  1.00  0.00     0.207 HD
BRANCH  31  33
HETATM   33  N10 UNL     1     -30.417 -53.505   2.303  1.00  0.00    -0.331 N 
ATOM     34 2H10 UNL     1     -30.623 -52.559   2.622  1.00  0.00     0.178 HD
ATOM     35 1H10 UNL     1     -30.942 -53.960   1.557  1.00  0.00     0.178 HD
ENDBRANCH  31  33
ENDBRANCH  29  31
ENDBRANCH   1  27
TORSDOF 10
ENDMDL
MODEL 2
REMARK VINA RESULT: -7.472689264      0.977      1.437
REMARK  10 active torsions:
REMARK  status: ('A' for Active; 'I' for Inactive)
REMARK    1  A    between atoms: N1_2  and  C4_5 
REMARK    2  A    between atoms: C4_5  and  C5_6 
REMARK       I    between atoms: C5_6  and  N2_8 
REMARK    3  A    between atoms: N2_8  and  C6_10 
REMARK    4  A    between atoms: C6_10  and  C7_11 
REMARK    5  A    between atoms: C6_10  and  C11_27 
REMARK    6  A    between atoms: C7_11  and  N3_12 
REMARK    7  A    between atoms: N3_12  and  C8_14 
REMARK    8  A    between atoms: C9_17  and  N5_18 
REMARK       I    between atoms: C11_27  and  N8_29 
REMARK    9  A    between atoms: N8_29  and  N9_31 
REMARK   10  A    between atoms: N9_31  and  N10_33 
ROOT
HETATM    1  C6  UNL     1     -30.004 -54.176   6.190  1.00  0.00     0.196 C 
ENDROOT
BRANCH   1   2
HETATM    2  N2  UNL     1     -31.126 -55.062   6.183  1.00  0.00    -0.345 N 
HETATM    3  C5  UNL     1     -32.120 -55.044   7.229  1.00  0.00     0.244 C 
HETATM    4  O1  UNL     1     -31.970 -54.213   8.160  1.00  0.00    -0.272 OA
ATOM      5  H2  UNL     1     -31.227 -55.726   5.416  1.00  0.00     0.163 HD
BRANCH   3   6
HETATM    6  C4  UNL     1     -33.268 -55.939   7.238  1.00  0.00     0.338 C 
BRANCH   6   7
HETATM    7  N1  UNL     1     -33.139 -57.182   7.899  1.00  0.00    -0.070 N 
HETATM    8  C1  UNL     1     -31.916 -57.898   7.741  1.00  0.00     0.272 C 
HETATM    9  C2  UNL     1     -34.208 -58.064   7.380  1.00  0.00     0.272 C 
HETATM   10  C3  UNL     1     -33.416 -57.097   9.332  1.00  0.00     0.272 C 
ENDBRANCH   6   7
ENDBRANCH   3   6
ENDBRANCH   1   2
BRANCH   1  11
HETATM   11  C7  UNL     1     -28.769 -54.723   6.858  1.00  0.00     0.173 C 
BRANCH  11  12
HETATM   12  N3  UNL     1     -28.862 -54.809   8.268  1.00  0.00    -0.223 N 
ATOM     13  H3  UNL     1     -28.831 -53.925   8.775  1.00  0.00     0.177 HD
BRANCH  12  14
HETATM   14  C8  UNL     1     -28.981 -55.871   8.986  1.00  0.00     0.696 A 
HETATM   15  N4  UNL     1     -28.163 -56.887   8.666  1.00  0.00    -0.022 N 
HETATM   16  C9  UNL     1     -28.192 -58.049   9.345  1.00  0.00     0.694 A 
ATOM     17  H4  UNL     1     -27.506 -56.776   7.893  1.00  0.00     0.203 HD
HETATM   18  N6  UNL     1     -29.078 -58.151  10.359  1.00  0.00    -0.141 N 
HETATM   19  C10 UNL     1     -29.891 -57.152  10.681  1.00  0.00     0.352 A 
ATOM     20  H6  UNL     1     -29.124 -59.020  10.893  1.00  0.00     0.189 HD
HETATM   21  O2  UNL     1     -30.727 -57.229  11.626  1.00  0.00    -0.246 OA
HETATM   22  N7  UNL     1     -29.869 -55.970   9.998  1.00  0.00    -0.140 N 
ATOM     23  H7  UNL     1     -30.492 -55.199  10.241  1.00  0.00     0.189 HD
BRANCH  16  24
HETATM   24  N5  UNL     1     -27.424 -59.034   9.060  1.00  0.00    -0.234 N 
ATOM     25  H52 UNL     1     -26.477 -59.071   9.436  1.00  0.00     0.174 HD
ATOM     26  H51 UNL     1     -27.718 -59.804   8.460  1.00  0.00     0.174 HD
ENDBRANCH  16  24
ENDBRANCH  12  14
ENDBRANCH  11  12
ENDBRANCH   1  11
BRANCH   1  27
HETATM   27  C11 UNL     1     -29.592 -53.847   4.762  1.00  0.00     0.261 C 
HETATM   28  O3  UNL     1     -29.525 -52.631   4.474  1.00  0.00    -0.269 OA
HETATM   29  N8  UNL     1     -29.302 -54.861   3.833  1.00  0.00    -0.254 N 
ATOM     30  H8  UNL     1     -29.375 -55.834   4.132  1.00  0.00     0.191 HD
BRANCH  29  31
HETATM   31  N9  UNL     1     -28.926 -54.598   2.542  1.00  0.00    -0.247 N 
ATOM     32  H9  UNL     1     -29.575 -54.704   1.763  1.00  0.00     0.207 HD
BRANCH  31  33
HETATM   33  N10 UNL     1     -27.631 -54.182   2.350  1.00  0.00    -0.331 N 
ATOM     34 2H10 UNL     1     -26.862 -54.624   2.854  1.00  0.00     0.178 HD
ATOM     35 1H10 UNL     1     -27.488 -53.420   1.687  1.00  0.00     0.178 HD
ENDBRANCH  31  33
ENDBRANCH  29  31
ENDBRANCH   1  27
TORSDOF 10
ENDMDL
MODEL 3
REMARK VINA RESULT: -7.408658312      1.887      2.893
REMARK  10 active torsions:
REMARK  status: ('A' for Active; 'I' for Inactive)
REMARK    1  A    between atoms: N1_2  and  C4_5 
REMARK    2  A    between atoms: C4_5  and  C5_6 
REMARK       I    between atoms: C5_6  and  N2_8 
REMARK    3  A    between atoms: N2_8  and  C6_10 
REMARK    4  A    between atoms: C6_10  and  C7_11 
REMARK    5  A    between atoms: C6_10  and  C11_27 
REMARK    6  A    between atoms: C7_11  and  N3_12 
REMARK    7  A    between atoms: N3_12  and  C8_14 
REMARK    8  A    between atoms: C9_17  and  N5_18 
REMARK       I    between atoms: C11_27  and  N8_29 
REMARK    9  A    between atoms: N8_29  and  N9_31 
REMARK   10  A    between atoms: N9_31  and  N10_33 
ROOT
HETATM    1  C6  UNL     1     -32.765 -54.955   7.738  1.00  0.00     0.196 C 
ENDROOT
BRANCH   1   2
HETATM    2  N2  UNL     1     -33.412 -56.005   7.015  1.00  0.00    -0.345 N 
HETATM    3  C5  UNL     1     -34.843 -56.187   7.050  1.00  0.00     0.244 C 
HETATM    4  O1  UNL     1     -35.515 -55.383   7.743  1.00  0.00    -0.272 OA
ATOM      5  H2  UNL     1     -32.846 -56.643   6.457  1.00  0.00     0.163 HD
BRANCH   3   6
HETATM    6  C4  UNL     1     -35.518 -57.250   6.320  1.00  0.00     0.338 C 
BRANCH   6   7
HETATM    7  N1  UNL     1     -35.248 -58.588   6.689  1.00  0.00    -0.070 N 
HETATM    8  C1  UNL     1     -33.985 -59.139   6.324  1.00  0.00     0.272 C 
HETATM    9  C2  UNL     1     -36.274 -59.434   6.040  1.00  0.00     0.272 C 
HETATM   10  C3  UNL     1     -35.439 -58.834   8.117  1.00  0.00     0.272 C 
ENDBRANCH   6   7
ENDBRANCH   3   6
ENDBRANCH   1   2
BRANCH   1  11
HETATM   11  C7  UNL     1     -32.117 -55.383   9.030  1.00  0.00     0.173 C 
BRANCH  11  12
HETATM   12  N3  UNL     1     -30.703 -55.451   8.975  1.00  0.00    -0.223 N 
ATOM     13  H3  UNL     1     -30.230 -54.643   8.572  1.00  0.00     0.177 HD
BRANCH  12  14
HETATM   14  C8  UNL     1     -29.945 -56.412   9.373  1.00  0.00     0.696 A 
HETATM   15  N4  UNL     1     -30.355 -57.061  10.475  1.00  0.00    -0.022 N 
HETATM   16  C9  UNL     1     -29.648 -58.085  10.988  1.00  0.00     0.694 A 
ATOM     17  H4  UNL     1     -31.219 -56.771  10.934  1.00  0.00     0.203 HD
HETATM   18  N6  UNL     1     -28.511 -58.433  10.348  1.00  0.00    -0.141 N 
HETATM   19  C10 UNL     1     -28.099 -57.797   9.257  1.00  0.00     0.352 A 
ATOM     20  H6  UNL     1     -27.953 -59.206  10.712  1.00  0.00     0.189 HD
HETATM   21  O2  UNL     1     -27.037 -58.108   8.646  1.00  0.00    -0.246 OA
HETATM   22  N7  UNL     1     -28.809 -56.757   8.731  1.00  0.00    -0.140 N 
ATOM     23  H7  UNL     1     -28.496 -56.264   7.894  1.00  0.00     0.189 HD
BRANCH  16  24
HETATM   24  N5  UNL     1     -30.015 -58.719  12.038  1.00  0.00    -0.234 N 
ATOM     25  H52 UNL     1     -30.209 -59.719  11.992  1.00  0.00     0.174 HD
ATOM     26  H51 UNL     1     -30.126 -58.264  12.944  1.00  0.00     0.174 HD
ENDBRANCH  16  24
ENDBRANCH  12  14
ENDBRANCH  11  12
ENDBRANCH   1  11
BRANCH   1  27
HETATM   27  C11 UNL     1     -31.649 -54.353   6.895  1.00  0.00     0.261 C 
HETATM   28  O3  UNL     1     -31.350 -53.165   7.147  1.00  0.00    -0.269 OA
HETATM   29  N8  UNL     1     -31.001 -55.102   5.899  1.00  0.00    -0.254 N 
ATOM     30  H8  UNL     1     -31.293 -56.067   5.744  1.00  0.00     0.191 HD
BRANCH  29  31
HETATM   31  N9  UNL     1     -29.992 -54.590   5.126  1.00  0.00    -0.247 N 
ATOM     32  H9  UNL     1     -29.109 -55.086   5.000  1.00  0.00     0.207 HD
BRANCH  31  33
HETATM   33  N10 UNL     1     -30.228 -53.376   4.530  1.00  0.00    -0.331 N 
ATOM     34 2H10 UNL     1     -30.573 -53.323   3.571  1.00  0.00     0.178 HD
ATOM     35 1H10 UNL     1     -30.041 -52.545   5.092  1.00  0.00     0.178 HD
ENDBRANCH  31  33
ENDBRANCH  29  31
ENDBRANCH   1  27
TORSDOF 10
ENDMDL
MODEL 4
REMARK VINA RESULT: -7.380914122      1.994      2.835
REMARK  10 active torsions:
REMARK  status: ('A' for Active; 'I' for Inactive)
REMARK    1  A    between atoms: N1_2  and  C4_5 
REMARK    2  A    between atoms: C4_5  and  C5_6 
REMARK       I    between atoms: C5_6  and  N2_8 
REMARK    3  A    between atoms: N2_8  and  C6_10 
REMARK    4  A    between atoms: C6_10  and  C7_11 
REMARK    5  A    between atoms: C6_10  and  C11_27 
REMARK    6  A    between atoms: C7_11  and  N3_12 
REMARK    7  A    between atoms: N3_12  and  C8_14 
REMARK    8  A    between atoms: C9_17  and  N5_18 
REMARK       I    between atoms: C11_27  and  N8_29 
REMARK    9  A    between atoms: N8_29  and  N9_31 
REMARK   10  A    between atoms: N9_31  and  N10_33 
ROOT
HETATM    1  C6  UNL     1     -31.593 -54.956   7.962  1.00  0.00     0.196 C 
ENDROOT
BRANCH   1   2
HETATM    2  N2  UNL     1     -32.747 -55.791   7.845  1.00  0.00    -0.345 N 
HETATM    3  C5  UNL     1     -33.540 -56.163   8.991  1.00  0.00     0.244 C 
HETATM    4  O1  UNL     1     -33.184 -55.723  10.113  1.00  0.00    -0.272 OA
ATOM      5  H2  UNL     1     -33.018 -56.135   6.923  1.00  0.00     0.163 HD
BRANCH   3   6
HETATM    6  C4  UNL     1     -34.718 -57.014   8.890  1.00  0.00     0.338 C 
BRANCH   6   7
HETATM    7  N1  UNL     1     -34.529 -58.382   8.591  1.00  0.00    -0.070 N 
HETATM    8  C1  UNL     1     -34.436 -58.759   7.219  1.00  0.00     0.272 C 
HETATM    9  C2  UNL     1     -35.689 -59.113   9.146  1.00  0.00     0.272 C 
HETATM   10  C3  UNL     1     -33.380 -58.963   9.285  1.00  0.00     0.272 C 
ENDBRANCH   6   7
ENDBRANCH   3   6
ENDBRANCH   1   2
BRANCH   1  11
HETATM   11  C7  UNL     1     -30.294 -55.695   8.158  1.00  0.00     0.173 C 
BRANCH  11  12
HETATM   12  N3  UNL     1     -29.904 -55.832   9.512  1.00  0.00    -0.223 N 
ATOM     13  H3  UNL     1     -29.468 -55.015   9.939  1.00  0.00     0.177 HD
BRANCH  12  14
HETATM   14  C8  UNL     1     -30.034 -56.866  10.268  1.00  0.00     0.696 A 
HETATM   15  N4  UNL     1     -30.450 -56.624  11.522  1.00  0.00    -0.022 N 
HETATM   16  C9  UNL     1     -30.626 -57.624  12.406  1.00  0.00     0.694 A 
ATOM     17  H4  UNL     1     -30.636 -55.664  11.810  1.00  0.00     0.203 HD
HETATM   18  N6  UNL     1     -30.366 -58.879  11.980  1.00  0.00    -0.141 N 
HETATM   19  C10 UNL     1     -29.955 -59.127  10.742  1.00  0.00     0.352 A 
ATOM     20  H6  UNL     1     -30.490 -59.659  12.626  1.00  0.00     0.189 HD
HETATM   21  O2  UNL     1     -29.706 -60.294  10.325  1.00  0.00    -0.246 OA
HETATM   22  N7  UNL     1     -29.773 -58.119   9.838  1.00  0.00    -0.140 N 
ATOM     23  H7  UNL     1     -29.455 -58.304   8.887  1.00  0.00     0.189 HD
BRANCH  16  24
HETATM   24  N5  UNL     1     -31.020 -57.421  13.607  1.00  0.00    -0.234 N 
ATOM     25  H52 UNL     1     -31.762 -56.748  13.797  1.00  0.00     0.174 HD
ATOM     26  H51 UNL     1     -30.619 -57.911  14.407  1.00  0.00     0.174 HD
ENDBRANCH  16  24
ENDBRANCH  12  14
ENDBRANCH  11  12
ENDBRANCH   1  11
BRANCH   1  27
HETATM   27  C11 UNL     1     -31.415 -54.134   6.693  1.00  0.00     0.261 C 
HETATM   28  O3  UNL     1     -31.438 -52.891   6.835  1.00  0.00    -0.269 OA
HETATM   29  N8  UNL     1     -31.232 -54.750   5.443  1.00  0.00    -0.254 N 
ATOM     30  H8  UNL     1     -31.223 -55.769   5.396  1.00  0.00     0.191 HD
BRANCH  29  31
HETATM   31  N9  UNL     1     -31.066 -54.038   4.284  1.00  0.00    -0.247 N 
ATOM     32  H9  UNL     1     -31.719 -54.122   3.505  1.00  0.00     0.207 HD
BRANCH  31  33
HETATM   33  N10 UNL     1     -29.975 -53.205   4.223  1.00  0.00    -0.331 N 
ATOM     34 2H10 UNL     1     -29.046 -53.577   4.030  1.00  0.00     0.178 HD
ATOM     35 1H10 UNL     1     -30.148 -52.212   4.380  1.00  0.00     0.178 HD
ENDBRANCH  31  33
ENDBRANCH  29  31
ENDBRANCH   1  27
TORSDOF 10
ENDMDL
MODEL 5
REMARK VINA RESULT: -7.349846463      1.856      2.528
REMARK  10 active torsions:
REMARK  status: ('A' for Active; 'I' for Inactive)
REMARK    1  A    between atoms: N1_2  and  C4_5 
REMARK    2  A    between atoms: C4_5  and  C5_6 
REMARK       I    between atoms: C5_6  and  N2_8 
REMARK    3  A    between atoms: N2_8  and  C6_10 
REMARK    4  A    between atoms: C6_10  and  C7_11 
REMARK    5  A    between atoms: C6_10  and  C11_27 
REMARK    6  A    between atoms: C7_11  and  N3_12 
REMARK    7  A    between atoms: N3_12  and  C8_14 
REMARK    8  A    between atoms: C9_17  and  N5_18 
REMARK       I    between atoms: C11_27  and  N8_29 
REMARK    9  A    between atoms: N8_29  and  N9_31 
REMARK   10  A    between atoms: N9_31  and  N10_33 
ROOT
HETATM    1  C6  UNL     1     -31.908 -54.600   7.337  1.00  0.00     0.196 C 
ENDROOT
BRANCH   1   2
HETATM    2  N2  UNL     1     -32.976 -55.545   7.432  1.00  0.00    -0.345 N 
HETATM    3  C5  UNL     1     -33.664 -55.797   8.675  1.00  0.00     0.244 C 
HETATM    4  O1  UNL     1     -33.294 -55.151   9.687  1.00  0.00    -0.272 OA
ATOM      5  H2  UNL     1     -33.261 -56.056   6.597  1.00  0.00     0.163 HD
BRANCH   3   6
HETATM    6  C4  UNL     1     -34.753 -56.757   8.790  1.00  0.00     0.338 C 
BRANCH   6   7
HETATM    7  N1  UNL     1     -34.463 -58.124   8.580  1.00  0.00    -0.070 N 
HETATM    8  C1  UNL     1     -34.303 -58.574   7.236  1.00  0.00     0.272 C 
HETATM    9  C2  UNL     1     -35.587 -58.900   9.148  1.00  0.00     0.272 C 
HETATM   10  C3  UNL     1     -33.299 -58.582   9.337  1.00  0.00     0.272 C 
ENDBRANCH   6   7
ENDBRANCH   3   6
ENDBRANCH   1   2
BRANCH   1  11
HETATM   11  C7  UNL     1     -30.531 -55.177   7.546  1.00  0.00     0.173 C 
BRANCH  11  12
HETATM   12  N3  UNL     1     -30.226 -55.474   8.897  1.00  0.00    -0.223 N 
ATOM     13  H3  UNL     1     -30.574 -54.813   9.591  1.00  0.00     0.177 HD
BRANCH  12  14
HETATM   14  C8  UNL     1     -29.561 -56.478   9.351  1.00  0.00     0.696 A 
HETATM   15  N4  UNL     1     -30.119 -57.127  10.386  1.00  0.00    -0.022 N 
HETATM   16  C9  UNL     1     -29.521 -58.195  10.947  1.00  0.00     0.694 A 
ATOM     17  H4  UNL     1     -31.014 -56.805  10.755  1.00  0.00     0.203 HD
HETATM   18  N6  UNL     1     -28.337 -58.585  10.427  1.00  0.00    -0.141 N 
HETATM   19  C10 UNL     1     -27.778 -57.948   9.404  1.00  0.00     0.352 A 
ATOM     20  H6  UNL     1     -27.858 -59.391  10.830  1.00  0.00     0.189 HD
HETATM   21  O2  UNL     1     -26.671 -58.298   8.904  1.00  0.00    -0.246 OA
HETATM   22  N7  UNL     1     -28.378 -56.864   8.829  1.00  0.00    -0.140 N 
ATOM     23  H7  UNL     1     -27.952 -56.371   8.044  1.00  0.00     0.189 HD
BRANCH  16  24
HETATM   24  N5  UNL     1     -30.030 -58.831  11.935  1.00  0.00    -0.234 N 
ATOM     25  H52 UNL     1     -30.795 -58.420  12.471  1.00  0.00     0.174 HD
ATOM     26  H51 UNL     1     -29.702 -59.753  12.223  1.00  0.00     0.174 HD
ENDBRANCH  16  24
ENDBRANCH  12  14
ENDBRANCH  11  12
ENDBRANCH   1  11
BRANCH   1  27
HETATM   27  C11 UNL     1     -31.889 -53.974   5.949  1.00  0.00     0.261 C 
HETATM   28  O3  UNL     1     -31.686 -52.741   5.905  1.00  0.00    -0.269 OA
HETATM   29  N8  UNL     1     -32.084 -54.751   4.794  1.00  0.00    -0.254 N 
ATOM     30  H8  UNL     1     -32.244 -55.753   4.901  1.00  0.00     0.191 HD
BRANCH  29  31
HETATM   31  N9  UNL     1     -32.069 -54.219   3.532  1.00  0.00    -0.247 N 
ATOM     32  H9  UNL     1     -32.924 -54.112   2.986  1.00  0.00     0.207 HD
BRANCH  31  33
HETATM   33  N10 UNL     1     -30.846 -53.836   3.039  1.00  0.00    -0.331 N 
ATOM     34 2H10 UNL     1     -30.436 -54.309   2.235  1.00  0.00     0.178 HD
ATOM     35 1H10 UNL     1     -30.381 -53.063   3.518  1.00  0.00     0.178 HD
ENDBRANCH  31  33
ENDBRANCH  29  31
ENDBRANCH   1  27
TORSDOF 10
ENDMDL
