MODEL 1
REMARK VINA RESULT: -7.183945394      0.000      0.000
REMARK  9 active torsions:
REMARK  status: ('A' for Active; 'I' for Inactive)
REMARK    1  A    between atoms: C2_5  and  N2_6 
REMARK    2  A    between atoms: N2_6  and  C3_8 
REMARK    3  A    between atoms: C3_8  and  C4_9 
REMARK    4  A    between atoms: C4_9  and  C5_10 
REMARK    5  A    between atoms: C5_10  and  C6_11 
REMARK    6  A    between atoms: C6_11  and  C7_12 
REMARK    7  A    between atoms: C7_12  and  N3_13 
REMARK    8  A    between atoms: N3_13  and  C8_15 
REMARK    9  A    between atoms: C14_25  and  O2_26 
ROOT
HETATM    1  C3  UNL     1     -31.007 -55.669   6.641  1.00  0.00     0.138 C 
ENDROOT
BRANCH   1   2
HETATM    2  N2  UNL     1     -29.814 -55.156   7.300  1.00  0.00    -0.226 N 
ATOM      3  H2  UNL     1     -29.460 -54.223   7.085  1.00  0.00     0.177 HD
BRANCH   2   4
HETATM    4  C2  UNL     1     -29.213 -55.906   8.161  1.00  0.00     0.680 A 
HETATM    5  N1  UNL     1     -28.662 -57.076   7.814  1.00  0.00    -0.154 N 
HETATM    6  C1  UNL     1     -28.040 -57.844   8.721  1.00  0.00     0.294 A 
ATOM      7  H1  UNL     1     -28.716 -57.388   6.844  1.00  0.00     0.187 HD
HETATM    8  O1  UNL     1     -27.516 -58.953   8.399  1.00  0.00    -0.265 OA
HETATM    9  C14 UNL     1     -27.950 -57.448  10.041  1.00  0.00     0.150 A 
HETATM   10  C13 UNL     1     -28.523 -56.240  10.377  1.00  0.00     0.148 A 
HETATM   11  N5  UNL     1     -29.137 -55.498   9.446  1.00  0.00    -0.199 N 
ATOM     12  H5  UNL     1     -29.555 -54.607   9.713  1.00  0.00     0.183 HD
BRANCH   9  13
HETATM   13  O2  UNL     1     -27.316 -58.224  10.986  1.00  0.00    -0.355 OA
ATOM     14  H2  UNL     1     -26.783 -57.838  11.672  1.00  0.00     0.218 HD
ENDBRANCH   9  13
ENDBRANCH   2   4
ENDBRANCH   1   2
BRANCH   1  15
HETATM   15  C4  UNL     1     -32.099 -54.597   6.704  1.00  0.00     0.020 C 
BRANCH  15  16
HETATM   16  C5  UNL     1     -33.425 -55.225   6.974  1.00  0.00     0.003 C 
BRANCH  16  17
HETATM   17  C6  UNL     1     -33.859 -55.309   8.372  1.00  0.00     0.020 C 
BRANCH  17  18
HETATM   18  C7  UNL     1     -33.752 -56.619   9.059  1.00  0.00     0.121 C 
BRANCH  18  19
HETATM   19  N3  UNL     1     -32.541 -56.640   9.852  1.00  0.00    -0.376 N 
ATOM     20  H3  UNL     1     -32.192 -55.781  10.277  1.00  0.00     0.161 HD
BRANCH  19  21
HETATM   21  C8  UNL     1     -31.908 -57.742  10.018  1.00  0.00     0.100 A 
HETATM   22  C9  UNL     1     -31.774 -58.609   8.930  1.00  0.00     0.048 A 
HETATM   23  C10 UNL     1     -31.111 -59.806   9.030  1.00  0.00     0.005 A 
HETATM   24  C11 UNL     1     -30.550 -60.190  10.232  1.00  0.00     0.017 A 
HETATM   25  C12 UNL     1     -30.689 -59.332  11.287  1.00  0.00     0.089 A 
HETATM   26  N4  UNL     1     -31.347 -58.161  11.156  1.00  0.00    -0.353 N 
ATOM     27  H4  UNL     1     -31.421 -57.559  11.976  1.00  0.00     0.166 HD
ENDBRANCH  19  21
ENDBRANCH  18  19
ENDBRANCH  17  18
ENDBRANCH  16  17
ENDBRANCH  15  16
ENDBRANCH   1  15
TORSDOF 9
ENDMDL
MODEL 2
REMARK VINA RESULT: -6.948063332      0.975      1.097
REMARK  9 active torsions:
REMARK  status: ('A' for Active; 'I' for Inactive)
REMARK    1  A    between atoms: C2_5  and  N2_6 
REMARK    2  A    between atoms: N2_6  and  C3_8 
REMARK    3  A    between atoms: C3_8  and  C4_9 
REMARK    4  A    between atoms: C4_9  and  C5_10 
REMARK    5  A    between atoms: C5_10  and  C6_11 
REMARK    6  A    between atoms: C6_11  and  C7_12 
REMARK    7  A    between atoms: C7_12  and  N3_13 
REMARK    8  A    between atoms: N3_13  and  C8_15 
REMARK    9  A    between atoms: C14_25  and  O2_26 
ROOT
HETATM    1  C3  UNL     1     -31.360 -56.036   6.483  1.00  0.00     0.138 C 
ENDROOT
BRANCH   1   2
HETATM    2  N2  UNL     1     -30.585 -55.361   7.516  1.00  0.00    -0.226 N 
ATOM      3  H2  UNL     1     -30.664 -54.352   7.649  1.00  0.00     0.177 HD
BRANCH   2   4
HETATM    4  C2  UNL     1     -29.798 -56.064   8.256  1.00  0.00     0.680 A 
HETATM    5  N1  UNL     1     -29.426 -57.303   7.911  1.00  0.00    -0.154 N 
HETATM    6  C1  UNL     1     -28.606 -58.022   8.692  1.00  0.00     0.294 A 
ATOM      7  H1  UNL     1     -29.771 -57.707   7.040  1.00  0.00     0.187 HD
HETATM    8  O1  UNL     1     -28.249 -59.196   8.372  1.00  0.00    -0.265 OA
HETATM    9  C14 UNL     1     -28.121 -57.502   9.877  1.00  0.00     0.150 A 
HETATM   10  C13 UNL     1     -28.517 -56.225  10.213  1.00  0.00     0.148 A 
HETATM   11  N5  UNL     1     -29.337 -55.536   9.410  1.00  0.00    -0.199 N 
ATOM     12  H5  UNL     1     -29.619 -54.592   9.675  1.00  0.00     0.183 HD
BRANCH   9  13
HETATM   13  O2  UNL     1     -27.279 -58.226  10.692  1.00  0.00    -0.355 OA
ATOM     14  H2  UNL     1     -27.537 -59.065  11.056  1.00  0.00     0.218 HD
ENDBRANCH   9  13
ENDBRANCH   2   4
ENDBRANCH   1   2
BRANCH   1  15
HETATM   15  C4  UNL     1     -32.382 -55.048   5.914  1.00  0.00     0.020 C 
BRANCH  15  16
HETATM   16  C5  UNL     1     -33.745 -55.654   5.918  1.00  0.00     0.003 C 
BRANCH  16  17
HETATM   17  C6  UNL     1     -34.606 -55.367   7.069  1.00  0.00     0.020 C 
BRANCH  17  18
HETATM   18  C7  UNL     1     -34.713 -56.393   8.135  1.00  0.00     0.121 C 
BRANCH  18  19
HETATM   19  N3  UNL     1     -33.808 -56.053   9.212  1.00  0.00    -0.376 N 
ATOM     20  H3  UNL     1     -33.777 -55.100   9.573  1.00  0.00     0.161 HD
BRANCH  19  21
HETATM   21  C8  UNL     1     -33.047 -56.954   9.712  1.00  0.00     0.100 A 
HETATM   22  C9  UNL     1     -32.931 -58.179   9.047  1.00  0.00     0.048 A 
HETATM   23  C10 UNL     1     -32.136 -59.192   9.521  1.00  0.00     0.005 A 
HETATM   24  C11 UNL     1     -31.418 -59.023  10.688  1.00  0.00     0.017 A 
HETATM   25  C12 UNL     1     -31.542 -57.821  11.327  1.00  0.00     0.089 A 
HETATM   26  N4  UNL     1     -32.332 -56.843  10.836  1.00  0.00    -0.353 N 
ATOM     27  H4  UNL     1     -32.387 -55.966  11.353  1.00  0.00     0.166 HD
ENDBRANCH  19  21
ENDBRANCH  18  19
ENDBRANCH  17  18
ENDBRANCH  16  17
ENDBRANCH  15  16
ENDBRANCH   1  15
TORSDOF 9
ENDMDL
MODEL 3
REMARK VINA RESULT: -6.743918413      2.733      4.791
REMARK  9 active torsions:
REMARK  status: ('A' for Active; 'I' for Inactive)
REMARK    1  A    between atoms: C2_5  and  N2_6 
REMARK    2  A    between atoms: N2_6  and  C3_8 
REMARK    3  A    between atoms: C3_8  and  C4_9 
REMARK    4  A    between atoms: C4_9  and  C5_10 
REMARK    5  A    between atoms: C5_10  and  C6_11 
REMARK    6  A    between atoms: C6_11  and  C7_12 
REMARK    7  A    between atoms: C7_12  and  N3_13 
REMARK    8  A    between atoms: N3_13  and  C8_15 
REMARK    9  A    between atoms: C14_25  and  O2_26 
ROOT
HETATM    1  C3  UNL     1     -28.773 -56.567   9.464  1.00  0.00     0.138 C 
ENDROOT
BRANCH   1   2
HETATM    2  N2  UNL     1     -28.753 -56.408   8.016  1.00  0.00    -0.226 N 
ATOM      3  H2  UNL     1     -28.096 -56.938   7.442  1.00  0.00     0.177 HD
BRANCH   2   4
HETATM    4  C2  UNL     1     -29.582 -55.582   7.475  1.00  0.00     0.680 A 
HETATM    5  N1  UNL     1     -29.187 -54.674   6.572  1.00  0.00    -0.154 N 
HETATM    6  C1  UNL     1     -30.063 -53.823   6.018  1.00  0.00     0.294 A 
ATOM      7  H1  UNL     1     -28.204 -54.631   6.302  1.00  0.00     0.187 HD
HETATM    8  O1  UNL     1     -29.695 -52.961   5.163  1.00  0.00    -0.265 OA
HETATM    9  C14 UNL     1     -31.400 -53.858   6.364  1.00  0.00     0.150 A 
HETATM   10  C13 UNL     1     -31.786 -54.800   7.294  1.00  0.00     0.148 A 
HETATM   11  N5  UNL     1     -30.885 -55.635   7.827  1.00  0.00    -0.199 N 
ATOM     12  H5  UNL     1     -31.189 -56.325   8.514  1.00  0.00     0.183 HD
BRANCH   9  13
HETATM   13  O2  UNL     1     -32.313 -52.991   5.805  1.00  0.00    -0.355 OA
ATOM     14  H2  UNL     1     -33.185 -53.277   5.559  1.00  0.00     0.218 HD
ENDBRANCH   9  13
ENDBRANCH   2   4
ENDBRANCH   1   2
BRANCH   1  15
HETATM   15  C4  UNL     1     -27.982 -57.828   9.826  1.00  0.00     0.020 C 
BRANCH  15  16
HETATM   16  C5  UNL     1     -27.971 -58.779   8.678  1.00  0.00     0.003 C 
BRANCH  16  17
HETATM   17  C6  UNL     1     -28.992 -59.832   8.665  1.00  0.00     0.020 C 
BRANCH  17  18
HETATM   18  C7  UNL     1     -29.657 -60.174   9.946  1.00  0.00     0.121 C 
BRANCH  18  19
HETATM   19  N3  UNL     1     -31.083 -60.295   9.723  1.00  0.00    -0.376 N 
ATOM     20  H3  UNL     1     -31.497 -61.210   9.546  1.00  0.00     0.161 HD
BRANCH  19  21
HETATM   21  C8  UNL     1     -31.822 -59.249   9.748  1.00  0.00     0.100 A 
HETATM   22  C9  UNL     1     -31.612 -58.303  10.756  1.00  0.00     0.048 A 
HETATM   23  C10 UNL     1     -32.364 -57.159  10.849  1.00  0.00     0.005 A 
HETATM   24  C11 UNL     1     -33.365 -56.910   9.931  1.00  0.00     0.017 A 
HETATM   25  C12 UNL     1     -33.559 -57.844   8.952  1.00  0.00     0.089 A 
HETATM   26  N4  UNL     1     -32.802 -58.959   8.887  1.00  0.00    -0.353 N 
ATOM     27  H4  UNL     1     -32.990 -59.622   8.135  1.00  0.00     0.166 HD
ENDBRANCH  19  21
ENDBRANCH  18  19
ENDBRANCH  17  18
ENDBRANCH  16  17
ENDBRANCH  15  16
ENDBRANCH   1  15
TORSDOF 9
ENDMDL
MODEL 4
REMARK VINA RESULT: -6.657656657      2.708      4.821
REMARK  9 active torsions:
REMARK  status: ('A' for Active; 'I' for Inactive)
REMARK    1  A    between atoms: C2_5  and  N2_6 
REMARK    2  A    between atoms: N2_6  and  C3_8 
REMARK    3  A    between atoms: C3_8  and  C4_9 
REMARK    4  A    between atoms: C4_9  and  C5_10 
REMARK    5  A    between atoms: C5_10  and  C6_11 
REMARK    6  A    between atoms: C6_11  and  C7_12 
REMARK    7  A    between atoms: C7_12  and  N3_13 
REMARK    8  A    between atoms: N3_13  and  C8_15 
REMARK    9  A    between atoms: C14_25  and  O2_26 
ROOT
HETATM    1  C3  UNL     1     -28.786 -56.535   9.442  1.00  0.00     0.138 C 
ENDROOT
BRANCH   1   2
HETATM    2  N2  UNL     1     -28.819 -56.396   7.992  1.00  0.00    -0.226 N 
ATOM      3  H2  UNL     1     -28.189 -56.939   7.402  1.00  0.00     0.177 HD
BRANCH   2   4
HETATM    4  C2  UNL     1     -29.661 -55.570   7.471  1.00  0.00     0.680 A 
HETATM    5  N1  UNL     1     -30.949 -55.552   7.835  1.00  0.00    -0.154 N 
HETATM    6  C1  UNL     1     -31.812 -54.686   7.284  1.00  0.00     0.294 A 
ATOM      7  H1  UNL     1     -31.279 -56.208   8.544  1.00  0.00     0.187 HD
HETATM    8  O1  UNL     1     -33.034 -54.664   7.624  1.00  0.00    -0.265 OA
HETATM    9  C14 UNL     1     -31.395 -53.786   6.322  1.00  0.00     0.150 A 
HETATM   10  C13 UNL     1     -30.065 -53.821   5.962  1.00  0.00     0.148 A 
HETATM   11  N5  UNL     1     -29.231 -54.699   6.533  1.00  0.00    -0.199 N 
ATOM     12  H5  UNL     1     -28.250 -54.709   6.253  1.00  0.00     0.183 HD
BRANCH   9  13
HETATM   13  O2  UNL     1     -32.268 -52.890   5.745  1.00  0.00    -0.355 OA
ATOM     14  H2  UNL     1     -32.482 -52.928   4.820  1.00  0.00     0.218 HD
ENDBRANCH   9  13
ENDBRANCH   2   4
ENDBRANCH   1   2
BRANCH   1  15
HETATM   15  C4  UNL     1     -27.991 -57.797   9.792  1.00  0.00     0.020 C 
BRANCH  15  16
HETATM   16  C5  UNL     1     -27.944 -58.720   8.622  1.00  0.00     0.003 C 
BRANCH  16  17
HETATM   17  C6  UNL     1     -28.898 -59.833   8.603  1.00  0.00     0.020 C 
BRANCH  17  18
HETATM   18  C7  UNL     1     -29.559 -60.207   9.877  1.00  0.00     0.121 C 
BRANCH  18  19
HETATM   19  N3  UNL     1     -30.990 -60.272   9.667  1.00  0.00    -0.376 N 
ATOM     20  H3  UNL     1     -31.427 -61.153   9.397  1.00  0.00     0.161 HD
BRANCH  19  21
HETATM   21  C8  UNL     1     -31.704 -59.220   9.821  1.00  0.00     0.100 A 
HETATM   22  C9  UNL     1     -31.435 -58.379  10.906  1.00  0.00     0.048 A 
HETATM   23  C10 UNL     1     -32.157 -57.236  11.137  1.00  0.00     0.005 A 
HETATM   24  C11 UNL     1     -33.187 -56.882  10.288  1.00  0.00     0.017 A 
HETATM   25  C12 UNL     1     -33.439 -57.713   9.232  1.00  0.00     0.089 A 
HETATM   26  N4  UNL     1     -32.710 -58.831   9.031  1.00  0.00    -0.353 N 
ATOM     27  H4  UNL     1     -32.940 -59.415   8.228  1.00  0.00     0.166 HD
ENDBRANCH  19  21
ENDBRANCH  18  19
ENDBRANCH  17  18
ENDBRANCH  16  17
ENDBRANCH  15  16
ENDBRANCH   1  15
TORSDOF 9
ENDMDL
MODEL 5
REMARK VINA RESULT: -6.550743907      2.833      4.864
REMARK  9 active torsions:
REMARK  status: ('A' for Active; 'I' for Inactive)
REMARK    1  A    between atoms: C2_5  and  N2_6 
REMARK    2  A    between atoms: N2_6  and  C3_8 
REMARK    3  A    between atoms: C3_8  and  C4_9 
REMARK    4  A    between atoms: C4_9  and  C5_10 
REMARK    5  A    between atoms: C5_10  and  C6_11 
REMARK    6  A    between atoms: C6_11  and  C7_12 
REMARK    7  A    between atoms: C7_12  and  N3_13 
REMARK    8  A    between atoms: N3_13  and  C8_15 
REMARK    9  A    between atoms: C14_25  and  O2_26 
ROOT
HETATM    1  C3  UNL     1     -28.964 -56.881   9.016  1.00  0.00     0.138 C 
ENDROOT
BRANCH   1   2
HETATM    2  N2  UNL     1     -29.083 -56.086   7.801  1.00  0.00    -0.226 N 
ATOM      3  H2  UNL     1     -28.253 -55.817   7.272  1.00  0.00     0.177 HD
BRANCH   2   4
HETATM    4  C2  UNL     1     -30.258 -55.728   7.410  1.00  0.00     0.680 A 
HETATM    5  N1  UNL     1     -31.218 -55.389   8.279  1.00  0.00    -0.154 N 
HETATM    6  C1  UNL     1     -32.436 -55.019   7.856  1.00  0.00     0.294 A 
ATOM      7  H1  UNL     1     -31.020 -55.412   9.280  1.00  0.00     0.187 HD
HETATM    8  O1  UNL     1     -33.350 -54.696   8.674  1.00  0.00    -0.265 OA
HETATM    9  C14 UNL     1     -32.734 -54.977   6.508  1.00  0.00     0.150 A 
HETATM   10  C13 UNL     1     -31.732 -55.330   5.630  1.00  0.00     0.148 A 
HETATM   11  N5  UNL     1     -30.527 -55.695   6.087  1.00  0.00    -0.199 N 
ATOM     12  H5  UNL     1     -29.798 -55.952   5.422  1.00  0.00     0.183 HD
BRANCH   9  13
HETATM   13  O2  UNL     1     -33.979 -54.600   6.055  1.00  0.00    -0.355 OA
ATOM     14  H2  UNL     1     -34.104 -54.232   5.188  1.00  0.00     0.218 HD
ENDBRANCH   9  13
ENDBRANCH   2   4
ENDBRANCH   1   2
BRANCH   1  15
HETATM   15  C4  UNL     1     -28.269 -58.201   8.670  1.00  0.00     0.020 C 
BRANCH  15  16
HETATM   16  C5  UNL     1     -29.231 -59.335   8.779  1.00  0.00     0.003 C 
BRANCH  16  17
HETATM   17  C6  UNL     1     -29.956 -59.485  10.045  1.00  0.00     0.020 C 
BRANCH  17  18
HETATM   18  C7  UNL     1     -31.416 -59.740   9.987  1.00  0.00     0.121 C 
BRANCH  18  19
HETATM   19  N3  UNL     1     -32.114 -58.475   9.894  1.00  0.00    -0.376 N 
ATOM     20  H3  UNL     1     -31.879 -57.713  10.529  1.00  0.00     0.161 HD
BRANCH  19  21
HETATM   21  C8  UNL     1     -33.028 -58.316   9.010  1.00  0.00     0.100 A 
HETATM   22  C9  UNL     1     -32.772 -58.726   7.698  1.00  0.00     0.048 A 
HETATM   23  C10 UNL     1     -33.701 -58.588   6.698  1.00  0.00     0.005 A 
HETATM   24  C11 UNL     1     -34.934 -58.030   6.968  1.00  0.00     0.017 A 
HETATM   25  C12 UNL     1     -35.170 -57.633   8.255  1.00  0.00     0.089 A 
HETATM   26  N4  UNL     1     -34.236 -57.783   9.217  1.00  0.00    -0.353 N 
ATOM     27  H4  UNL     1     -34.466 -57.470  10.161  1.00  0.00     0.166 HD
ENDBRANCH  19  21
ENDBRANCH  18  19
ENDBRANCH  17  18
ENDBRANCH  16  17
ENDBRANCH  15  16
ENDBRANCH   1  15
TORSDOF 9
ENDMDL
