MODEL 1
REMARK VINA RESULT: -6.499565132      0.000      0.000
REMARK  8 active torsions:
REMARK  status: ('A' for Active; 'I' for Inactive)
REMARK    1  A    between atoms: C5_11  and  C6_12 
REMARK    2  A    between atoms: C6_12  and  C7_13 
REMARK    3  A    between atoms: C10_16  and  C11_17 
REMARK    4  A    between atoms: C11_17  and  C12_18 
REMARK    5  A    between atoms: C12_18  and  C13_19 
REMARK    6  A    between atoms: C13_19  and  C14_20 
REMARK    7  A    between atoms: C14_20  and  C15_21 
REMARK    8  A    between atoms: C15_21  and  N3_22 
ROOT
HETATM    1  C7  UNL     1     -33.004 -58.854   8.280  1.00  0.00    -0.034 A 
HETATM    2  C8  UNL     1     -34.372 -59.038   8.521  1.00  0.00     0.012 A 
HETATM    3  C9  UNL     1     -35.315 -58.949   7.527  1.00  0.00     0.008 A 
HETATM    4  C10 UNL     1     -34.952 -58.672   6.230  1.00  0.00    -0.058 A 
HETATM    5  C16 UNL     1     -33.599 -58.487   5.958  1.00  0.00     0.008 A 
HETATM    6  C17 UNL     1     -32.661 -58.574   6.940  1.00  0.00     0.012 A 
ENDROOT
BRANCH   1   7
HETATM    7  C6  UNL     1     -32.008 -58.793   9.303  1.00  0.00     0.043 C 
BRANCH   7   8
HETATM    8  C5  UNL     1     -30.915 -58.460   9.796  1.00  0.00     0.062 A 
HETATM    9  C2  UNL     1     -29.950 -59.681  10.539  1.00  0.00     0.052 A 
HETATM   10  C1  UNL     1     -30.920 -60.408  10.529  1.00  0.00     0.045 C 
HETATM   11  N1  UNL     1     -28.942 -58.926  10.549  1.00  0.00    -0.318 N 
HETATM   12  C3  UNL     1     -28.353 -57.822  10.310  1.00  0.00     0.314 A 
ATOM     13  H1  UNL     1     -28.213 -59.501  10.973  1.00  0.00     0.169 HD
HETATM   14  O1  UNL     1     -27.159 -57.551  10.552  1.00  0.00    -0.262 OA
HETATM   15  C4  UNL     1     -29.163 -56.842   9.717  1.00  0.00     0.314 A 
HETATM   16  O2  UNL     1     -28.704 -55.746   9.452  1.00  0.00    -0.262 OA
HETATM   17  N2  UNL     1     -30.396 -57.304   9.526  1.00  0.00    -0.317 N 
ATOM     18  H2  UNL     1     -31.039 -56.638   9.097  1.00  0.00     0.169 HD
ENDBRANCH   7   8
ENDBRANCH   1   7
BRANCH   4  19
HETATM   19  C11 UNL     1     -35.957 -58.528   5.169  1.00  0.00     0.038 C 
BRANCH  19  20
HETATM   20  C12 UNL     1     -35.921 -57.147   4.592  1.00  0.00     0.005 C 
BRANCH  20  21
HETATM   21  C13 UNL     1     -36.221 -56.106   5.667  1.00  0.00     0.002 C 
BRANCH  21  22
HETATM   22  C14 UNL     1     -35.179 -55.048   5.780  1.00  0.00     0.027 C 
BRANCH  22  23
HETATM   23  C15 UNL     1     -34.515 -55.238   7.144  1.00  0.00     0.229 C 
BRANCH  23  24
HETATM   24  N3  UNL     1     -35.485 -55.372   8.197  1.00  0.00    -0.079 N 
ATOM     25  H33 UNL     1     -36.394 -55.007   7.914  1.00  0.00     0.274 HD
ATOM     26  H32 UNL     1     -35.743 -56.349   8.343  1.00  0.00     0.274 HD
ATOM     27  H31 UNL     1     -35.166 -54.940   9.064  1.00  0.00     0.274 HD
ENDBRANCH  23  24
ENDBRANCH  22  23
ENDBRANCH  21  22
ENDBRANCH  20  21
ENDBRANCH  19  20
ENDBRANCH   4  19
TORSDOF 8
ENDMDL
MODEL 2
REMARK VINA RESULT: -6.487164887      3.518      7.182
REMARK  8 active torsions:
REMARK  status: ('A' for Active; 'I' for Inactive)
REMARK    1  A    between atoms: C5_11  and  C6_12 
REMARK    2  A    between atoms: C6_12  and  C7_13 
REMARK    3  A    between atoms: C10_16  and  C11_17 
REMARK    4  A    between atoms: C11_17  and  C12_18 
REMARK    5  A    between atoms: C12_18  and  C13_19 
REMARK    6  A    between atoms: C13_19  and  C14_20 
REMARK    7  A    between atoms: C14_20  and  C15_21 
REMARK    8  A    between atoms: C15_21  and  N3_22 
ROOT
HETATM    1  C7  UNL     1     -33.695 -57.877   8.988  1.00  0.00    -0.034 A 
HETATM    2  C8  UNL     1     -33.114 -59.135   8.777  1.00  0.00     0.012 A 
HETATM    3  C9  UNL     1     -32.032 -59.577   9.498  1.00  0.00     0.008 A 
HETATM    4  C10 UNL     1     -31.463 -58.793  10.473  1.00  0.00    -0.058 A 
HETATM    5  C16 UNL     1     -32.020 -57.538  10.708  1.00  0.00     0.008 A 
HETATM    6  C17 UNL     1     -33.092 -57.096   9.996  1.00  0.00     0.012 A 
ENDROOT
BRANCH   1   7
HETATM    7  C6  UNL     1     -34.724 -57.319   8.167  1.00  0.00     0.043 C 
BRANCH   7   8
HETATM    8  C5  UNL     1     -35.324 -57.105   7.098  1.00  0.00     0.062 A 
HETATM    9  C2  UNL     1     -35.425 -55.479   6.532  1.00  0.00     0.052 A 
HETATM   10  C1  UNL     1     -35.073 -55.109   7.631  1.00  0.00     0.045 C 
HETATM   11  N1  UNL     1     -35.792 -55.864   5.390  1.00  0.00    -0.318 N 
HETATM   12  C3  UNL     1     -36.095 -56.766   4.544  1.00  0.00     0.314 A 
ATOM     13  H1  UNL     1     -35.907 -54.995   4.868  1.00  0.00     0.169 HD
HETATM   14  O1  UNL     1     -36.444 -56.584   3.360  1.00  0.00    -0.262 OA
HETATM   15  C4  UNL     1     -36.016 -58.079   5.033  1.00  0.00     0.314 A 
HETATM   16  O2  UNL     1     -36.292 -59.019   4.310  1.00  0.00    -0.262 OA
HETATM   17  N2  UNL     1     -35.624 -58.084   6.304  1.00  0.00    -0.317 N 
ATOM     18  H2  UNL     1     -35.547 -59.012   6.723  1.00  0.00     0.169 HD
ENDBRANCH   7   8
ENDBRANCH   1   7
BRANCH   4  19
HETATM   19  C11 UNL     1     -30.277 -59.238  11.216  1.00  0.00     0.038 C 
BRANCH  19  20
HETATM   20  C12 UNL     1     -29.119 -59.442  10.289  1.00  0.00     0.005 C 
BRANCH  20  21
HETATM   21  C13 UNL     1     -28.423 -58.114   9.996  1.00  0.00     0.002 C 
BRANCH  21  22
HETATM   22  C14 UNL     1     -28.451 -57.732   8.556  1.00  0.00     0.027 C 
BRANCH  22  23
HETATM   23  C15 UNL     1     -29.220 -56.413   8.474  1.00  0.00     0.229 C 
BRANCH  23  24
HETATM   24  N3  UNL     1     -29.048 -55.617   9.659  1.00  0.00    -0.079 N 
ATOM     25  H33 UNL     1     -29.190 -56.172  10.503  1.00  0.00     0.274 HD
ATOM     26  H32 UNL     1     -28.069 -55.364   9.797  1.00  0.00     0.274 HD
ATOM     27  H31 UNL     1     -29.647 -54.792   9.653  1.00  0.00     0.274 HD
ENDBRANCH  23  24
ENDBRANCH  22  23
ENDBRANCH  21  22
ENDBRANCH  20  21
ENDBRANCH  19  20
ENDBRANCH   4  19
TORSDOF 8
ENDMDL
MODEL 3
REMARK VINA RESULT: -6.435584900      2.196      3.254
REMARK  8 active torsions:
REMARK  status: ('A' for Active; 'I' for Inactive)
REMARK    1  A    between atoms: C5_11  and  C6_12 
REMARK    2  A    between atoms: C6_12  and  C7_13 
REMARK    3  A    between atoms: C10_16  and  C11_17 
REMARK    4  A    between atoms: C11_17  and  C12_18 
REMARK    5  A    between atoms: C12_18  and  C13_19 
REMARK    6  A    between atoms: C13_19  and  C14_20 
REMARK    7  A    between atoms: C14_20  and  C15_21 
REMARK    8  A    between atoms: C15_21  and  N3_22 
ROOT
HETATM    1  C7  UNL     1     -33.200 -58.744   8.366  1.00  0.00    -0.034 A 
HETATM    2  C8  UNL     1     -33.041 -58.316   7.042  1.00  0.00     0.012 A 
HETATM    3  C9  UNL     1     -34.026 -58.462   6.097  1.00  0.00     0.008 A 
HETATM    4  C10 UNL     1     -35.230 -59.044   6.413  1.00  0.00    -0.058 A 
HETATM    5  C16 UNL     1     -35.420 -59.477   7.723  1.00  0.00     0.008 A 
HETATM    6  C17 UNL     1     -34.446 -59.334   8.664  1.00  0.00     0.012 A 
ENDROOT
BRANCH   1   7
HETATM    7  C6  UNL     1     -32.155 -58.745   9.342  1.00  0.00     0.043 C 
BRANCH   7   8
HETATM    8  C5  UNL     1     -31.043 -58.434   9.805  1.00  0.00     0.062 A 
HETATM    9  C2  UNL     1     -30.088 -59.673  10.533  1.00  0.00     0.052 A 
HETATM   10  C1  UNL     1     -31.076 -60.376  10.553  1.00  0.00     0.045 C 
HETATM   11  N1  UNL     1     -29.063 -58.942  10.513  1.00  0.00    -0.318 N 
HETATM   12  C3  UNL     1     -28.454 -57.854  10.251  1.00  0.00     0.314 A 
ATOM     13  H1  UNL     1     -28.338 -59.532  10.922  1.00  0.00     0.169 HD
HETATM   14  O1  UNL     1     -27.249 -57.610  10.461  1.00  0.00    -0.262 OA
HETATM   15  C4  UNL     1     -29.256 -56.859   9.671  1.00  0.00     0.314 A 
HETATM   16  O2  UNL     1     -28.777 -55.777   9.386  1.00  0.00    -0.262 OA
HETATM   17  N2  UNL     1     -30.504 -57.292   9.514  1.00  0.00    -0.317 N 
ATOM     18  H2  UNL     1     -31.142 -56.614   9.096  1.00  0.00     0.169 HD
ENDBRANCH   7   8
ENDBRANCH   1   7
BRANCH   4  19
HETATM   19  C11 UNL     1     -36.272 -59.248   5.398  1.00  0.00     0.038 C 
BRANCH  19  20
HETATM   20  C12 UNL     1     -36.507 -60.709   5.169  1.00  0.00     0.005 C 
BRANCH  20  21
HETATM   21  C13 UNL     1     -37.996 -60.992   4.986  1.00  0.00     0.002 C 
BRANCH  21  22
HETATM   22  C14 UNL     1     -38.507 -62.084   5.861  1.00  0.00     0.027 C 
BRANCH  22  23
HETATM   23  C15 UNL     1     -39.240 -61.404   7.018  1.00  0.00     0.229 C 
BRANCH  23  24
HETATM   24  N3  UNL     1     -38.529 -61.547   8.260  1.00  0.00    -0.079 N 
ATOM     25  H33 UNL     1     -37.722 -62.163   8.158  1.00  0.00     0.274 HD
ATOM     26  H32 UNL     1     -38.042 -60.686   8.511  1.00  0.00     0.274 HD
ATOM     27  H31 UNL     1     -39.141 -61.860   9.014  1.00  0.00     0.274 HD
ENDBRANCH  23  24
ENDBRANCH  22  23
ENDBRANCH  21  22
ENDBRANCH  20  21
ENDBRANCH  19  20
ENDBRANCH   4  19
TORSDOF 8
ENDMDL
MODEL 4
REMARK VINA RESULT: -6.336012890      3.975      6.942
REMARK  8 active torsions:
REMARK  status: ('A' for Active; 'I' for Inactive)
REMARK    1  A    between atoms: C5_11  and  C6_12 
REMARK    2  A    between atoms: C6_12  and  C7_13 
REMARK    3  A    between atoms: C10_16  and  C11_17 
REMARK    4  A    between atoms: C11_17  and  C12_18 
REMARK    5  A    between atoms: C12_18  and  C13_19 
REMARK    6  A    between atoms: C13_19  and  C14_20 
REMARK    7  A    between atoms: C14_20  and  C15_21 
REMARK    8  A    between atoms: C15_21  and  N3_22 
ROOT
HETATM    1  C7  UNL     1     -32.029 -56.487   6.776  1.00  0.00    -0.034 A 
HETATM    2  C8  UNL     1     -32.421 -57.831   6.726  1.00  0.00     0.012 A 
HETATM    3  C9  UNL     1     -32.415 -58.642   7.834  1.00  0.00     0.008 A 
HETATM    4  C10 UNL     1     -32.018 -58.164   9.059  1.00  0.00    -0.058 A 
HETATM    5  C16 UNL     1     -31.624 -56.831   9.142  1.00  0.00     0.008 A 
HETATM    6  C17 UNL     1     -31.628 -56.023   8.046  1.00  0.00     0.012 A 
ENDROOT
BRANCH   1   7
HETATM    7  C6  UNL     1     -31.880 -55.649   5.627  1.00  0.00     0.043 C 
BRANCH   7   8
HETATM    8  C5  UNL     1     -31.380 -55.297   4.543  1.00  0.00     0.062 A 
HETATM    9  C2  UNL     1     -32.443 -54.838   3.265  1.00  0.00     0.052 A 
HETATM   10  C1  UNL     1     -33.354 -55.339   3.888  1.00  0.00     0.045 C 
HETATM   11  N1  UNL     1     -31.495 -54.319   2.618  1.00  0.00    -0.318 N 
HETATM   12  C3  UNL     1     -30.271 -54.005   2.461  1.00  0.00     0.314 A 
ATOM     13  H1  UNL     1     -31.946 -53.961   1.776  1.00  0.00     0.169 HD
HETATM   14  O1  UNL     1     -29.780 -53.398   1.488  1.00  0.00    -0.262 OA
HETATM   15  C4  UNL     1     -29.426 -54.400   3.509  1.00  0.00     0.314 A 
HETATM   16  O2  UNL     1     -28.234 -54.158   3.459  1.00  0.00    -0.262 OA
HETATM   17  N2  UNL     1     -30.116 -55.024   4.460  1.00  0.00    -0.317 N 
ATOM     18  H2  UNL     1     -29.558 -55.340   5.254  1.00  0.00     0.169 HD
ENDBRANCH   7   8
ENDBRANCH   1   7
BRANCH   4  19
HETATM   19  C11 UNL     1     -31.962 -59.036  10.239  1.00  0.00     0.038 C 
BRANCH  19  20
HETATM   20  C12 UNL     1     -31.062 -60.206   9.990  1.00  0.00     0.005 C 
BRANCH  20  21
HETATM   21  C13 UNL     1     -29.596 -59.786  10.079  1.00  0.00     0.002 C 
BRANCH  21  22
HETATM   22  C14 UNL     1     -28.915 -59.715   8.757  1.00  0.00     0.027 C 
BRANCH  22  23
HETATM   23  C15 UNL     1     -28.282 -58.327   8.670  1.00  0.00     0.229 C 
BRANCH  23  24
HETATM   24  N3  UNL     1     -27.064 -58.340   7.905  1.00  0.00    -0.079 N 
ATOM     25  H33 UNL     1     -27.255 -58.321   6.903  1.00  0.00     0.274 HD
ATOM     26  H32 UNL     1     -26.563 -57.455   7.989  1.00  0.00     0.274 HD
ATOM     27  H31 UNL     1     -26.469 -59.130   8.153  1.00  0.00     0.274 HD
ENDBRANCH  23  24
ENDBRANCH  22  23
ENDBRANCH  21  22
ENDBRANCH  20  21
ENDBRANCH  19  20
ENDBRANCH   4  19
TORSDOF 8
ENDMDL
MODEL 5
REMARK VINA RESULT: -6.312510080      3.477      7.241
REMARK  8 active torsions:
REMARK  status: ('A' for Active; 'I' for Inactive)
REMARK    1  A    between atoms: C5_11  and  C6_12 
REMARK    2  A    between atoms: C6_12  and  C7_13 
REMARK    3  A    between atoms: C10_16  and  C11_17 
REMARK    4  A    between atoms: C11_17  and  C12_18 
REMARK    5  A    between atoms: C12_18  and  C13_19 
REMARK    6  A    between atoms: C13_19  and  C14_20 
REMARK    7  A    between atoms: C14_20  and  C15_21 
REMARK    8  A    between atoms: C15_21  and  N3_22 
ROOT
HETATM    1  C7  UNL     1     -33.981 -58.334   8.337  1.00  0.00    -0.034 A 
HETATM    2  C8  UNL     1     -33.200 -59.473   8.576  1.00  0.00     0.012 A 
HETATM    3  C9  UNL     1     -32.180 -59.488   9.495  1.00  0.00     0.008 A 
HETATM    4  C10 UNL     1     -31.875 -58.369  10.232  1.00  0.00    -0.058 A 
HETATM    5  C16 UNL     1     -32.635 -57.221  10.019  1.00  0.00     0.008 A 
HETATM    6  C17 UNL     1     -33.647 -57.202   9.110  1.00  0.00     0.012 A 
ENDROOT
BRANCH   1   7
HETATM    7  C6  UNL     1     -34.952 -58.229   7.293  1.00  0.00     0.043 C 
BRANCH   7   8
HETATM    8  C5  UNL     1     -35.404 -57.818   6.209  1.00  0.00     0.062 A 
HETATM    9  C2  UNL     1     -36.026 -58.978   5.094  1.00  0.00     0.052 A 
HETATM   10  C1  UNL     1     -35.488 -59.846   5.746  1.00  0.00     0.045 C 
HETATM   11  N1  UNL     1     -36.585 -58.075   4.416  1.00  0.00    -0.318 N 
HETATM   12  C3  UNL     1     -36.880 -56.860   4.175  1.00  0.00     0.314 A 
ATOM     13  H1  UNL     1     -37.044 -58.589   3.663  1.00  0.00     0.169 HD
HETATM   14  O1  UNL     1     -37.574 -56.439   3.227  1.00  0.00    -0.262 OA
HETATM   15  C4  UNL     1     -36.351 -55.937   5.090  1.00  0.00     0.314 A 
HETATM   16  O2  UNL     1     -36.564 -54.746   4.950  1.00  0.00    -0.262 OA
HETATM   17  N2  UNL     1     -35.648 -56.558   6.032  1.00  0.00    -0.317 N 
ATOM     18  H2  UNL     1     -35.234 -55.942   6.732  1.00  0.00     0.169 HD
ENDBRANCH   7   8
ENDBRANCH   1   7
BRANCH   4  19
HETATM   19  C11 UNL     1     -30.756 -58.361  11.183  1.00  0.00     0.038 C 
BRANCH  19  20
HETATM   20  C12 UNL     1     -29.559 -59.043  10.595  1.00  0.00     0.005 C 
BRANCH  20  21
HETATM   21  C13 UNL     1     -28.569 -58.017  10.048  1.00  0.00     0.002 C 
BRANCH  21  22
HETATM   22  C14 UNL     1     -28.638 -57.853   8.569  1.00  0.00     0.027 C 
BRANCH  22  23
HETATM   23  C15 UNL     1     -29.271 -56.485   8.315  1.00  0.00     0.229 C 
BRANCH  23  24
HETATM   24  N3  UNL     1     -28.890 -55.524   9.314  1.00  0.00    -0.079 N 
ATOM     25  H33 UNL     1     -29.588 -54.787   9.406  1.00  0.00     0.274 HD
ATOM     26  H32 UNL     1     -28.950 -55.920  10.253  1.00  0.00     0.274 HD
ATOM     27  H31 UNL     1     -27.964 -55.137   9.134  1.00  0.00     0.274 HD
ENDBRANCH  23  24
ENDBRANCH  22  23
ENDBRANCH  21  22
ENDBRANCH  20  21
ENDBRANCH  19  20
ENDBRANCH   4  19
TORSDOF 8
ENDMDL
