MODEL 1
REMARK VINA RESULT: -6.260390161      0.000      0.000
REMARK  6 active torsions:
REMARK  status: ('A' for Active; 'I' for Inactive)
REMARK    1  A    between atoms: N1_2  and  C3_4 
REMARK    2  A    between atoms: N1_2  and  C11_16 
REMARK    3  A    between atoms: C3_4  and  C4_5 
REMARK    4  A    between atoms: C4_5  and  C5_6 
REMARK    5  A    between atoms: C5_6  and  N2_7 
REMARK    6  A    between atoms: C11_16  and  C12_17 
ROOT
HETATM    1  C1  UNL     1     -35.089 -57.326   7.984  1.00  0.00     0.272 C 
HETATM    2  N1  UNL     1     -33.773 -56.698   8.193  1.00  0.00    -0.074 N 
HETATM    3  C2  UNL     1     -34.084 -55.311   8.585  1.00  0.00     0.272 C 
ENDROOT
BRANCH   2   4
HETATM    4  C3  UNL     1     -33.044 -57.425   9.166  1.00  0.00     0.238 C 
BRANCH   4   5
HETATM    5  C4  UNL     1     -32.845 -56.851  10.516  1.00  0.00     0.058 C 
BRANCH   5   6
HETATM    6  C5  UNL     1     -31.725 -57.495  11.287  1.00  0.00     0.274 C 
BRANCH   6   7
HETATM    7  N2  UNL     1     -30.681 -57.993  10.410  1.00  0.00     0.090 N 
HETATM    8  C6  UNL     1     -30.210 -59.297  10.837  1.00  0.00     0.274 C 
HETATM    9  C7  UNL     1     -29.753 -60.137   9.687  1.00  0.00     0.057 C 
HETATM   10  C8  UNL     1     -29.843 -59.410   8.366  1.00  0.00     0.234 C 
HETATM   11  N3  UNL     1     -28.981 -58.255   8.312  1.00  0.00    -0.073 N 
HETATM   12  C9  UNL     1     -28.445 -57.886   9.593  1.00  0.00     0.262 C 
ATOM     13  H32 UNL     1     -28.233 -58.392   7.632  1.00  0.00     0.277 HD
ATOM     14  H31 UNL     1     -29.461 -57.465   7.879  1.00  0.00     0.277 HD
HETATM   15  C10 UNL     1     -29.542 -57.123  10.333  1.00  0.00     0.299 C 
ENDBRANCH   6   7
ENDBRANCH   5   6
ENDBRANCH   4   5
ENDBRANCH   2   4
BRANCH   2  16
HETATM   16  C11 UNL     1     -33.075 -56.555   6.938  1.00  0.00     0.242 C 
BRANCH  16  17
HETATM   17  C12 UNL     1     -32.212 -55.401   6.710  1.00  0.00     0.037 C 
HETATM   18  C13 UNL     1     -30.767 -55.729   6.658  1.00  0.00     0.009 C 
HETATM   19  C14 UNL     1     -29.907 -54.518   6.320  1.00  0.00     0.028 C 
HETATM   20  C15 UNL     1     -30.731 -53.406   5.705  1.00  0.00     0.232 C 
HETATM   21  N4  UNL     1     -31.649 -53.993   4.770  1.00  0.00    -0.075 N 
HETATM   22  C16 UNL     1     -32.686 -54.772   5.387  1.00  0.00     0.238 C 
ATOM     23  H42 UNL     1     -32.049 -53.279   4.162  1.00  0.00     0.277 HD
ATOM     24  H41 UNL     1     -31.149 -54.548   4.075  1.00  0.00     0.277 HD
ENDBRANCH  16  17
ENDBRANCH   2  16
TORSDOF 6
ENDMDL
MODEL 2
REMARK VINA RESULT: -6.248181505      1.469      2.312
REMARK  6 active torsions:
REMARK  status: ('A' for Active; 'I' for Inactive)
REMARK    1  A    between atoms: N1_2  and  C3_4 
REMARK    2  A    between atoms: N1_2  and  C11_16 
REMARK    3  A    between atoms: C3_4  and  C4_5 
REMARK    4  A    between atoms: C4_5  and  C5_6 
REMARK    5  A    between atoms: C5_6  and  N2_7 
REMARK    6  A    between atoms: C11_16  and  C12_17 
ROOT
HETATM    1  C1  UNL     1     -34.632 -55.542   5.700  1.00  0.00     0.272 C 
HETATM    2  N1  UNL     1     -34.310 -55.958   7.077  1.00  0.00    -0.074 N 
HETATM    3  C2  UNL     1     -35.368 -55.349   7.903  1.00  0.00     0.272 C 
ENDROOT
BRANCH   2   4
HETATM    4  C3  UNL     1     -34.258 -57.372   7.151  1.00  0.00     0.238 C 
BRANCH   4   5
HETATM    5  C4  UNL     1     -34.018 -58.031   8.454  1.00  0.00     0.058 C 
BRANCH   5   6
HETATM    6  C5  UNL     1     -32.844 -58.973   8.447  1.00  0.00     0.274 C 
BRANCH   6   7
HETATM    7  N2  UNL     1     -31.850 -58.605   9.439  1.00  0.00     0.090 N 
HETATM    8  C6  UNL     1     -31.421 -59.758  10.209  1.00  0.00     0.274 C 
HETATM    9  C7  UNL     1     -30.000 -59.637  10.661  1.00  0.00     0.057 C 
HETATM   10  C8  UNL     1     -29.371 -58.326  10.252  1.00  0.00     0.234 C 
HETATM   11  N3  UNL     1     -30.021 -57.190  10.856  1.00  0.00    -0.073 N 
HETATM   12  C9  UNL     1     -31.274 -57.517  11.479  1.00  0.00     0.262 C 
ATOM     13  H32 UNL     1     -29.399 -56.725  11.518  1.00  0.00     0.277 HD
ATOM     14  H31 UNL     1     -30.139 -56.437  10.178  1.00  0.00     0.277 HD
HETATM   15  C10 UNL     1     -32.314 -57.612  10.365  1.00  0.00     0.299 C 
ENDBRANCH   6   7
ENDBRANCH   5   6
ENDBRANCH   4   5
ENDBRANCH   2   4
BRANCH   2  16
HETATM   16  C11 UNL     1     -33.101 -55.313   7.531  1.00  0.00     0.242 C 
BRANCH  16  17
HETATM   17  C12 UNL     1     -31.995 -55.099   6.605  1.00  0.00     0.037 C 
HETATM   18  C13 UNL     1     -31.770 -53.676   6.253  1.00  0.00     0.009 C 
HETATM   19  C14 UNL     1     -30.548 -53.482   5.364  1.00  0.00     0.028 C 
HETATM   20  C15 UNL     1     -29.631 -54.687   5.412  1.00  0.00     0.232 C 
HETATM   21  N4  UNL     1     -29.539 -55.126   6.775  1.00  0.00    -0.075 N 
HETATM   22  C16 UNL     1     -30.752 -55.706   7.280  1.00  0.00     0.238 C 
ATOM     23  H42 UNL     1     -28.756 -55.770   6.894  1.00  0.00     0.277 HD
ATOM     24  H41 UNL     1     -29.227 -54.365   7.378  1.00  0.00     0.277 HD
ENDBRANCH  16  17
ENDBRANCH   2  16
TORSDOF 6
ENDMDL
MODEL 3
REMARK VINA RESULT: -6.122387943      1.529      2.290
REMARK  6 active torsions:
REMARK  status: ('A' for Active; 'I' for Inactive)
REMARK    1  A    between atoms: N1_2  and  C3_4 
REMARK    2  A    between atoms: N1_2  and  C11_16 
REMARK    3  A    between atoms: C3_4  and  C4_5 
REMARK    4  A    between atoms: C4_5  and  C5_6 
REMARK    5  A    between atoms: C5_6  and  N2_7 
REMARK    6  A    between atoms: C11_16  and  C12_17 
ROOT
HETATM    1  C1  UNL     1     -35.746 -56.336   6.308  1.00  0.00     0.272 C 
HETATM    2  N1  UNL     1     -34.342 -56.019   6.623  1.00  0.00    -0.074 N 
HETATM    3  C2  UNL     1     -34.390 -55.427   7.972  1.00  0.00     0.272 C 
ENDROOT
BRANCH   2   4
HETATM    4  C3  UNL     1     -33.554 -57.193   6.533  1.00  0.00     0.238 C 
BRANCH   4   5
HETATM    5  C4  UNL     1     -32.815 -57.675   7.721  1.00  0.00     0.058 C 
BRANCH   5   6
HETATM    6  C5  UNL     1     -31.365 -57.971   7.452  1.00  0.00     0.274 C 
BRANCH   6   7
HETATM    7  N2  UNL     1     -30.599 -58.084   8.680  1.00  0.00     0.090 N 
HETATM    8  C6  UNL     1     -31.324 -57.526   9.807  1.00  0.00     0.274 C 
HETATM    9  C7  UNL     1     -30.995 -58.223  11.090  1.00  0.00     0.057 C 
HETATM   10  C8  UNL     1     -29.953 -59.301  10.913  1.00  0.00     0.234 C 
HETATM   11  N3  UNL     1     -28.685 -58.776  10.472  1.00  0.00    -0.073 N 
HETATM   12  C9  UNL     1     -28.757 -57.410  10.033  1.00  0.00     0.262 C 
ATOM     13  H32 UNL     1     -27.975 -58.886  11.197  1.00  0.00     0.277 HD
ATOM     14  H31 UNL     1     -28.279 -59.369   9.748  1.00  0.00     0.277 HD
HETATM   15  C10 UNL     1     -29.325 -57.427   8.616  1.00  0.00     0.299 C 
ENDBRANCH   6   7
ENDBRANCH   5   6
ENDBRANCH   4   5
ENDBRANCH   2   4
BRANCH   2  16
HETATM   16  C11 UNL     1     -33.866 -54.941   5.789  1.00  0.00     0.242 C 
BRANCH  16  17
HETATM   17  C12 UNL     1     -32.498 -54.958   5.283  1.00  0.00     0.037 C 
HETATM   18  C13 UNL     1     -32.403 -54.965   3.803  1.00  0.00     0.009 C 
HETATM   19  C14 UNL     1     -30.963 -54.883   3.312  1.00  0.00     0.028 C 
HETATM   20  C15 UNL     1     -30.034 -54.386   4.400  1.00  0.00     0.232 C 
HETATM   21  N4  UNL     1     -30.684 -53.306   5.086  1.00  0.00    -0.075 N 
HETATM   22  C16 UNL     1     -31.810 -53.716   5.877  1.00  0.00     0.238 C 
ATOM     23  H42 UNL     1     -30.015 -52.786   5.655  1.00  0.00     0.277 HD
ATOM     24  H41 UNL     1     -30.954 -52.573   4.429  1.00  0.00     0.277 HD
ENDBRANCH  16  17
ENDBRANCH   2  16
TORSDOF 6
ENDMDL
MODEL 4
REMARK VINA RESULT: -6.068050780      1.390      2.244
REMARK  6 active torsions:
REMARK  status: ('A' for Active; 'I' for Inactive)
REMARK    1  A    between atoms: N1_2  and  C3_4 
REMARK    2  A    between atoms: N1_2  and  C11_16 
REMARK    3  A    between atoms: C3_4  and  C4_5 
REMARK    4  A    between atoms: C4_5  and  C5_6 
REMARK    5  A    between atoms: C5_6  and  N2_7 
REMARK    6  A    between atoms: C11_16  and  C12_17 
ROOT
HETATM    1  C1  UNL     1     -33.494 -57.385   6.328  1.00  0.00     0.272 C 
HETATM    2  N1  UNL     1     -34.155 -56.154   6.793  1.00  0.00    -0.074 N 
HETATM    3  C2  UNL     1     -35.580 -56.356   6.474  1.00  0.00     0.272 C 
ENDROOT
BRANCH   2   4
HETATM    4  C3  UNL     1     -33.892 -55.960   8.172  1.00  0.00     0.238 C 
BRANCH   4   5
HETATM    5  C4  UNL     1     -32.521 -56.157   8.693  1.00  0.00     0.058 C 
BRANCH   5   6
HETATM    6  C5  UNL     1     -32.443 -57.135   9.835  1.00  0.00     0.274 C 
BRANCH   6   7
HETATM    7  N2  UNL     1     -31.148 -57.788   9.900  1.00  0.00     0.090 N 
HETATM    8  C6  UNL     1     -30.625 -58.056   8.573  1.00  0.00     0.274 C 
HETATM    9  C7  UNL     1     -29.130 -58.013   8.536  1.00  0.00     0.057 C 
HETATM   10  C8  UNL     1     -28.524 -57.751   9.894  1.00  0.00     0.234 C 
HETATM   11  N3  UNL     1     -28.814 -58.801  10.839  1.00  0.00    -0.073 N 
HETATM   12  C9  UNL     1     -29.828 -59.711  10.384  1.00  0.00     0.262 C 
ATOM     13  H32 UNL     1     -27.963 -59.304  11.095  1.00  0.00     0.277 HD
ATOM     14  H31 UNL     1     -29.059 -58.411  11.750  1.00  0.00     0.277 HD
HETATM   15  C10 UNL     1     -31.175 -59.030  10.616  1.00  0.00     0.299 C 
ENDBRANCH   6   7
ENDBRANCH   5   6
ENDBRANCH   4   5
ENDBRANCH   2   4
BRANCH   2  16
HETATM   16  C11 UNL     1     -33.772 -55.031   5.971  1.00  0.00     0.242 C 
BRANCH  16  17
HETATM   17  C12 UNL     1     -32.457 -55.003   5.340  1.00  0.00     0.037 C 
HETATM   18  C13 UNL     1     -32.501 -54.960   3.858  1.00  0.00     0.009 C 
HETATM   19  C14 UNL     1     -31.115 -54.833   3.238  1.00  0.00     0.028 C 
HETATM   20  C15 UNL     1     -30.097 -54.352   4.251  1.00  0.00     0.232 C 
HETATM   21  N4  UNL     1     -30.699 -53.308   5.031  1.00  0.00    -0.075 N 
HETATM   22  C16 UNL     1     -31.738 -53.767   5.909  1.00  0.00     0.238 C 
ATOM     23  H42 UNL     1     -29.989 -52.793   5.553  1.00  0.00     0.277 HD
ATOM     24  H41 UNL     1     -31.043 -52.561   4.428  1.00  0.00     0.277 HD
ENDBRANCH  16  17
ENDBRANCH   2  16
TORSDOF 6
ENDMDL
MODEL 5
REMARK VINA RESULT: -6.040992799      1.484      2.323
REMARK  6 active torsions:
REMARK  status: ('A' for Active; 'I' for Inactive)
REMARK    1  A    between atoms: N1_2  and  C3_4 
REMARK    2  A    between atoms: N1_2  and  C11_16 
REMARK    3  A    between atoms: C3_4  and  C4_5 
REMARK    4  A    between atoms: C4_5  and  C5_6 
REMARK    5  A    between atoms: C5_6  and  N2_7 
REMARK    6  A    between atoms: C11_16  and  C12_17 
ROOT
HETATM    1  C1  UNL     1     -35.611 -56.667   5.967  1.00  0.00     0.272 C 
HETATM    2  N1  UNL     1     -34.521 -56.002   6.701  1.00  0.00    -0.074 N 
HETATM    3  C2  UNL     1     -35.189 -55.347   7.841  1.00  0.00     0.272 C 
ENDROOT
BRANCH   2   4
HETATM    4  C3  UNL     1     -33.542 -56.956   7.074  1.00  0.00     0.238 C 
BRANCH   4   5
HETATM    5  C4  UNL     1     -33.798 -57.865   8.213  1.00  0.00     0.058 C 
BRANCH   5   6
HETATM    6  C5  UNL     1     -32.754 -58.936   8.379  1.00  0.00     0.274 C 
BRANCH   6   7
HETATM    7  N2  UNL     1     -31.778 -58.586   9.396  1.00  0.00     0.090 N 
HETATM    8  C6  UNL     1     -31.327 -59.760  10.121  1.00  0.00     0.274 C 
HETATM    9  C7  UNL     1     -29.914 -59.623  10.591  1.00  0.00     0.057 C 
HETATM   10  C8  UNL     1     -29.314 -58.281  10.244  1.00  0.00     0.234 C 
HETATM   11  N3  UNL     1     -29.998 -57.188  10.889  1.00  0.00    -0.073 N 
HETATM   12  C9  UNL     1     -31.247 -57.571  11.485  1.00  0.00     0.262 C 
ATOM     13  H32 UNL     1     -29.392 -56.736  11.576  1.00  0.00     0.277 HD
ATOM     14  H31 UNL     1     -30.128 -56.410  10.242  1.00  0.00     0.277 HD
HETATM   15  C10 UNL     1     -32.275 -57.645  10.358  1.00  0.00     0.299 C 
ENDBRANCH   6   7
ENDBRANCH   5   6
ENDBRANCH   4   5
ENDBRANCH   2   4
BRANCH   2  16
HETATM   16  C11 UNL     1     -33.989 -54.902   5.933  1.00  0.00     0.242 C 
BRANCH  16  17
HETATM   17  C12 UNL     1     -32.646 -54.986   5.371  1.00  0.00     0.037 C 
HETATM   18  C13 UNL     1     -32.614 -55.017   3.888  1.00  0.00     0.009 C 
HETATM   19  C14 UNL     1     -31.194 -55.005   3.337  1.00  0.00     0.028 C 
HETATM   20  C15 UNL     1     -30.198 -54.534   4.377  1.00  0.00     0.232 C 
HETATM   21  N4  UNL     1     -30.772 -53.417   5.073  1.00  0.00    -0.075 N 
HETATM   22  C16 UNL     1     -31.880 -53.767   5.917  1.00  0.00     0.238 C 
ATOM     23  H42 UNL     1     -30.057 -52.920   5.606  1.00  0.00     0.277 HD
ATOM     24  H41 UNL     1     -31.038 -52.683   4.417  1.00  0.00     0.277 HD
ENDBRANCH  16  17
ENDBRANCH   2  16
TORSDOF 6
ENDMDL
