MODEL 1
REMARK VINA RESULT: -7.069018104      0.000      0.000
REMARK  8 active torsions:
REMARK  status: ('A' for Active; 'I' for Inactive)
REMARK    1  A    between atoms: C2_2  and  C3_3 
REMARK    2  A    between atoms: C4_4  and  C5_5 
REMARK    3  A    between atoms: C5_5  and  C6_6 
REMARK    4  A    between atoms: C6_6  and  C7_7 
REMARK    5  A    between atoms: C7_7  and  N1_8 
REMARK    6  A    between atoms: C9_15  and  C10_16 
REMARK    7  A    between atoms: C10_16  and  N5_17 
REMARK    8  A    between atoms: C19_28  and  C20_29 
REMARK       I    between atoms: C20_29  and  N7_31 
REMARK       I    between atoms: C21_33  and  N9_35 
ROOT
HETATM    1  N5  UNL     1     -26.460   9.370  53.399  1.00  0.00    -0.309 N 
HETATM    2  C11 UNL     1     -26.769  10.762  53.416  1.00  0.00     0.275 A 
HETATM    3  O1  UNL     1     -25.778  11.557  53.420  1.00  0.00    -0.265 OA
HETATM    4  C12 UNL     1     -28.124  11.275  53.429  1.00  0.00     0.100 A 
HETATM    5  C13 UNL     1     -28.623  12.516  53.443  1.00  0.00     0.010 A 
HETATM    6  C14 UNL     1     -30.100  12.492  53.453  1.00  0.00     0.049 A 
HETATM    7  C15 UNL     1     -30.468  11.046  53.449  1.00  0.00     0.133 A 
HETATM    8  N6  UNL     1     -29.191  10.334  53.424  1.00  0.00    -0.343 N 
HETATM    9  C16 UNL     1     -28.847   8.957  53.404  1.00  0.00     0.048 A 
HETATM   10  C17 UNL     1     -27.624   8.485  53.393  1.00  0.00     0.040 A 
HETATM   11  C18 UNL     1     -28.067   7.062  53.345  1.00  0.00     0.080 A 
HETATM   12  C19 UNL     1     -29.485   7.583  53.347  1.00  0.00     0.136 A 
ENDROOT
BRANCH   1  13
HETATM   13  C10 UNL     1     -25.152   8.846  53.266  1.00  0.00     0.189 C 
BRANCH  13  14
HETATM   14  C9  UNL     1     -24.605   8.611  51.903  1.00  0.00     0.034 A 
HETATM   15  N4  UNL     1     -24.148   9.663  51.151  1.00  0.00    -0.361 N 
HETATM   16  C4  UNL     1     -23.805   9.220  49.906  1.00  0.00     0.016 A 
ATOM     17  H4  UNL     1     -24.077  10.628  51.473  1.00  0.00     0.165 HD
HETATM   18  C3  UNL     1     -24.050   7.866  49.887  1.00  0.00    -0.028 A 
HETATM   19  C24 UNL     1     -24.554   7.479  51.148  1.00  0.00    -0.029 A 
HETATM   20  C25 UNL     1     -24.874   6.079  51.500  1.00  0.00     0.051 C 
BRANCH  16  21
HETATM   21  C5  UNL     1     -23.346  10.110  48.813  1.00  0.00     0.059 C 
BRANCH  21  22
HETATM   22  C6  UNL     1     -24.231  10.309  47.648  1.00  0.00     0.026 C 
BRANCH  22  23
HETATM   23  C7  UNL     1     -23.323  10.689  46.443  1.00  0.00     0.122 C 
BRANCH  23  24
HETATM   24  N1  UNL     1     -23.798  11.804  45.764  1.00  0.00    -0.367 N 
HETATM   25  C8  UNL     1     -23.627  12.457  44.744  1.00  0.00     0.196 C 
HETATM   26  N2  UNL     1     -24.498  13.614  44.547  1.00  0.00    -0.067 NA
HETATM   27  N3  UNL     1     -22.687  12.266  43.707  1.00  0.00    -0.067 NA
ATOM     28  H1  UNL     1     -24.554  12.224  46.305  1.00  0.00     0.161 HD
ENDBRANCH  23  24
ENDBRANCH  22  23
ENDBRANCH  21  22
ENDBRANCH  16  21
BRANCH  18  29
HETATM   29  C2  UNL     1     -23.822   6.920  48.777  1.00  0.00     0.036 C 
HETATM   30  C1  UNL     1     -22.359   6.574  48.571  1.00  0.00     0.010 C 
ENDBRANCH  18  29
ENDBRANCH  13  14
ENDBRANCH   1  13
BRANCH  12  31
HETATM   31  C20 UNL     1     -30.228   7.382  52.087  1.00  0.00     0.234 C 
HETATM   32  O2  UNL     1     -31.317   7.982  51.907  1.00  0.00    -0.272 OA
HETATM   33  N7  UNL     1     -29.767   6.528  51.050  1.00  0.00    -0.301 N 
HETATM   34  C21 UNL     1     -30.580   5.571  50.711  1.00  0.00     0.192 C 
ATOM     35  H7  UNL     1     -28.859   6.657  50.602  1.00  0.00     0.171 HD
HETATM   36  N8  UNL     1     -31.851   5.408  51.357  1.00  0.00    -0.063 NA
HETATM   37  N9  UNL     1     -30.219   4.683  49.678  1.00  0.00    -0.364 N 
HETATM   38  C22 UNL     1     -28.829   4.554  49.289  1.00  0.00     0.151 C 
HETATM   39  C23 UNL     1     -31.264   3.918  49.010  1.00  0.00     0.151 C 
ENDBRANCH  12  31
TORSDOF 8
ENDMDL
MODEL 2
REMARK VINA RESULT: -6.968099851      2.317      3.793
REMARK  8 active torsions:
REMARK  status: ('A' for Active; 'I' for Inactive)
REMARK    1  A    between atoms: C2_2  and  C3_3 
REMARK    2  A    between atoms: C4_4  and  C5_5 
REMARK    3  A    between atoms: C5_5  and  C6_6 
REMARK    4  A    between atoms: C6_6  and  C7_7 
REMARK    5  A    between atoms: C7_7  and  N1_8 
REMARK    6  A    between atoms: C9_15  and  C10_16 
REMARK    7  A    between atoms: C10_16  and  N5_17 
REMARK    8  A    between atoms: C19_28  and  C20_29 
REMARK       I    between atoms: C20_29  and  N7_31 
REMARK       I    between atoms: C21_33  and  N9_35 
ROOT
HETATM    1  N5  UNL     1     -25.432   8.409  49.267  1.00  0.00    -0.309 N 
HETATM    2  C11 UNL     1     -25.544   9.314  50.364  1.00  0.00     0.275 A 
HETATM    3  O1  UNL     1     -25.063  10.476  50.185  1.00  0.00    -0.265 OA
HETATM    4  C12 UNL     1     -26.165   8.961  51.624  1.00  0.00     0.100 A 
HETATM    5  C13 UNL     1     -26.372   9.645  52.756  1.00  0.00     0.010 A 
HETATM    6  C14 UNL     1     -27.061   8.809  53.761  1.00  0.00     0.049 A 
HETATM    7  C15 UNL     1     -27.256   7.486  53.101  1.00  0.00     0.133 A 
HETATM    8  N6  UNL     1     -26.685   7.645  51.764  1.00  0.00    -0.343 N 
HETATM    9  C16 UNL     1     -26.558   6.772  50.652  1.00  0.00     0.048 A 
HETATM   10  C17 UNL     1     -25.997   7.083  49.508  1.00  0.00     0.040 A 
HETATM   11  C18 UNL     1     -26.268   5.749  48.899  1.00  0.00     0.080 A 
HETATM   12  C19 UNL     1     -26.928   5.371  50.204  1.00  0.00     0.136 A 
ENDROOT
BRANCH   1  13
HETATM   13  C10 UNL     1     -24.939   8.765  47.989  1.00  0.00     0.189 C 
BRANCH  13  14
HETATM   14  C9  UNL     1     -23.474   8.940  47.806  1.00  0.00     0.034 A 
HETATM   15  N4  UNL     1     -22.980  10.092  47.249  1.00  0.00    -0.361 N 
HETATM   16  C4  UNL     1     -21.630   9.977  47.079  1.00  0.00     0.016 A 
ATOM     17  H4  UNL     1     -23.536  10.910  47.000  1.00  0.00     0.165 HD
HETATM   18  C3  UNL     1     -21.280   8.730  47.543  1.00  0.00    -0.028 A 
HETATM   19  C24 UNL     1     -22.442   8.073  48.004  1.00  0.00    -0.029 A 
HETATM   20  C25 UNL     1     -22.426   6.731  48.624  1.00  0.00     0.051 C 
BRANCH  16  21
HETATM   21  C5  UNL     1     -20.790  11.011  46.430  1.00  0.00     0.059 C 
BRANCH  21  22
HETATM   22  C6  UNL     1     -20.730  11.046  44.955  1.00  0.00     0.026 C 
BRANCH  22  23
HETATM   23  C7  UNL     1     -20.830  12.538  44.528  1.00  0.00     0.122 C 
BRANCH  23  24
HETATM   24  N1  UNL     1     -22.080  13.078  44.807  1.00  0.00    -0.367 N 
HETATM   25  C8  UNL     1     -23.271  12.800  44.814  1.00  0.00     0.196 C 
HETATM   26  N2  UNL     1     -24.192  13.851  45.239  1.00  0.00    -0.067 NA
HETATM   27  N3  UNL     1     -23.909  11.591  44.457  1.00  0.00    -0.067 NA
ATOM     28  H1  UNL     1     -21.963  14.045  45.111  1.00  0.00     0.161 HD
ENDBRANCH  23  24
ENDBRANCH  22  23
ENDBRANCH  21  22
ENDBRANCH  16  21
BRANCH  18  29
HETATM   29  C2  UNL     1     -19.931   8.131  47.600  1.00  0.00     0.036 C 
HETATM   30  C1  UNL     1     -19.517   7.455  46.307  1.00  0.00     0.010 C 
ENDBRANCH  18  29
ENDBRANCH  13  14
ENDBRANCH   1  13
BRANCH  12  31
HETATM   31  C20 UNL     1     -28.392   5.192  50.136  1.00  0.00     0.234 C 
HETATM   32  O2  UNL     1     -28.966   5.199  49.019  1.00  0.00    -0.272 OA
HETATM   33  N7  UNL     1     -29.198   5.009  51.291  1.00  0.00    -0.301 N 
HETATM   34  C21 UNL     1     -30.149   5.882  51.453  1.00  0.00     0.192 C 
ATOM     35  H7  UNL     1     -29.043   4.244  51.948  1.00  0.00     0.171 HD
HETATM   36  N8  UNL     1     -30.348   6.950  50.515  1.00  0.00    -0.063 NA
HETATM   37  N9  UNL     1     -31.014   5.773  52.560  1.00  0.00    -0.364 N 
HETATM   38  C22 UNL     1     -30.618   4.988  53.712  1.00  0.00     0.151 C 
HETATM   39  C23 UNL     1     -32.305   6.448  52.513  1.00  0.00     0.151 C 
ENDBRANCH  12  31
TORSDOF 8
ENDMDL
MODEL 3
REMARK VINA RESULT: -6.776244843      2.427      4.097
REMARK  8 active torsions:
REMARK  status: ('A' for Active; 'I' for Inactive)
REMARK    1  A    between atoms: C2_2  and  C3_3 
REMARK    2  A    between atoms: C4_4  and  C5_5 
REMARK    3  A    between atoms: C5_5  and  C6_6 
REMARK    4  A    between atoms: C6_6  and  C7_7 
REMARK    5  A    between atoms: C7_7  and  N1_8 
REMARK    6  A    between atoms: C9_15  and  C10_16 
REMARK    7  A    between atoms: C10_16  and  N5_17 
REMARK    8  A    between atoms: C19_28  and  C20_29 
REMARK       I    between atoms: C20_29  and  N7_31 
REMARK       I    between atoms: C21_33  and  N9_35 
ROOT
HETATM    1  N5  UNL     1     -25.045   8.509  49.131  1.00  0.00    -0.309 N 
HETATM    2  C11 UNL     1     -25.203   9.478  50.165  1.00  0.00     0.275 A 
HETATM    3  O1  UNL     1     -24.719  10.630  49.934  1.00  0.00    -0.265 OA
HETATM    4  C12 UNL     1     -25.872   9.200  51.419  1.00  0.00     0.100 A 
HETATM    5  C13 UNL     1     -26.127   9.951  52.498  1.00  0.00     0.010 A 
HETATM    6  C14 UNL     1     -26.852   9.174  53.524  1.00  0.00     0.049 A 
HETATM    7  C15 UNL     1     -27.017   7.811  52.939  1.00  0.00     0.133 A 
HETATM    8  N6  UNL     1     -26.394   7.891  51.619  1.00  0.00    -0.343 N 
HETATM    9  C16 UNL     1     -26.220   6.953  50.568  1.00  0.00     0.048 A 
HETATM   10  C17 UNL     1     -25.615   7.197  49.431  1.00  0.00     0.040 A 
HETATM   11  C18 UNL     1     -25.857   5.827  48.894  1.00  0.00     0.080 A 
HETATM   12  C19 UNL     1     -26.567   5.526  50.192  1.00  0.00     0.136 A 
ENDROOT
BRANCH   1  13
HETATM   13  C10 UNL     1     -24.502   8.789  47.854  1.00  0.00     0.189 C 
BRANCH  13  14
HETATM   14  C9  UNL     1     -23.057   9.121  47.743  1.00  0.00     0.034 A 
HETATM   15  N4  UNL     1     -22.664  10.376  47.353  1.00  0.00    -0.361 N 
HETATM   16  C4  UNL     1     -21.306  10.408  47.214  1.00  0.00     0.016 A 
ATOM     17  H4  UNL     1     -23.291  11.164  47.191  1.00  0.00     0.165 HD
HETATM   18  C3  UNL     1     -20.848   9.149  47.528  1.00  0.00    -0.028 A 
HETATM   19  C24 UNL     1     -21.951   8.335  47.864  1.00  0.00    -0.029 A 
HETATM   20  C25 UNL     1     -21.820   6.931  48.310  1.00  0.00     0.051 C 
BRANCH  16  21
HETATM   21  C5  UNL     1     -20.556  11.591  46.729  1.00  0.00     0.059 C 
BRANCH  21  22
HETATM   22  C6  UNL     1     -19.597  11.411  45.621  1.00  0.00     0.026 C 
BRANCH  22  23
HETATM   23  C7  UNL     1     -20.084  12.305  44.445  1.00  0.00     0.122 C 
BRANCH  23  24
HETATM   24  N1  UNL     1     -20.850  11.592  43.531  1.00  0.00    -0.367 N 
HETATM   25  C8  UNL     1     -21.986  11.180  43.337  1.00  0.00     0.196 C 
HETATM   26  N2  UNL     1     -22.217  10.440  42.099  1.00  0.00    -0.067 NA
HETATM   27  N3  UNL     1     -23.133  11.307  44.151  1.00  0.00    -0.067 NA
ATOM     28  H1  UNL     1     -20.258  11.315  42.747  1.00  0.00     0.161 HD
ENDBRANCH  23  24
ENDBRANCH  22  23
ENDBRANCH  21  22
ENDBRANCH  16  21
BRANCH  18  29
HETATM   29  C2  UNL     1     -19.450   8.675  47.553  1.00  0.00     0.036 C 
HETATM   30  C1  UNL     1     -18.716   9.032  48.832  1.00  0.00     0.010 C 
ENDBRANCH  18  29
ENDBRANCH  13  14
ENDBRANCH   1  13
BRANCH  12  31
HETATM   31  C20 UNL     1     -28.027   5.334  50.078  1.00  0.00     0.234 C 
HETATM   32  O2  UNL     1     -28.574   5.405  48.950  1.00  0.00    -0.272 OA
HETATM   33  N7  UNL     1     -28.857   5.071  51.199  1.00  0.00    -0.301 N 
HETATM   34  C21 UNL     1     -29.823   5.921  51.391  1.00  0.00     0.192 C 
ATOM     35  H7  UNL     1     -28.708   4.269  51.812  1.00  0.00     0.171 HD
HETATM   36  N8  UNL     1     -30.014   7.043  50.517  1.00  0.00    -0.063 NA
HETATM   37  N9  UNL     1     -30.713   5.734  52.468  1.00  0.00    -0.364 N 
HETATM   38  C22 UNL     1     -30.334   4.884  53.578  1.00  0.00     0.151 C 
HETATM   39  C23 UNL     1     -32.011   6.395  52.432  1.00  0.00     0.151 C 
ENDBRANCH  12  31
TORSDOF 8
ENDMDL
MODEL 4
REMARK VINA RESULT: -6.705254870      4.216     10.146
REMARK  8 active torsions:
REMARK  status: ('A' for Active; 'I' for Inactive)
REMARK    1  A    between atoms: C2_2  and  C3_3 
REMARK    2  A    between atoms: C4_4  and  C5_5 
REMARK    3  A    between atoms: C5_5  and  C6_6 
REMARK    4  A    between atoms: C6_6  and  C7_7 
REMARK    5  A    between atoms: C7_7  and  N1_8 
REMARK    6  A    between atoms: C9_15  and  C10_16 
REMARK    7  A    between atoms: C10_16  and  N5_17 
REMARK    8  A    between atoms: C19_28  and  C20_29 
REMARK       I    between atoms: C20_29  and  N7_31 
REMARK       I    between atoms: C21_33  and  N9_35 
ROOT
HETATM    1  N5  UNL     1     -22.440   9.588  47.566  1.00  0.00    -0.309 N 
HETATM    2  C11 UNL     1     -23.450  10.457  47.058  1.00  0.00     0.275 A 
HETATM    3  O1  UNL     1     -24.508  10.556  47.755  1.00  0.00    -0.265 OA
HETATM    4  C12 UNL     1     -23.311  11.200  45.822  1.00  0.00     0.100 A 
HETATM    5  C13 UNL     1     -24.118  12.054  45.182  1.00  0.00     0.010 A 
HETATM    6  C14 UNL     1     -23.491  12.542  43.937  1.00  0.00     0.049 A 
HETATM    7  C15 UNL     1     -22.162  11.866  43.877  1.00  0.00     0.133 A 
HETATM    8  N6  UNL     1     -22.103  11.048  45.087  1.00  0.00    -0.343 N 
HETATM    9  C16 UNL     1     -21.118  10.177  45.624  1.00  0.00     0.048 A 
HETATM   10  C17 UNL     1     -21.237   9.501  46.741  1.00  0.00     0.040 A 
HETATM   11  C18 UNL     1     -19.877   8.898  46.636  1.00  0.00     0.080 A 
HETATM   12  C19 UNL     1     -19.714   9.675  45.351  1.00  0.00     0.136 A 
ENDROOT
BRANCH   1  13
HETATM   13  C10 UNL     1     -22.502   8.946  48.826  1.00  0.00     0.189 C 
BRANCH  13  14
HETATM   14  C9  UNL     1     -23.456   7.822  49.015  1.00  0.00     0.034 A 
HETATM   15  N4  UNL     1     -24.722   8.062  49.486  1.00  0.00    -0.361 N 
HETATM   16  C4  UNL     1     -25.370   6.876  49.683  1.00  0.00     0.016 A 
ATOM     17  H4  UNL     1     -25.118   8.985  49.663  1.00  0.00     0.165 HD
HETATM   18  C3  UNL     1     -24.489   5.882  49.323  1.00  0.00    -0.028 A 
HETATM   19  C24 UNL     1     -23.281   6.476  48.899  1.00  0.00    -0.029 A 
HETATM   20  C25 UNL     1     -22.130   5.703  48.386  1.00  0.00     0.051 C 
BRANCH  16  21
HETATM   21  C5  UNL     1     -26.730   6.767  50.260  1.00  0.00     0.059 C 
BRANCH  21  22
HETATM   22  C6  UNL     1     -26.923   7.121  51.680  1.00  0.00     0.026 C 
BRANCH  22  23
HETATM   23  C7  UNL     1     -28.009   8.234  51.730  1.00  0.00     0.122 C 
BRANCH  23  24
HETATM   24  N1  UNL     1     -27.509   9.428  52.234  1.00  0.00    -0.367 N 
HETATM   25  C8  UNL     1     -26.658  10.283  52.025  1.00  0.00     0.196 C 
HETATM   26  N2  UNL     1     -26.602  11.402  52.963  1.00  0.00    -0.067 NA
HETATM   27  N3  UNL     1     -25.692  10.350  50.996  1.00  0.00    -0.067 NA
ATOM     28  H1  UNL     1     -28.034   9.681  53.071  1.00  0.00     0.161 HD
ENDBRANCH  23  24
ENDBRANCH  22  23
ENDBRANCH  21  22
ENDBRANCH  16  21
BRANCH  18  29
HETATM   29  C2  UNL     1     -24.718   4.423  49.331  1.00  0.00     0.036 C 
HETATM   30  C1  UNL     1     -25.573   3.941  48.174  1.00  0.00     0.010 C 
ENDBRANCH  18  29
ENDBRANCH  13  14
ENDBRANCH   1  13
BRANCH  12  31
HETATM   31  C20 UNL     1     -18.725  10.771  45.403  1.00  0.00     0.234 C 
HETATM   32  O2  UNL     1     -18.752  11.671  44.528  1.00  0.00    -0.272 OA
HETATM   33  N7  UNL     1     -17.729  10.860  46.411  1.00  0.00    -0.301 N 
HETATM   34  C21 UNL     1     -16.501  10.891  45.981  1.00  0.00     0.192 C 
ATOM     35  H7  UNL     1     -17.960  10.897  47.404  1.00  0.00     0.171 HD
HETATM   36  N8  UNL     1     -16.200  10.835  44.579  1.00  0.00    -0.063 NA
HETATM   37  N9  UNL     1     -15.442  10.997  46.905  1.00  0.00    -0.364 N 
HETATM   38  C22 UNL     1     -15.660  10.655  48.296  1.00  0.00     0.151 C 
HETATM   39  C23 UNL     1     -14.144  11.466  46.437  1.00  0.00     0.151 C 
ENDBRANCH  12  31
TORSDOF 8
ENDMDL
MODEL 5
REMARK VINA RESULT: -6.598028642      3.291      6.547
REMARK  8 active torsions:
REMARK  status: ('A' for Active; 'I' for Inactive)
REMARK    1  A    between atoms: C2_2  and  C3_3 
REMARK    2  A    between atoms: C4_4  and  C5_5 
REMARK    3  A    between atoms: C5_5  and  C6_6 
REMARK    4  A    between atoms: C6_6  and  C7_7 
REMARK    5  A    between atoms: C7_7  and  N1_8 
REMARK    6  A    between atoms: C9_15  and  C10_16 
REMARK    7  A    between atoms: C10_16  and  N5_17 
REMARK    8  A    between atoms: C19_28  and  C20_29 
REMARK       I    between atoms: C20_29  and  N7_31 
REMARK       I    between atoms: C21_33  and  N9_35 
ROOT
HETATM    1  N5  UNL     1     -21.697   9.183  49.241  1.00  0.00    -0.309 N 
HETATM    2  C11 UNL     1     -20.819  10.068  49.934  1.00  0.00     0.275 A 
HETATM    3  O1  UNL     1     -19.799  10.466  49.289  1.00  0.00    -0.265 OA
HETATM    4  C12 UNL     1     -21.047  10.508  51.295  1.00  0.00     0.100 A 
HETATM    5  C13 UNL     1     -20.364  11.320  52.111  1.00  0.00     0.010 A 
HETATM    6  C14 UNL     1     -21.037  11.439  53.422  1.00  0.00     0.049 A 
HETATM    7  C15 UNL     1     -22.248  10.575  53.320  1.00  0.00     0.133 A 
HETATM    8  N6  UNL     1     -22.206  10.027  51.965  1.00  0.00    -0.343 N 
HETATM    9  C16 UNL     1     -23.059   9.151  51.244  1.00  0.00     0.048 A 
HETATM   10  C17 UNL     1     -22.860   8.747  50.012  1.00  0.00     0.040 A 
HETATM   11  C18 UNL     1     -24.112   7.939  49.968  1.00  0.00     0.080 A 
HETATM   12  C19 UNL     1     -24.368   8.398  51.385  1.00  0.00     0.136 A 
ENDROOT
BRANCH   1  13
HETATM   13  C10 UNL     1     -21.561   8.833  47.876  1.00  0.00     0.189 C 
BRANCH  13  14
HETATM   14  C9  UNL     1     -21.975   9.814  46.837  1.00  0.00     0.034 A 
HETATM   15  N4  UNL     1     -21.030  10.481  46.102  1.00  0.00    -0.361 N 
HETATM   16  C4  UNL     1     -21.640  11.403  45.300  1.00  0.00     0.016 A 
ATOM     17  H4  UNL     1     -20.024  10.316  46.147  1.00  0.00     0.165 HD
HETATM   18  C3  UNL     1     -22.991  11.301  45.540  1.00  0.00    -0.028 A 
HETATM   19  C24 UNL     1     -23.206  10.297  46.509  1.00  0.00    -0.029 A 
HETATM   20  C25 UNL     1     -24.549   9.881  46.966  1.00  0.00     0.051 C 
BRANCH  16  21
HETATM   21  C5  UNL     1     -20.906  12.352  44.429  1.00  0.00     0.059 C 
BRANCH  21  22
HETATM   22  C6  UNL     1     -19.433  12.388  44.512  1.00  0.00     0.026 C 
BRANCH  22  23
HETATM   23  C7  UNL     1     -18.891  11.361  43.477  1.00  0.00     0.122 C 
BRANCH  23  24
HETATM   24  N1  UNL     1     -19.760  11.192  42.406  1.00  0.00    -0.367 N 
HETATM   25  C8  UNL     1     -20.104  10.376  41.562  1.00  0.00     0.196 C 
HETATM   26  N2  UNL     1     -21.150  10.791  40.630  1.00  0.00    -0.067 NA
HETATM   27  N3  UNL     1     -19.626   9.065  41.339  1.00  0.00    -0.067 NA
ATOM     28  H1  UNL     1     -20.299  12.048  42.279  1.00  0.00     0.161 HD
ENDBRANCH  23  24
ENDBRANCH  22  23
ENDBRANCH  21  22
ENDBRANCH  16  21
BRANCH  18  29
HETATM   29  C2  UNL     1     -24.084  12.065  44.905  1.00  0.00     0.036 C 
HETATM   30  C1  UNL     1     -24.097  13.531  45.293  1.00  0.00     0.010 C 
ENDBRANCH  18  29
ENDBRANCH  13  14
ENDBRANCH   1  13
BRANCH  12  31
HETATM   31  C20 UNL     1     -25.509   9.322  51.548  1.00  0.00     0.234 C 
HETATM   32  O2  UNL     1     -25.544  10.387  50.883  1.00  0.00    -0.272 OA
HETATM   33  N7  UNL     1     -26.587   9.062  52.434  1.00  0.00    -0.301 N 
HETATM   34  C21 UNL     1     -26.797   9.970  53.341  1.00  0.00     0.192 C 
ATOM     35  H7  UNL     1     -27.160   8.220  52.364  1.00  0.00     0.171 HD
HETATM   36  N8  UNL     1     -25.977  11.146  53.423  1.00  0.00    -0.063 NA
HETATM   37  N9  UNL     1     -27.856   9.811  54.256  1.00  0.00    -0.364 N 
HETATM   38  C22 UNL     1     -28.434   8.500  54.472  1.00  0.00     0.151 C 
HETATM   39  C23 UNL     1     -28.361  10.983  54.960  1.00  0.00     0.151 C 
ENDBRANCH  12  31
TORSDOF 8
ENDMDL
