MODEL 1
REMARK VINA RESULT: -6.891699999      0.000      0.000
REMARK  15 active torsions:
REMARK  status: ('A' for Active; 'I' for Inactive)
REMARK    1  A    between atoms: C3_3  and  C4_4 
REMARK    2  A    between atoms: C4_4  and  C5_5 
REMARK    3  A    between atoms: C5_5  and  C6_6 
REMARK    4  A    between atoms: C7_7  and  C8_8 
REMARK    5  A    between atoms: C8_8  and  C9_9 
REMARK    6  A    between atoms: C9_9  and  C10_10 
REMARK    7  A    between atoms: C12_16  and  C13_17 
REMARK    8  A    between atoms: C13_17  and  N3_18 
REMARK    9  A    between atoms: C13_17  and  C14_22 
REMARK   10  A    between atoms: C14_22  and  N4_23 
REMARK   11  A    between atoms: C19_28  and  C20_29 
REMARK   12  A    between atoms: C21_30  and  C22_31 
REMARK   13  A    between atoms: C22_31  and  C23_32 
REMARK   14  A    between atoms: C23_32  and  N5_33 
REMARK       I    between atoms: N5_33  and  C24_35 
REMARK   15  A    between atoms: N7_42  and  O2_43 
ROOT
HETATM    1  C1  UNL     1     -25.861   9.716  52.010  1.00  0.00     0.112 C 
HETATM    2  C2  UNL     1     -26.836  10.732  52.390  1.00  0.00    -0.111 C 
HETATM    3  C3  UNL     1     -27.627  11.585  52.709  1.00  0.00    -0.107 C 
ENDROOT
BRANCH   3   4
HETATM    4  C4  UNL     1     -28.567  12.629  53.108  1.00  0.00     0.098 C 
BRANCH   4   5
HETATM    5  C5  UNL     1     -29.866  12.035  53.625  1.00  0.00     0.039 C 
BRANCH   5   6
HETATM    6  C6  UNL     1     -29.550  11.397  54.926  1.00  0.00    -0.026 C 
HETATM    7  C7  UNL     1     -29.692  10.123  55.176  1.00  0.00    -0.004 C 
BRANCH   7   8
HETATM    8  C8  UNL     1     -30.175   9.129  54.239  1.00  0.00     0.002 C 
BRANCH   8   9
HETATM    9  C9  UNL     1     -29.337   8.262  53.654  1.00  0.00     0.031 C 
BRANCH   9  10
HETATM   10  C10 UNL     1     -29.775   7.533  52.475  1.00  0.00     0.058 A 
HETATM   11  N1  UNL     1     -30.991   7.536  51.889  1.00  0.00    -0.351 N 
HETATM   12  C11 UNL     1     -31.026   6.743  50.821  1.00  0.00     0.181 A 
ATOM     13  H1  UNL     1     -31.786   8.080  52.224  1.00  0.00     0.166 HD
HETATM   14  N2  UNL     1     -29.784   6.221  50.728  1.00  0.00    -0.352 N 
HETATM   15  C12 UNL     1     -29.010   6.680  51.713  1.00  0.00     0.069 A 
ATOM     16  H2  UNL     1     -29.481   5.566  50.007  1.00  0.00     0.166 HD
BRANCH  15  17
HETATM   17  C13 UNL     1     -27.586   6.366  51.988  1.00  0.00     0.255 C 
BRANCH  17  18
HETATM   18  N3  UNL     1     -27.471   5.599  53.206  1.00  0.00    -0.068 N 
ATOM     19  H33 UNL     1     -28.238   4.934  53.311  1.00  0.00     0.275 HD
ATOM     20  H32 UNL     1     -26.701   4.932  53.165  1.00  0.00     0.275 HD
ATOM     21  H31 UNL     1     -27.394   6.222  54.009  1.00  0.00     0.275 HD
ENDBRANCH  17  18
BRANCH  17  22
HETATM   22  C14 UNL     1     -27.022   5.550  50.858  1.00  0.00     0.187 C 
BRANCH  22  23
HETATM   23  N4  UNL     1     -26.162   6.432  50.053  1.00  0.00    -0.298 N 
HETATM   24  C15 UNL     1     -24.818   6.412  49.986  1.00  0.00     0.146 A 
HETATM   25  C16 UNL     1     -24.377   7.392  49.123  1.00  0.00     0.126 A 
HETATM   26  C17 UNL     1     -25.513   8.013  48.665  1.00  0.00     0.083 A 
HETATM   27  N7  UNL     1     -23.158   7.804  48.697  1.00  0.00    -0.157 N 
HETATM   28  C18 UNL     1     -25.333   9.055  47.765  1.00  0.00     0.074 A 
HETATM   29  N8  UNL     1     -26.538   7.408  49.244  1.00  0.00    -0.296 N 
HETATM   30  C19 UNL     1     -24.082   9.460  47.343  1.00  0.00     0.108 A 
HETATM   31  N6  UNL     1     -23.017   8.801  47.839  1.00  0.00    -0.262 N 
HETATM   32  C28 UNL     1     -21.703   9.243  47.381  1.00  0.00     0.181 C 
ATOM     33  H8  UNL     1     -27.511   7.666  49.083  1.00  0.00     0.187 HD
BRANCH  30  34
HETATM   34  C20 UNL     1     -23.904  10.549  46.403  1.00  0.00    -0.046 C 
HETATM   35  C21 UNL     1     -23.773  11.457  45.638  1.00  0.00    -0.088 C 
BRANCH  35  36
HETATM   36  C22 UNL     1     -23.635  12.584  44.691  1.00  0.00     0.040 A 
HETATM   37  C26 UNL     1     -23.945  13.918  45.270  1.00  0.00     0.026 A 
HETATM   38  C27 UNL     1     -24.887  13.289  44.296  1.00  0.00     0.026 A 
BRANCH  36  39
HETATM   39  C23 UNL     1     -22.618  12.418  43.601  1.00  0.00     0.145 C 
BRANCH  39  40
HETATM   40  N5  UNL     1     -21.605  11.473  43.966  1.00  0.00    -0.360 N 
HETATM   41  C24 UNL     1     -21.365  10.344  43.151  1.00  0.00     0.213 C 
HETATM   42  C25 UNL     1     -20.328   9.374  43.521  1.00  0.00     0.117 C 
HETATM   43  O1  UNL     1     -22.040  10.175  42.113  1.00  0.00    -0.274 OA
ATOM     44  H5  UNL     1     -21.057  11.615  44.815  1.00  0.00     0.162 HD
ENDBRANCH  39  40
ENDBRANCH  36  39
ENDBRANCH  35  36
ENDBRANCH  30  34
BRANCH  27  45
HETATM   45  O2  UNL     1     -22.059   7.145  49.192  1.00  0.00    -0.267 OA
ATOM     46  H2  UNL     1     -21.206   7.531  49.027  1.00  0.00     0.247 HD
ENDBRANCH  27  45
ENDBRANCH  22  23
ENDBRANCH  17  22
ENDBRANCH  15  17
ENDBRANCH   9  10
ENDBRANCH   8   9
ENDBRANCH   7   8
ENDBRANCH   5   6
ENDBRANCH   4   5
ENDBRANCH   3   4
TORSDOF 15
ENDMDL
MODEL 2
REMARK VINA RESULT: -6.503072066      1.409      2.207
REMARK  15 active torsions:
REMARK  status: ('A' for Active; 'I' for Inactive)
REMARK    1  A    between atoms: C3_3  and  C4_4 
REMARK    2  A    between atoms: C4_4  and  C5_5 
REMARK    3  A    between atoms: C5_5  and  C6_6 
REMARK    4  A    between atoms: C7_7  and  C8_8 
REMARK    5  A    between atoms: C8_8  and  C9_9 
REMARK    6  A    between atoms: C9_9  and  C10_10 
REMARK    7  A    between atoms: C12_16  and  C13_17 
REMARK    8  A    between atoms: C13_17  and  N3_18 
REMARK    9  A    between atoms: C13_17  and  C14_22 
REMARK   10  A    between atoms: C14_22  and  N4_23 
REMARK   11  A    between atoms: C19_28  and  C20_29 
REMARK   12  A    between atoms: C21_30  and  C22_31 
REMARK   13  A    between atoms: C22_31  and  C23_32 
REMARK   14  A    between atoms: C23_32  and  N5_33 
REMARK       I    between atoms: N5_33  and  C24_35 
REMARK   15  A    between atoms: N7_42  and  O2_43 
ROOT
HETATM    1  C1  UNL     1     -30.939  10.741  55.746  1.00  0.00     0.112 C 
HETATM    2  C2  UNL     1     -29.978  11.286  54.795  1.00  0.00    -0.111 C 
HETATM    3  C3  UNL     1     -29.193  11.726  53.992  1.00  0.00    -0.107 C 
ENDROOT
BRANCH   3   4
HETATM    4  C4  UNL     1     -28.245  12.239  53.006  1.00  0.00     0.098 C 
BRANCH   4   5
HETATM    5  C5  UNL     1     -26.893  11.560  53.132  1.00  0.00     0.039 C 
BRANCH   5   6
HETATM    6  C6  UNL     1     -26.847  10.514  52.081  1.00  0.00    -0.026 C 
HETATM    7  C7  UNL     1     -27.065   9.245  52.295  1.00  0.00    -0.004 C 
BRANCH   7   8
HETATM    8  C8  UNL     1     -27.387   8.649  53.576  1.00  0.00     0.002 C 
BRANCH   8   9
HETATM    9  C9  UNL     1     -28.111   7.525  53.656  1.00  0.00     0.031 C 
BRANCH   9  10
HETATM   10  C10 UNL     1     -29.011   7.178  52.568  1.00  0.00     0.058 A 
HETATM   11  N1  UNL     1     -30.147   7.800  52.187  1.00  0.00    -0.351 N 
HETATM   12  C11 UNL     1     -30.712   7.197  51.144  1.00  0.00     0.181 A 
ATOM     13  H1  UNL     1     -30.526   8.629  52.643  1.00  0.00     0.166 HD
HETATM   14  N2  UNL     1     -29.902   6.157  50.855  1.00  0.00    -0.352 N 
HETATM   15  C12 UNL     1     -28.869   6.122  51.698  1.00  0.00     0.069 A 
ATOM     16  H2  UNL     1     -30.058   5.491  50.097  1.00  0.00     0.166 HD
BRANCH  15  17
HETATM   17  C13 UNL     1     -27.747   5.152  51.740  1.00  0.00     0.255 C 
BRANCH  17  18
HETATM   18  N3  UNL     1     -28.181   3.914  52.344  1.00  0.00    -0.068 N 
ATOM     19  H33 UNL     1     -28.823   3.400  51.740  1.00  0.00     0.275 HD
ATOM     20  H32 UNL     1     -27.430   3.225  52.384  1.00  0.00     0.275 HD
ATOM     21  H31 UNL     1     -28.584   4.093  53.264  1.00  0.00     0.275 HD
ENDBRANCH  17  18
BRANCH  17  22
HETATM   22  C14 UNL     1     -27.280   4.858  50.340  1.00  0.00     0.187 C 
BRANCH  22  23
HETATM   23  N4  UNL     1     -26.474   6.003  49.887  1.00  0.00    -0.298 N 
HETATM   24  C15 UNL     1     -25.449   6.581  50.540  1.00  0.00     0.146 A 
HETATM   25  C16 UNL     1     -24.947   7.625  49.794  1.00  0.00     0.126 A 
HETATM   26  C17 UNL     1     -25.712   7.659  48.654  1.00  0.00     0.083 A 
HETATM   27  N7  UNL     1     -23.945   8.521  49.967  1.00  0.00    -0.157 N 
HETATM   28  C18 UNL     1     -25.399   8.642  47.723  1.00  0.00     0.074 A 
HETATM   29  N8  UNL     1     -26.598   6.682  48.759  1.00  0.00    -0.296 N 
HETATM   30  C19 UNL     1     -24.374   9.546  47.920  1.00  0.00     0.108 A 
HETATM   31  N6  UNL     1     -23.670   9.447  49.064  1.00  0.00    -0.262 N 
HETATM   32  C28 UNL     1     -22.591  10.411  49.254  1.00  0.00     0.181 C 
ATOM     33  H8  UNL     1     -27.298   6.475  48.048  1.00  0.00     0.187 HD
BRANCH  30  34
HETATM   34  C20 UNL     1     -24.054  10.569  46.943  1.00  0.00    -0.046 C 
HETATM   35  C21 UNL     1     -23.776  11.400  46.132  1.00  0.00    -0.088 C 
BRANCH  35  36
HETATM   36  C22 UNL     1     -23.406  12.422  45.130  1.00  0.00     0.040 A 
HETATM   37  C26 UNL     1     -24.185  13.686  45.221  1.00  0.00     0.026 A 
HETATM   38  C27 UNL     1     -24.422  12.742  44.086  1.00  0.00     0.026 A 
BRANCH  36  39
HETATM   39  C23 UNL     1     -21.982  12.409  44.659  1.00  0.00     0.145 C 
BRANCH  39  40
HETATM   40  N5  UNL     1     -21.069  12.230  45.749  1.00  0.00    -0.360 N 
HETATM   41  C24 UNL     1     -20.415  10.990  45.925  1.00  0.00     0.213 C 
HETATM   42  C25 UNL     1     -19.479  10.801  47.039  1.00  0.00     0.117 C 
HETATM   43  O1  UNL     1     -20.636  10.053  45.127  1.00  0.00    -0.274 OA
ATOM     44  H5  UNL     1     -20.892  12.996  46.397  1.00  0.00     0.162 HD
ENDBRANCH  39  40
ENDBRANCH  36  39
ENDBRANCH  35  36
ENDBRANCH  30  34
BRANCH  27  45
HETATM   45  O2  UNL     1     -23.215   8.437  51.129  1.00  0.00    -0.267 OA
ATOM     46  H2  UNL     1     -22.460   7.860  51.129  1.00  0.00     0.247 HD
ENDBRANCH  27  45
ENDBRANCH  22  23
ENDBRANCH  17  22
ENDBRANCH  15  17
ENDBRANCH   9  10
ENDBRANCH   8   9
ENDBRANCH   7   8
ENDBRANCH   5   6
ENDBRANCH   4   5
ENDBRANCH   3   4
TORSDOF 15
ENDMDL
MODEL 3
REMARK VINA RESULT: -6.136094687      3.358      6.125
REMARK  15 active torsions:
REMARK  status: ('A' for Active; 'I' for Inactive)
REMARK    1  A    between atoms: C3_3  and  C4_4 
REMARK    2  A    between atoms: C4_4  and  C5_5 
REMARK    3  A    between atoms: C5_5  and  C6_6 
REMARK    4  A    between atoms: C7_7  and  C8_8 
REMARK    5  A    between atoms: C8_8  and  C9_9 
REMARK    6  A    between atoms: C9_9  and  C10_10 
REMARK    7  A    between atoms: C12_16  and  C13_17 
REMARK    8  A    between atoms: C13_17  and  N3_18 
REMARK    9  A    between atoms: C13_17  and  C14_22 
REMARK   10  A    between atoms: C14_22  and  N4_23 
REMARK   11  A    between atoms: C19_28  and  C20_29 
REMARK   12  A    between atoms: C21_30  and  C22_31 
REMARK   13  A    between atoms: C22_31  and  C23_32 
REMARK   14  A    between atoms: C23_32  and  N5_33 
REMARK       I    between atoms: N5_33  and  C24_35 
REMARK   15  A    between atoms: N7_42  and  O2_43 
ROOT
HETATM    1  C1  UNL     1     -24.048   3.304  48.159  1.00  0.00     0.112 C 
HETATM    2  C2  UNL     1     -24.563   2.623  46.977  1.00  0.00    -0.111 C 
HETATM    3  C3  UNL     1     -24.991   2.042  46.011  1.00  0.00    -0.107 C 
ENDROOT
BRANCH   3   4
HETATM    4  C4  UNL     1     -25.505   1.318  44.851  1.00  0.00     0.098 C 
BRANCH   4   5
HETATM    5  C5  UNL     1     -27.013   1.457  44.735  1.00  0.00     0.039 C 
BRANCH   5   6
HETATM    6  C6  UNL     1     -27.268   2.789  44.134  1.00  0.00    -0.026 C 
HETATM    7  C7  UNL     1     -27.974   3.730  44.702  1.00  0.00    -0.004 C 
BRANCH   7   8
HETATM    8  C8  UNL     1     -28.619   3.636  45.996  1.00  0.00     0.002 C 
BRANCH   8   9
HETATM    9  C9  UNL     1     -28.022   4.096  47.104  1.00  0.00     0.031 C 
BRANCH   9  10
HETATM   10  C10 UNL     1     -27.973   3.254  48.288  1.00  0.00     0.058 A 
HETATM   11  N1  UNL     1     -27.843   1.912  48.362  1.00  0.00    -0.351 N 
HETATM   12  C11 UNL     1     -27.838   1.486  49.622  1.00  0.00     0.181 A 
ATOM     13  H1  UNL     1     -27.760   1.301  47.550  1.00  0.00     0.166 HD
HETATM   14  N2  UNL     1     -27.968   2.600  50.373  1.00  0.00    -0.352 N 
HETATM   15  C12 UNL     1     -28.052   3.680  49.594  1.00  0.00     0.069 A 
ATOM     16  H2  UNL     1     -27.999   2.614  51.393  1.00  0.00     0.166 HD
BRANCH  15  17
HETATM   17  C13 UNL     1     -28.203   5.099  50.001  1.00  0.00     0.255 C 
BRANCH  17  18
HETATM   18  N3  UNL     1     -29.422   5.273  50.756  1.00  0.00    -0.068 N 
ATOM     19  H33 UNL     1     -29.624   4.466  51.346  1.00  0.00     0.275 HD
ATOM     20  H32 UNL     1     -29.319   5.974  51.491  1.00  0.00     0.275 HD
ATOM     21  H31 UNL     1     -30.197   5.490  50.129  1.00  0.00     0.275 HD
ENDBRANCH  17  18
BRANCH  17  22
HETATM   22  C14 UNL     1     -27.045   5.501  50.872  1.00  0.00     0.187 C 
BRANCH  22  23
HETATM   23  N4  UNL     1     -26.183   6.399  50.086  1.00  0.00    -0.298 N 
HETATM   24  C15 UNL     1     -24.838   6.428  50.079  1.00  0.00     0.146 A 
HETATM   25  C16 UNL     1     -24.394   7.406  49.215  1.00  0.00     0.126 A 
HETATM   26  C17 UNL     1     -25.532   7.974  48.694  1.00  0.00     0.083 A 
HETATM   27  N7  UNL     1     -23.174   7.855  48.833  1.00  0.00    -0.157 N 
HETATM   28  C18 UNL     1     -25.350   9.004  47.781  1.00  0.00     0.074 A 
HETATM   29  N8  UNL     1     -26.558   7.343  49.241  1.00  0.00    -0.296 N 
HETATM   30  C19 UNL     1     -24.097   9.447  47.405  1.00  0.00     0.108 A 
HETATM   31  N6  UNL     1     -23.032   8.839  47.961  1.00  0.00    -0.262 N 
HETATM   32  C28 UNL     1     -21.716   9.321  47.552  1.00  0.00     0.181 C 
ATOM     33  H8  UNL     1     -27.532   7.561  49.032  1.00  0.00     0.187 HD
BRANCH  30  34
HETATM   34  C20 UNL     1     -23.917  10.523  46.450  1.00  0.00    -0.046 C 
HETATM   35  C21 UNL     1     -23.752  11.416  45.674  1.00  0.00    -0.088 C 
BRANCH  35  36
HETATM   36  C22 UNL     1     -23.536  12.533  44.731  1.00  0.00     0.040 A 
HETATM   37  C26 UNL     1     -23.895  13.873  45.269  1.00  0.00     0.026 A 
HETATM   38  C27 UNL     1     -24.751  13.233  44.224  1.00  0.00     0.026 A 
BRANCH  36  39
HETATM   39  C23 UNL     1     -22.430  12.359  43.732  1.00  0.00     0.145 C 
BRANCH  39  40
HETATM   40  N5  UNL     1     -21.161  12.732  44.283  1.00  0.00    -0.360 N 
HETATM   41  C24 UNL     1     -20.219  11.736  44.623  1.00  0.00     0.213 C 
HETATM   42  C25 UNL     1     -18.917  12.114  45.187  1.00  0.00     0.117 C 
HETATM   43  O1  UNL     1     -20.498  10.531  44.443  1.00  0.00    -0.274 OA
ATOM     44  H5  UNL     1     -20.938  13.717  44.428  1.00  0.00     0.162 HD
ENDBRANCH  39  40
ENDBRANCH  36  39
ENDBRANCH  35  36
ENDBRANCH  30  34
BRANCH  27  45
HETATM   45  O2  UNL     1     -22.074   7.248  49.390  1.00  0.00    -0.267 OA
ATOM     46  H2  UNL     1     -21.300   7.163  48.846  1.00  0.00     0.247 HD
ENDBRANCH  27  45
ENDBRANCH  22  23
ENDBRANCH  17  22
ENDBRANCH  15  17
ENDBRANCH   9  10
ENDBRANCH   8   9
ENDBRANCH   7   8
ENDBRANCH   5   6
ENDBRANCH   4   5
ENDBRANCH   3   4
TORSDOF 15
ENDMDL
MODEL 4
REMARK VINA RESULT: -6.066613027      2.228      3.284
REMARK  15 active torsions:
REMARK  status: ('A' for Active; 'I' for Inactive)
REMARK    1  A    between atoms: C3_3  and  C4_4 
REMARK    2  A    between atoms: C4_4  and  C5_5 
REMARK    3  A    between atoms: C5_5  and  C6_6 
REMARK    4  A    between atoms: C7_7  and  C8_8 
REMARK    5  A    between atoms: C8_8  and  C9_9 
REMARK    6  A    between atoms: C9_9  and  C10_10 
REMARK    7  A    between atoms: C12_16  and  C13_17 
REMARK    8  A    between atoms: C13_17  and  N3_18 
REMARK    9  A    between atoms: C13_17  and  C14_22 
REMARK   10  A    between atoms: C14_22  and  N4_23 
REMARK   11  A    between atoms: C19_28  and  C20_29 
REMARK   12  A    between atoms: C21_30  and  C22_31 
REMARK   13  A    between atoms: C22_31  and  C23_32 
REMARK   14  A    between atoms: C23_32  and  N5_33 
REMARK       I    between atoms: N5_33  and  C24_35 
REMARK   15  A    between atoms: N7_42  and  O2_43 
ROOT
HETATM    1  C1  UNL     1     -31.201  10.371  57.077  1.00  0.00     0.112 C 
HETATM    2  C2  UNL     1     -30.794  10.883  55.774  1.00  0.00    -0.111 C 
HETATM    3  C3  UNL     1     -30.444  11.291  54.694  1.00  0.00    -0.107 C 
ENDROOT
BRANCH   3   4
HETATM    4  C4  UNL     1     -29.999  11.773  53.388  1.00  0.00     0.098 C 
BRANCH   4   5
HETATM    5  C5  UNL     1     -28.743  12.617  53.509  1.00  0.00     0.039 C 
BRANCH   5   6
HETATM    6  C6  UNL     1     -27.692  11.924  52.724  1.00  0.00    -0.026 C 
HETATM    7  C7  UNL     1     -26.941  10.961  53.188  1.00  0.00    -0.004 C 
BRANCH   7   8
HETATM    8  C8  UNL     1     -27.006  10.413  54.528  1.00  0.00     0.002 C 
BRANCH   8   9
HETATM    9  C9  UNL     1     -26.039   9.614  54.998  1.00  0.00     0.031 C 
BRANCH   9  10
HETATM   10  C10 UNL     1     -26.401   8.369  55.656  1.00  0.00     0.058 A 
HETATM   11  N1  UNL     1     -27.028   8.195  56.839  1.00  0.00    -0.351 N 
HETATM   12  C11 UNL     1     -27.192   6.906  57.125  1.00  0.00     0.181 A 
ATOM     13  H1  UNL     1     -27.337   8.959  57.440  1.00  0.00     0.166 HD
HETATM   14  N2  UNL     1     -26.650   6.241  56.083  1.00  0.00    -0.352 N 
HETATM   15  C12 UNL     1     -26.165   7.098  55.183  1.00  0.00     0.069 A 
ATOM     16  H2  UNL     1     -26.616   5.225  55.995  1.00  0.00     0.166 HD
BRANCH  15  17
HETATM   17  C13 UNL     1     -25.489   6.799  53.897  1.00  0.00     0.255 C 
BRANCH  17  18
HETATM   18  N3  UNL     1     -25.126   5.402  53.838  1.00  0.00    -0.068 N 
ATOM     19  H33 UNL     1     -25.662   4.841  54.500  1.00  0.00     0.275 HD
ATOM     20  H32 UNL     1     -25.444   4.961  52.975  1.00  0.00     0.275 HD
ATOM     21  H31 UNL     1     -24.121   5.294  53.973  1.00  0.00     0.275 HD
ENDBRANCH  17  18
BRANCH  17  22
HETATM   22  C14 UNL     1     -26.422   7.095  52.754  1.00  0.00     0.187 C 
BRANCH  22  23
HETATM   23  N4  UNL     1     -25.659   7.827  51.730  1.00  0.00    -0.298 N 
HETATM   24  C15 UNL     1     -24.332   8.045  51.712  1.00  0.00     0.146 A 
HETATM   25  C16 UNL     1     -23.991   8.770  50.590  1.00  0.00     0.126 A 
HETATM   26  C17 UNL     1     -25.173   8.986  49.924  1.00  0.00     0.083 A 
HETATM   27  N7  UNL     1     -22.829   9.253  50.087  1.00  0.00    -0.157 N 
HETATM   28  C18 UNL     1     -25.097   9.708  48.740  1.00  0.00     0.074 A 
HETATM   29  N8  UNL     1     -26.125   8.409  50.639  1.00  0.00    -0.296 N 
HETATM   30  C19 UNL     1     -23.902  10.191  48.244  1.00  0.00     0.108 A 
HETATM   31  N6  UNL     1     -22.787   9.937  48.957  1.00  0.00    -0.262 N 
HETATM   32  C28 UNL     1     -21.534  10.456  48.417  1.00  0.00     0.181 C 
ATOM     33  H8  UNL     1     -27.110   8.413  50.376  1.00  0.00     0.187 HD
BRANCH  30  34
HETATM   34  C20 UNL     1     -23.831  10.944  47.007  1.00  0.00    -0.046 C 
HETATM   35  C21 UNL     1     -23.766  11.547  45.978  1.00  0.00    -0.088 C 
BRANCH  35  36
HETATM   36  C22 UNL     1     -23.666  12.280  44.699  1.00  0.00     0.040 A 
HETATM   37  C26 UNL     1     -23.892  13.746  44.807  1.00  0.00     0.026 A 
HETATM   38  C27 UNL     1     -24.922  12.876  44.162  1.00  0.00     0.026 A 
BRANCH  36  39
HETATM   39  C23 UNL     1     -22.737  11.703  43.671  1.00  0.00     0.145 C 
BRANCH  39  40
HETATM   40  N5  UNL     1     -21.449  12.329  43.716  1.00  0.00    -0.360 N 
HETATM   41  C24 UNL     1     -20.386  11.707  44.408  1.00  0.00     0.213 C 
HETATM   42  C25 UNL     1     -19.064  12.344  44.457  1.00  0.00     0.117 C 
HETATM   43  O1  UNL     1     -20.574  10.611  44.980  1.00  0.00    -0.274 OA
ATOM     44  H5  UNL     1     -21.299  13.223  43.249  1.00  0.00     0.162 HD
ENDBRANCH  39  40
ENDBRANCH  36  39
ENDBRANCH  35  36
ENDBRANCH  30  34
BRANCH  27  45
HETATM   45  O2  UNL     1     -21.680   9.004  50.799  1.00  0.00    -0.267 OA
ATOM     46  H2  UNL     1     -21.706   8.303  51.439  1.00  0.00     0.247 HD
ENDBRANCH  27  45
ENDBRANCH  22  23
ENDBRANCH  17  22
ENDBRANCH  15  17
ENDBRANCH   9  10
ENDBRANCH   8   9
ENDBRANCH   7   8
ENDBRANCH   5   6
ENDBRANCH   4   5
ENDBRANCH   3   4
TORSDOF 15
ENDMDL
MODEL 5
REMARK VINA RESULT: -5.996041909      4.150      6.491
REMARK  15 active torsions:
REMARK  status: ('A' for Active; 'I' for Inactive)
REMARK    1  A    between atoms: C3_3  and  C4_4 
REMARK    2  A    between atoms: C4_4  and  C5_5 
REMARK    3  A    between atoms: C5_5  and  C6_6 
REMARK    4  A    between atoms: C7_7  and  C8_8 
REMARK    5  A    between atoms: C8_8  and  C9_9 
REMARK    6  A    between atoms: C9_9  and  C10_10 
REMARK    7  A    between atoms: C12_16  and  C13_17 
REMARK    8  A    between atoms: C13_17  and  N3_18 
REMARK    9  A    between atoms: C13_17  and  C14_22 
REMARK   10  A    between atoms: C14_22  and  N4_23 
REMARK   11  A    between atoms: C19_28  and  C20_29 
REMARK   12  A    between atoms: C21_30  and  C22_31 
REMARK   13  A    between atoms: C22_31  and  C23_32 
REMARK   14  A    between atoms: C23_32  and  N5_33 
REMARK       I    between atoms: N5_33  and  C24_35 
REMARK   15  A    between atoms: N7_42  and  O2_43 
ROOT
HETATM    1  C1  UNL     1     -29.468   2.226  40.312  1.00  0.00     0.112 C 
HETATM    2  C2  UNL     1     -29.882   1.885  41.668  1.00  0.00    -0.111 C 
HETATM    3  C3  UNL     1     -30.243   1.597  42.782  1.00  0.00    -0.107 C 
ENDROOT
BRANCH   3   4
HETATM    4  C4  UNL     1     -30.702   1.249  44.124  1.00  0.00     0.098 C 
BRANCH   4   5
HETATM    5  C5  UNL     1     -30.210   2.251  45.154  1.00  0.00     0.039 C 
BRANCH   5   6
HETATM    6  C6  UNL     1     -28.752   2.403  44.931  1.00  0.00    -0.026 C 
HETATM    7  C7  UNL     1     -28.018   3.341  45.468  1.00  0.00    -0.004 C 
BRANCH   7   8
HETATM    8  C8  UNL     1     -28.496   4.377  46.362  1.00  0.00     0.002 C 
BRANCH   8   9
HETATM    9  C9  UNL     1     -28.028   4.485  47.612  1.00  0.00     0.031 C 
BRANCH   9  10
HETATM   10  C10 UNL     1     -28.747   3.842  48.700  1.00  0.00     0.058 A 
HETATM   11  N1  UNL     1     -29.365   2.642  48.706  1.00  0.00    -0.351 N 
HETATM   12  C11 UNL     1     -29.922   2.380  49.885  1.00  0.00     0.181 A 
ATOM     13  H1  UNL     1     -29.400   2.013  47.904  1.00  0.00     0.166 HD
HETATM   14  N2  UNL     1     -29.645   3.455  50.654  1.00  0.00    -0.352 N 
HETATM   15  C12 UNL     1     -28.938   4.351  49.964  1.00  0.00     0.069 A 
ATOM     16  H2  UNL     1     -29.935   3.566  51.625  1.00  0.00     0.166 HD
BRANCH  15  17
HETATM   17  C13 UNL     1     -28.426   5.668  50.419  1.00  0.00     0.255 C 
BRANCH  17  18
HETATM   18  N3  UNL     1     -29.241   6.173  51.499  1.00  0.00    -0.068 N 
ATOM     19  H33 UNL     1     -29.912   6.869  51.177  1.00  0.00     0.275 HD
ATOM     20  H32 UNL     1     -29.902   5.473  51.838  1.00  0.00     0.275 HD
ATOM     21  H31 UNL     1     -28.649   6.532  52.249  1.00  0.00     0.275 HD
ENDBRANCH  17  18
BRANCH  17  22
HETATM   22  C14 UNL     1     -27.015   5.515  50.920  1.00  0.00     0.187 C 
BRANCH  22  23
HETATM   23  N4  UNL     1     -26.159   6.413  50.129  1.00  0.00    -0.298 N 
HETATM   24  C15 UNL     1     -24.813   6.442  50.114  1.00  0.00     0.146 A 
HETATM   25  C16 UNL     1     -24.375   7.420  49.247  1.00  0.00     0.126 A 
HETATM   26  C17 UNL     1     -25.516   7.988  48.733  1.00  0.00     0.083 A 
HETATM   27  N7  UNL     1     -23.157   7.869  48.857  1.00  0.00    -0.157 N 
HETATM   28  C18 UNL     1     -25.340   9.018  47.818  1.00  0.00     0.074 A 
HETATM   29  N8  UNL     1     -26.539   7.357  49.286  1.00  0.00    -0.296 N 
HETATM   30  C19 UNL     1     -24.089   9.460  47.434  1.00  0.00     0.108 A 
HETATM   31  N6  UNL     1     -23.021   8.852  47.984  1.00  0.00    -0.262 N 
HETATM   32  C28 UNL     1     -21.707   9.334  47.567  1.00  0.00     0.181 C 
ATOM     33  H8  UNL     1     -27.514   7.575  49.083  1.00  0.00     0.187 HD
BRANCH  30  34
HETATM   34  C20 UNL     1     -23.915  10.537  46.479  1.00  0.00    -0.046 C 
HETATM   35  C21 UNL     1     -23.754  11.429  45.701  1.00  0.00    -0.088 C 
BRANCH  35  36
HETATM   36  C22 UNL     1     -23.543  12.546  44.757  1.00  0.00     0.040 A 
HETATM   37  C26 UNL     1     -23.870  13.889  45.306  1.00  0.00     0.026 A 
HETATM   38  C27 UNL     1     -24.758  13.265  44.279  1.00  0.00     0.026 A 
BRANCH  36  39
HETATM   39  C23 UNL     1     -22.462  12.358  43.733  1.00  0.00     0.145 C 
BRANCH  39  40
HETATM   40  N5  UNL     1     -21.180  12.738  44.246  1.00  0.00    -0.360 N 
HETATM   41  C24 UNL     1     -20.233  11.746  44.587  1.00  0.00     0.213 C 
HETATM   42  C25 UNL     1     -18.918  12.130  45.112  1.00  0.00     0.117 C 
HETATM   43  O1  UNL     1     -20.520  10.538  44.438  1.00  0.00    -0.274 OA
ATOM     44  H5  UNL     1     -20.950  13.724  44.366  1.00  0.00     0.162 HD
ENDBRANCH  39  40
ENDBRANCH  36  39
ENDBRANCH  35  36
ENDBRANCH  30  34
BRANCH  27  45
HETATM   45  O2  UNL     1     -22.054   7.261  49.407  1.00  0.00    -0.267 OA
ATOM     46  H2  UNL     1     -21.616   6.598  48.887  1.00  0.00     0.247 HD
ENDBRANCH  27  45
ENDBRANCH  22  23
ENDBRANCH  17  22
ENDBRANCH  15  17
ENDBRANCH   9  10
ENDBRANCH   8   9
ENDBRANCH   7   8
ENDBRANCH   5   6
ENDBRANCH   4   5
ENDBRANCH   3   4
TORSDOF 15
ENDMDL
