MODEL 1
REMARK VINA RESULT: -7.699149746      0.000      0.000
REMARK  10 active torsions:
REMARK  status: ('A' for Active; 'I' for Inactive)
REMARK    1  A    between atoms: C5_7  and  C6_8 
REMARK    2  A    between atoms: C6_8  and  C7_9 
REMARK    3  A    between atoms: C8_12  and  C9_13 
REMARK    4  A    between atoms: C9_13  and  C10_14 
REMARK    5  A    between atoms: C10_14  and  C11_15 
REMARK    6  A    between atoms: C11_15  and  C12_16 
REMARK    7  A    between atoms: C15_19  and  C16_20 
REMARK    8  A    between atoms: C16_20  and  C17_21 
REMARK    9  A    between atoms: C19_23  and  O1_24 
REMARK   10  A    between atoms: N3_34  and  C27_35 
ROOT
HETATM    1  C1  UNL     1     -24.190  13.761  44.369  1.00  0.00     0.019 C 
HETATM    2  C2  UNL     1     -23.225  13.084  44.676  1.00  0.00    -0.057 C 
HETATM    3  C3  UNL     1     -22.082  12.276  45.009  1.00  0.00     0.116 C 
HETATM    4  C4  UNL     1     -22.330  11.347  45.939  1.00  0.00     0.084 A 
HETATM    5  N1  UNL     1     -23.570  11.274  46.440  1.00  0.00    -0.353 N 
ATOM      6  H1  UNL     1     -24.341  11.882  46.166  1.00  0.00     0.166 HD
HETATM    7  C5  UNL     1     -23.662  10.282  47.363  1.00  0.00     0.035 A 
HETATM    8  C24 UNL     1     -22.414   9.720  47.427  1.00  0.00     0.049 A 
HETATM    9  C25 UNL     1     -21.584  10.376  46.548  1.00  0.00     0.064 A 
HETATM   10  C26 UNL     1     -20.186   9.973  46.429  1.00  0.00     0.262 C 
HETATM   11  O2  UNL     1     -20.059   8.746  46.767  1.00  0.00    -0.267 OA
HETATM   12  N3  UNL     1     -18.956  10.569  46.043  1.00  0.00    -0.282 N 
HETATM   13  C28 UNL     1     -18.624  11.852  45.470  1.00  0.00     0.237 C 
HETATM   14  C29 UNL     1     -19.506  12.284  44.383  1.00  0.00     0.241 C 
HETATM   15  O4  UNL     1     -18.918  12.407  43.255  1.00  0.00    -0.271 OA
HETATM   16  N4  UNL     1     -20.887  12.601  44.296  1.00  0.00    -0.317 N 
ATOM     17  H4  UNL     1     -21.077  13.230  43.516  1.00  0.00     0.169 HD
ENDROOT
BRANCH   7  18
HETATM   18  C6  UNL     1     -24.745   9.957  48.051  1.00  0.00     0.059 C 
BRANCH  18  19
HETATM   19  C7  UNL     1     -24.584   9.164  49.263  1.00  0.00     0.040 A 
HETATM   20  N2  UNL     1     -23.892   9.531  50.363  1.00  0.00    -0.359 N 
HETATM   21  C8  UNL     1     -23.959   8.550  51.308  1.00  0.00     0.010 A 
ATOM     22  H2  UNL     1     -23.392  10.413  50.471  1.00  0.00     0.166 HD
HETATM   23  C21 UNL     1     -24.724   7.554  50.755  1.00  0.00     0.034 A 
HETATM   24  C22 UNL     1     -25.130   7.918  49.466  1.00  0.00    -0.033 A 
HETATM   25  C23 UNL     1     -25.971   7.097  48.551  1.00  0.00     0.050 C 
BRANCH  21  26
HETATM   26  C9  UNL     1     -23.295   8.636  52.642  1.00  0.00     0.057 C 
BRANCH  26  27
HETATM   27  C10 UNL     1     -24.337   8.919  53.700  1.00  0.00     0.011 C 
BRANCH  27  28
HETATM   28  C11 UNL     1     -24.597  10.393  53.859  1.00  0.00     0.039 C 
BRANCH  28  29
HETATM   29  C12 UNL     1     -26.046  10.661  54.033  1.00  0.00    -0.056 A 
HETATM   30  C13 UNL     1     -26.757  10.004  55.026  1.00  0.00     0.008 A 
HETATM   31  C14 UNL     1     -28.100  10.308  55.125  1.00  0.00     0.011 A 
HETATM   32  C15 UNL     1     -28.741  11.217  54.295  1.00  0.00    -0.022 A 
HETATM   33  C19 UNL     1     -27.998  11.846  53.326  1.00  0.00     0.072 A 
HETATM   34  C20 UNL     1     -26.641  11.571  53.187  1.00  0.00     0.044 A 
BRANCH  32  35
HETATM   35  C16 UNL     1     -30.201  11.472  54.505  1.00  0.00     0.067 C 
BRANCH  35  36
HETATM   36  C17 UNL     1     -30.818  10.594  55.503  1.00  0.00    -0.032 C 
HETATM   37  C18 UNL     1     -31.348  11.009  56.627  1.00  0.00     0.007 C 
ENDBRANCH  35  36
ENDBRANCH  32  35
BRANCH  33  38
HETATM   38  O1  UNL     1     -28.616  12.752  52.491  1.00  0.00    -0.360 OA
ATOM     39  H1  UNL     1     -28.958  13.559  52.857  1.00  0.00     0.217 HD
ENDBRANCH  33  38
ENDBRANCH  28  29
ENDBRANCH  27  28
ENDBRANCH  26  27
ENDBRANCH  21  26
ENDBRANCH  18  19
ENDBRANCH   7  18
BRANCH  12  40
HETATM   40  C27 UNL     1     -17.857   9.716  46.282  1.00  0.00     0.358 C 
HETATM   41  O3  UNL     1     -16.858  10.215  46.903  1.00  0.00    -0.283 OA
ENDBRANCH  12  40
TORSDOF 10
ENDMDL
MODEL 2
REMARK VINA RESULT: -7.668313317      4.284      8.376
REMARK  10 active torsions:
REMARK  status: ('A' for Active; 'I' for Inactive)
REMARK    1  A    between atoms: C5_7  and  C6_8 
REMARK    2  A    between atoms: C6_8  and  C7_9 
REMARK    3  A    between atoms: C8_12  and  C9_13 
REMARK    4  A    between atoms: C9_13  and  C10_14 
REMARK    5  A    between atoms: C10_14  and  C11_15 
REMARK    6  A    between atoms: C11_15  and  C12_16 
REMARK    7  A    between atoms: C15_19  and  C16_20 
REMARK    8  A    between atoms: C16_20  and  C17_21 
REMARK    9  A    between atoms: C19_23  and  O1_24 
REMARK   10  A    between atoms: N3_34  and  C27_35 
ROOT
HETATM    1  C1  UNL     1     -19.935  10.404  50.430  1.00  0.00     0.019 C 
HETATM    2  C2  UNL     1     -20.325  10.558  49.286  1.00  0.00    -0.057 C 
HETATM    3  C3  UNL     1     -20.778  10.770  47.937  1.00  0.00     0.116 C 
HETATM    4  C4  UNL     1     -22.060  10.438  47.740  1.00  0.00     0.084 A 
HETATM    5  N1  UNL     1     -22.754   9.963  48.782  1.00  0.00    -0.353 N 
ATOM      6  H1  UNL     1     -22.373   9.830  49.718  1.00  0.00     0.166 HD
HETATM    7  C5  UNL     1     -24.033   9.681  48.424  1.00  0.00     0.035 A 
HETATM    8  C24 UNL     1     -24.124  10.002  47.095  1.00  0.00     0.049 A 
HETATM    9  C25 UNL     1     -22.904  10.471  46.665  1.00  0.00     0.064 A 
HETATM   10  C26 UNL     1     -22.730  10.877  45.274  1.00  0.00     0.262 C 
HETATM   11  O2  UNL     1     -23.856  11.231  44.782  1.00  0.00    -0.267 OA
HETATM   12  N3  UNL     1     -21.664  10.983  44.342  1.00  0.00    -0.282 N 
HETATM   13  C28 UNL     1     -20.233  10.833  44.467  1.00  0.00     0.237 C 
HETATM   14  C29 UNL     1     -19.649  11.477  45.646  1.00  0.00     0.241 C 
HETATM   15  O4  UNL     1     -18.829  12.418  45.370  1.00  0.00    -0.271 OA
HETATM   16  N4  UNL     1     -19.791  11.293  47.046  1.00  0.00    -0.317 N 
ATOM     17  H4  UNL     1     -18.969  11.622  47.551  1.00  0.00     0.169 HD
ENDROOT
BRANCH   7  18
HETATM   18  C6  UNL     1     -24.972   9.187  49.214  1.00  0.00     0.059 C 
BRANCH  18  19
HETATM   19  C7  UNL     1     -25.342   7.785  49.061  1.00  0.00     0.040 A 
HETATM   20  N2  UNL     1     -26.478   7.324  48.495  1.00  0.00    -0.359 N 
HETATM   21  C8  UNL     1     -26.491   5.961  48.514  1.00  0.00     0.010 A 
ATOM     22  H2  UNL     1     -27.219   7.910  48.110  1.00  0.00     0.166 HD
HETATM   23  C21 UNL     1     -25.314   5.587  49.113  1.00  0.00     0.034 A 
HETATM   24  C22 UNL     1     -24.573   6.720  49.467  1.00  0.00    -0.033 A 
HETATM   25  C23 UNL     1     -23.243   6.719  50.137  1.00  0.00     0.050 C 
BRANCH  21  26
HETATM   26  C9  UNL     1     -27.608   5.133  47.970  1.00  0.00     0.057 C 
BRANCH  26  27
HETATM   27  C10 UNL     1     -27.193   3.680  47.960  1.00  0.00     0.011 C 
BRANCH  27  28
HETATM   28  C11 UNL     1     -27.934   2.886  46.918  1.00  0.00     0.039 C 
BRANCH  28  29
HETATM   29  C12 UNL     1     -27.216   2.914  45.619  1.00  0.00    -0.056 A 
HETATM   30  C13 UNL     1     -25.878   2.558  45.560  1.00  0.00     0.008 A 
HETATM   31  C14 UNL     1     -25.282   2.608  44.317  1.00  0.00     0.011 A 
HETATM   32  C15 UNL     1     -25.951   2.989  43.162  1.00  0.00    -0.022 A 
HETATM   33  C19 UNL     1     -27.276   3.333  43.266  1.00  0.00     0.072 A 
HETATM   34  C20 UNL     1     -27.921   3.299  44.499  1.00  0.00     0.044 A 
BRANCH  32  35
HETATM   35  C16 UNL     1     -25.201   2.995  41.867  1.00  0.00     0.067 C 
BRANCH  35  36
HETATM   36  C17 UNL     1     -24.707   4.319  41.476  1.00  0.00    -0.032 C 
HETATM   37  C18 UNL     1     -23.529   4.795  41.798  1.00  0.00     0.007 C 
ENDBRANCH  35  36
ENDBRANCH  32  35
BRANCH  33  38
HETATM   38  O1  UNL     1     -27.960   3.715  42.132  1.00  0.00    -0.360 OA
ATOM     39  H1  UNL     1     -28.436   3.059  41.636  1.00  0.00     0.217 HD
ENDBRANCH  33  38
ENDBRANCH  28  29
ENDBRANCH  27  28
ENDBRANCH  26  27
ENDBRANCH  21  26
ENDBRANCH  18  19
ENDBRANCH   7  18
BRANCH  12  40
HETATM   40  C27 UNL     1     -22.124  11.295  43.044  1.00  0.00     0.358 C 
HETATM   41  O3  UNL     1     -22.102  10.356  42.178  1.00  0.00    -0.283 OA
ENDBRANCH  12  40
TORSDOF 10
ENDMDL
MODEL 3
REMARK VINA RESULT: -7.644557564      4.166      8.248
REMARK  10 active torsions:
REMARK  status: ('A' for Active; 'I' for Inactive)
REMARK    1  A    between atoms: C5_7  and  C6_8 
REMARK    2  A    between atoms: C6_8  and  C7_9 
REMARK    3  A    between atoms: C8_12  and  C9_13 
REMARK    4  A    between atoms: C9_13  and  C10_14 
REMARK    5  A    between atoms: C10_14  and  C11_15 
REMARK    6  A    between atoms: C11_15  and  C12_16 
REMARK    7  A    between atoms: C15_19  and  C16_20 
REMARK    8  A    between atoms: C16_20  and  C17_21 
REMARK    9  A    between atoms: C19_23  and  O1_24 
REMARK   10  A    between atoms: N3_34  and  C27_35 
ROOT
HETATM    1  C1  UNL     1     -19.964  10.551  50.452  1.00  0.00     0.019 C 
HETATM    2  C2  UNL     1     -20.341  10.674  49.301  1.00  0.00    -0.057 C 
HETATM    3  C3  UNL     1     -20.777  10.849  47.941  1.00  0.00     0.116 C 
HETATM    4  C4  UNL     1     -22.068  10.556  47.747  1.00  0.00     0.084 A 
HETATM    5  N1  UNL     1     -22.786  10.148  48.801  1.00  0.00    -0.353 N 
ATOM      6  H1  UNL     1     -22.417  10.039  49.745  1.00  0.00     0.166 HD
HETATM    7  C5  UNL     1     -24.073   9.899  48.443  1.00  0.00     0.035 A 
HETATM    8  C24 UNL     1     -24.143  10.171  47.102  1.00  0.00     0.049 A 
HETATM    9  C25 UNL     1     -22.904  10.577  46.665  1.00  0.00     0.064 A 
HETATM   10  C26 UNL     1     -22.706  10.922  45.260  1.00  0.00     0.262 C 
HETATM   11  O2  UNL     1     -23.815  11.297  44.745  1.00  0.00    -0.267 OA
HETATM   12  N3  UNL     1     -21.630  10.952  44.333  1.00  0.00    -0.282 N 
HETATM   13  C28 UNL     1     -20.206  10.755  44.475  1.00  0.00     0.237 C 
HETATM   14  C29 UNL     1     -19.607  11.424  45.633  1.00  0.00     0.241 C 
HETATM   15  O4  UNL     1     -18.751  12.321  45.327  1.00  0.00    -0.271 OA
HETATM   16  N4  UNL     1     -19.765  11.300  47.038  1.00  0.00    -0.317 N 
ATOM     17  H4  UNL     1     -18.935  11.618  47.537  1.00  0.00     0.169 HD
ENDROOT
BRANCH   7  18
HETATM   18  C6  UNL     1     -25.035   9.471  49.245  1.00  0.00     0.059 C 
BRANCH  18  19
HETATM   19  C7  UNL     1     -25.361   8.051  49.241  1.00  0.00     0.040 A 
HETATM   20  N2  UNL     1     -26.368   7.472  48.552  1.00  0.00    -0.359 N 
HETATM   21  C8  UNL     1     -26.376   6.127  48.775  1.00  0.00     0.010 A 
ATOM     22  H2  UNL     1     -27.026   7.969  47.952  1.00  0.00     0.166 HD
HETATM   23  C21 UNL     1     -25.330   5.887  49.632  1.00  0.00     0.034 A 
HETATM   24  C22 UNL     1     -24.675   7.085  49.940  1.00  0.00    -0.033 A 
HETATM   25  C23 UNL     1     -23.495   7.229  50.837  1.00  0.00     0.050 C 
BRANCH  21  26
HETATM   26  C9  UNL     1     -27.366   5.190  48.168  1.00  0.00     0.057 C 
BRANCH  26  27
HETATM   27  C10 UNL     1     -26.825   3.780  48.234  1.00  0.00     0.011 C 
BRANCH  27  28
HETATM   28  C11 UNL     1     -27.633   2.823  47.399  1.00  0.00     0.039 C 
BRANCH  28  29
HETATM   29  C12 UNL     1     -27.259   2.924  45.967  1.00  0.00    -0.056 A 
HETATM   30  C13 UNL     1     -28.173   3.414  45.046  1.00  0.00     0.008 A 
HETATM   31  C14 UNL     1     -27.750   3.478  43.734  1.00  0.00     0.011 A 
HETATM   32  C15 UNL     1     -26.486   3.085  43.318  1.00  0.00    -0.022 A 
HETATM   33  C19 UNL     1     -25.612   2.607  44.263  1.00  0.00     0.072 A 
HETATM   34  C20 UNL     1     -25.993   2.522  45.599  1.00  0.00     0.044 A 
BRANCH  32  35
HETATM   35  C16 UNL     1     -26.137   3.211  41.868  1.00  0.00     0.067 C 
BRANCH  35  36
HETATM   36  C17 UNL     1     -25.738   4.564  41.470  1.00  0.00    -0.032 C 
HETATM   37  C18 UNL     1     -24.519   5.035  41.569  1.00  0.00     0.007 C 
ENDBRANCH  35  36
ENDBRANCH  32  35
BRANCH  33  38
HETATM   38  O1  UNL     1     -24.352   2.211  43.871  1.00  0.00    -0.360 OA
ATOM     39  H1  UNL     1     -23.598   2.713  44.160  1.00  0.00     0.217 HD
ENDBRANCH  33  38
ENDBRANCH  28  29
ENDBRANCH  27  28
ENDBRANCH  26  27
ENDBRANCH  21  26
ENDBRANCH  18  19
ENDBRANCH   7  18
BRANCH  12  40
HETATM   40  C27 UNL     1     -22.069  11.229  43.020  1.00  0.00     0.358 C 
HETATM   41  O3  UNL     1     -22.089  10.254  42.196  1.00  0.00    -0.283 OA
ENDBRANCH  12  40
TORSDOF 10
ENDMDL
MODEL 4
REMARK VINA RESULT: -7.614133953      2.689      4.275
REMARK  10 active torsions:
REMARK  status: ('A' for Active; 'I' for Inactive)
REMARK    1  A    between atoms: C5_7  and  C6_8 
REMARK    2  A    between atoms: C6_8  and  C7_9 
REMARK    3  A    between atoms: C8_12  and  C9_13 
REMARK    4  A    between atoms: C9_13  and  C10_14 
REMARK    5  A    between atoms: C10_14  and  C11_15 
REMARK    6  A    between atoms: C11_15  and  C12_16 
REMARK    7  A    between atoms: C15_19  and  C16_20 
REMARK    8  A    between atoms: C16_20  and  C17_21 
REMARK    9  A    between atoms: C19_23  and  O1_24 
REMARK   10  A    between atoms: N3_34  and  C27_35 
ROOT
HETATM    1  C1  UNL     1     -19.954  10.480  50.414  1.00  0.00     0.019 C 
HETATM    2  C2  UNL     1     -20.329  10.621  49.264  1.00  0.00    -0.057 C 
HETATM    3  C3  UNL     1     -20.763  10.818  47.906  1.00  0.00     0.116 C 
HETATM    4  C4  UNL     1     -22.048  10.506  47.700  1.00  0.00     0.084 A 
HETATM    5  N1  UNL     1     -22.762  10.060  48.742  1.00  0.00    -0.353 N 
ATOM      6  H1  UNL     1     -22.394   9.937  49.685  1.00  0.00     0.166 HD
HETATM    7  C5  UNL     1     -24.042   9.795  48.374  1.00  0.00     0.035 A 
HETATM    8  C24 UNL     1     -24.112  10.095  47.039  1.00  0.00     0.049 A 
HETATM    9  C25 UNL     1     -22.880  10.535  46.616  1.00  0.00     0.064 A 
HETATM   10  C26 UNL     1     -22.683  10.915  45.220  1.00  0.00     0.262 C 
HETATM   11  O2  UNL     1     -23.798  11.280  44.709  1.00  0.00    -0.267 OA
HETATM   12  N3  UNL     1     -21.605  10.987  44.298  1.00  0.00    -0.282 N 
HETATM   13  C28 UNL     1     -20.178  10.814  44.442  1.00  0.00     0.237 C 
HETATM   14  C29 UNL     1     -19.597  11.467  45.617  1.00  0.00     0.241 C 
HETATM   15  O4  UNL     1     -18.756  12.388  45.335  1.00  0.00    -0.271 OA
HETATM   16  N4  UNL     1     -19.757  11.309  47.018  1.00  0.00    -0.317 N 
ATOM     17  H4  UNL     1     -18.935  11.632  47.527  1.00  0.00     0.169 HD
ENDROOT
BRANCH   7  18
HETATM   18  C6  UNL     1     -24.998   9.330  49.162  1.00  0.00     0.059 C 
BRANCH  18  19
HETATM   19  C7  UNL     1     -25.301   7.906  49.121  1.00  0.00     0.040 A 
HETATM   20  N2  UNL     1     -26.416   7.348  48.599  1.00  0.00    -0.359 N 
HETATM   21  C8  UNL     1     -26.363   5.992  48.723  1.00  0.00     0.010 A 
ATOM     22  H2  UNL     1     -27.184   7.867  48.173  1.00  0.00     0.166 HD
HETATM   23  C21 UNL     1     -25.169   5.722  49.344  1.00  0.00     0.034 A 
HETATM   24  C22 UNL     1     -24.481   6.913  49.603  1.00  0.00    -0.033 A 
HETATM   25  C23 UNL     1     -23.152   7.027  50.265  1.00  0.00     0.050 C 
BRANCH  21  26
HETATM   26  C9  UNL     1     -27.441   5.072  48.253  1.00  0.00     0.057 C 
BRANCH  26  27
HETATM   27  C10 UNL     1     -28.577   5.083  49.250  1.00  0.00     0.011 C 
BRANCH  27  28
HETATM   28  C11 UNL     1     -28.084   5.047  50.671  1.00  0.00     0.039 C 
BRANCH  28  29
HETATM   29  C12 UNL     1     -28.471   6.282  51.398  1.00  0.00    -0.056 A 
HETATM   30  C13 UNL     1     -27.517   6.995  52.107  1.00  0.00     0.008 A 
HETATM   31  C14 UNL     1     -27.955   8.133  52.754  1.00  0.00     0.011 A 
HETATM   32  C15 UNL     1     -29.270   8.574  52.720  1.00  0.00    -0.022 A 
HETATM   33  C19 UNL     1     -30.182   7.838  52.004  1.00  0.00     0.072 A 
HETATM   34  C20 UNL     1     -29.788   6.682  51.336  1.00  0.00     0.044 A 
BRANCH  32  35
HETATM   35  C16 UNL     1     -29.625   9.830  53.454  1.00  0.00     0.067 C 
BRANCH  35  36
HETATM   36  C17 UNL     1     -28.552  10.829  53.470  1.00  0.00    -0.032 C 
HETATM   37  C18 UNL     1     -28.713  12.093  53.162  1.00  0.00     0.007 C 
ENDBRANCH  35  36
ENDBRANCH  32  35
BRANCH  33  38
HETATM   38  O1  UNL     1     -31.494   8.258  51.957  1.00  0.00    -0.360 OA
ATOM     39  H1  UNL     1     -32.148   7.687  51.571  1.00  0.00     0.217 HD
ENDBRANCH  33  38
ENDBRANCH  28  29
ENDBRANCH  27  28
ENDBRANCH  26  27
ENDBRANCH  21  26
ENDBRANCH  18  19
ENDBRANCH   7  18
BRANCH  12  40
HETATM   40  C27 UNL     1     -22.045  11.285  42.990  1.00  0.00     0.358 C 
HETATM   41  O3  UNL     1     -22.079  10.320  42.154  1.00  0.00    -0.283 OA
ENDBRANCH  12  40
TORSDOF 10
ENDMDL
MODEL 5
REMARK VINA RESULT: -7.507965591      4.089      5.790
REMARK  10 active torsions:
REMARK  status: ('A' for Active; 'I' for Inactive)
REMARK    1  A    between atoms: C5_7  and  C6_8 
REMARK    2  A    between atoms: C6_8  and  C7_9 
REMARK    3  A    between atoms: C8_12  and  C9_13 
REMARK    4  A    between atoms: C9_13  and  C10_14 
REMARK    5  A    between atoms: C10_14  and  C11_15 
REMARK    6  A    between atoms: C11_15  and  C12_16 
REMARK    7  A    between atoms: C15_19  and  C16_20 
REMARK    8  A    between atoms: C16_20  and  C17_21 
REMARK    9  A    between atoms: C19_23  and  O1_24 
REMARK   10  A    between atoms: N3_34  and  C27_35 
ROOT
HETATM    1  C1  UNL     1     -19.848  10.630  50.376  1.00  0.00     0.019 C 
HETATM    2  C2  UNL     1     -20.224  10.740  49.223  1.00  0.00    -0.057 C 
HETATM    3  C3  UNL     1     -20.659  10.900  47.861  1.00  0.00     0.116 C 
HETATM    4  C4  UNL     1     -21.947  10.594  47.666  1.00  0.00     0.084 A 
HETATM    5  N1  UNL     1     -22.663  10.188  48.722  1.00  0.00    -0.353 N 
ATOM      6  H1  UNL     1     -22.294  10.089  49.668  1.00  0.00     0.166 HD
HETATM    7  C5  UNL     1     -23.947   9.924  48.365  1.00  0.00     0.035 A 
HETATM    8  C24 UNL     1     -24.017  10.184  47.022  1.00  0.00     0.049 A 
HETATM    9  C25 UNL     1     -22.781  10.599  46.583  1.00  0.00     0.064 A 
HETATM   10  C26 UNL     1     -22.583  10.934  45.176  1.00  0.00     0.262 C 
HETATM   11  O2  UNL     1     -23.695  11.294  44.656  1.00  0.00    -0.267 OA
HETATM   12  N3  UNL     1     -21.506  10.967  44.250  1.00  0.00    -0.282 N 
HETATM   13  C28 UNL     1     -20.081  10.783  44.397  1.00  0.00     0.237 C 
HETATM   14  C29 UNL     1     -19.490  11.467  45.550  1.00  0.00     0.241 C 
HETATM   15  O4  UNL     1     -18.641  12.370  45.239  1.00  0.00    -0.271 OA
HETATM   16  N4  UNL     1     -19.650  11.353  46.956  1.00  0.00    -0.317 N 
ATOM     17  H4  UNL     1     -18.823  11.682  47.454  1.00  0.00     0.169 HD
ENDROOT
BRANCH   7  18
HETATM   18  C6  UNL     1     -24.906   9.494  49.168  1.00  0.00     0.059 C 
BRANCH  18  19
HETATM   19  C7  UNL     1     -25.257   8.080  49.135  1.00  0.00     0.040 A 
HETATM   20  N2  UNL     1     -26.348   7.549  48.541  1.00  0.00    -0.359 N 
HETATM   21  C8  UNL     1     -26.355   6.195  48.700  1.00  0.00     0.010 A 
ATOM     22  H2  UNL     1     -27.062   8.083  48.046  1.00  0.00     0.166 HD
HETATM   23  C21 UNL     1     -25.222   5.899  49.417  1.00  0.00     0.034 A 
HETATM   24  C22 UNL     1     -24.514   7.072  49.703  1.00  0.00    -0.033 A 
HETATM   25  C23 UNL     1     -23.236   7.156  50.463  1.00  0.00     0.050 C 
BRANCH  21  26
HETATM   26  C9  UNL     1     -27.426   5.302  48.167  1.00  0.00     0.057 C 
BRANCH  26  27
HETATM   27  C10 UNL     1     -27.527   4.070  49.037  1.00  0.00     0.011 C 
BRANCH  27  28
HETATM   28  C11 UNL     1     -28.232   4.350  50.338  1.00  0.00     0.039 C 
BRANCH  28  29
HETATM   29  C12 UNL     1     -29.663   4.669  50.108  1.00  0.00    -0.056 A 
HETATM   30  C13 UNL     1     -30.456   3.800  49.374  1.00  0.00     0.008 A 
HETATM   31  C14 UNL     1     -31.776   4.165  49.206  1.00  0.00     0.011 A 
HETATM   32  C15 UNL     1     -32.319   5.331  49.727  1.00  0.00    -0.022 A 
HETATM   33  C19 UNL     1     -31.498   6.162  50.449  1.00  0.00     0.072 A 
HETATM   34  C20 UNL     1     -30.159   5.837  50.645  1.00  0.00     0.044 A 
BRANCH  32  35
HETATM   35  C16 UNL     1     -33.769   5.616  49.488  1.00  0.00     0.067 C 
BRANCH  35  36
HETATM   36  C17 UNL     1     -34.379   4.759  48.467  1.00  0.00    -0.032 C 
HETATM   37  C18 UNL     1     -35.053   5.204  47.434  1.00  0.00     0.007 C 
ENDBRANCH  35  36
ENDBRANCH  32  35
BRANCH  33  38
HETATM   38  O1  UNL     1     -32.017   7.325  50.976  1.00  0.00    -0.360 OA
ATOM     39  H1  UNL     1     -32.041   8.107  50.437  1.00  0.00     0.217 HD
ENDBRANCH  33  38
ENDBRANCH  28  29
ENDBRANCH  27  28
ENDBRANCH  26  27
ENDBRANCH  21  26
ENDBRANCH  18  19
ENDBRANCH   7  18
BRANCH  12  40
HETATM   40  C27 UNL     1     -21.946  11.229  42.935  1.00  0.00     0.358 C 
HETATM   41  O3  UNL     1     -22.120  10.222  42.169  1.00  0.00    -0.283 OA
ENDBRANCH  12  40
TORSDOF 10
ENDMDL
