MODEL 1
REMARK VINA RESULT: -8.602930579      0.000      0.000
REMARK  9 active torsions:
REMARK  status: ('A' for Active; 'I' for Inactive)
REMARK    1  A    between atoms: C3_5  and  N2_6 
REMARK    2  A    between atoms: N3_9  and  C6_10 
REMARK    3  A    between atoms: C6_10  and  C7_11 
REMARK    4  A    between atoms: C7_11  and  N4_12 
REMARK    5  A    between atoms: C10_15  and  N5_16 
REMARK    6  A    between atoms: N5_16  and  C11_18 
REMARK    7  A    between atoms: C14_23  and  N8_24 
REMARK    8  A    between atoms: N10_31  and  O2_32 
REMARK    9  A    between atoms: C19_38  and  N12_39 
ROOT
HETATM    1  N4  UNL     1      19.382   8.643   4.827  1.00  0.00    -0.274 N 
HETATM    2  C8  UNL     1      20.113   9.628   4.184  1.00  0.00     0.116 A 
HETATM    3  C9  UNL     1      19.185  10.499   3.666  1.00  0.00     0.071 A 
HETATM    4  C10 UNL     1      17.929  10.057   3.985  1.00  0.00     0.154 A 
HETATM    5  N10 UNL     1      18.122   8.908   4.701  1.00  0.00    -0.144 N 
ENDROOT
BRANCH   1   6
HETATM    6  C7  UNL     1      19.995   7.509   5.492  1.00  0.00     0.181 C 
BRANCH   6   7
HETATM    7  C6  UNL     1      21.437   7.333   5.232  1.00  0.00     0.294 C 
BRANCH   7   8
HETATM    8  N3  UNL     1      21.890   6.022   4.862  1.00  0.00     0.093 N 
HETATM    9  C5  UNL     1      21.015   5.453   3.879  1.00  0.00     0.293 C 
HETATM   10  C4  UNL     1      21.713   5.305   2.517  1.00  0.00     0.171 C 
HETATM   11  N2  UNL     1      22.347   6.567   2.260  1.00  0.00    -0.214 N 
HETATM   12  C18 UNL     1      23.450   6.916   3.172  1.00  0.00     0.171 C 
HETATM   13  C17 UNL     1      23.268   6.103   4.452  1.00  0.00     0.293 C 
BRANCH  11  14
HETATM   14  C3  UNL     1      21.971   7.451   1.218  1.00  0.00     0.696 A 
HETATM   15  N1  UNL     1      22.843   7.694   0.216  1.00  0.00    -0.180 N 
HETATM   16  C2  UNL     1      22.536   8.520  -0.786  1.00  0.00     0.109 A 
ATOM     17  H1  UNL     1      23.755   7.236   0.226  1.00  0.00     0.185 HD
HETATM   18  C1  UNL     1      23.545   8.748  -1.867  1.00  0.00     0.090 C 
HETATM   19  N13 UNL     1      21.334   9.135  -0.817  1.00  0.00    -0.180 N 
HETATM   20  C19 UNL     1      20.475   8.888   0.180  1.00  0.00     0.691 A 
ATOM     21  H13 UNL     1      21.087   9.768  -1.578  1.00  0.00     0.185 HD
HETATM   22  N11 UNL     1      20.783   8.051   1.198  1.00  0.00    -0.022 N 
ATOM     23  H11 UNL     1      20.109   7.881   1.945  1.00  0.00     0.203 HD
BRANCH  20  24
HETATM   24  N12 UNL     1      19.312   9.463   0.181  1.00  0.00    -0.234 N 
ATOM     25 2H12 UNL     1      18.881   9.727   1.067  1.00  0.00     0.174 HD
ATOM     26 1H12 UNL     1      18.854   9.638  -0.714  1.00  0.00     0.174 HD
ENDBRANCH  20  24
ENDBRANCH  11  14
ENDBRANCH   7   8
ENDBRANCH   6   7
ENDBRANCH   1   6
BRANCH   5  27
HETATM   27  O2  UNL     1      17.068   8.180   5.168  1.00  0.00    -0.266 OA
ATOM     28  H2  UNL     1      16.536   7.556   4.688  1.00  0.00     0.247 HD
ENDBRANCH   5  27
BRANCH   4  29
HETATM   29  N5  UNL     1      16.692  10.648   3.653  1.00  0.00    -0.332 N 
ATOM     30  H5  UNL     1      16.373  11.416   4.243  1.00  0.00     0.168 HD
BRANCH  29  31
HETATM   31  C11 UNL     1      15.868  10.278   2.593  1.00  0.00     0.145 A 
HETATM   32  C12 UNL     1      16.085  10.737   1.315  1.00  0.00     0.166 A 
HETATM   33  N6  UNL     1      17.152  11.610   0.986  1.00  0.00    -0.079 NA
HETATM   34  N7  UNL     1      15.250  10.350   0.304  1.00  0.00    -0.172 N 
HETATM   35  C13 UNL     1      15.481  10.834  -1.041  1.00  0.00     0.177 C 
HETATM   36  C14 UNL     1      14.215   9.530   0.511  1.00  0.00     0.683 A 
HETATM   37  N9  UNL     1      13.986   9.066   1.770  1.00  0.00    -0.150 N 
HETATM   38  C15 UNL     1      12.864   8.180   1.982  1.00  0.00     0.179 C 
HETATM   39  C16 UNL     1      14.793   9.437   2.766  1.00  0.00     0.291 A 
HETATM   40  O1  UNL     1      14.550   8.986   3.916  1.00  0.00    -0.265 OA
BRANCH  36  41
HETATM   41  N8  UNL     1      13.403   9.150  -0.432  1.00  0.00    -0.234 N 
ATOM     42  H82 UNL     1      13.679   9.329  -1.397  1.00  0.00     0.174 HD
ATOM     43  H81 UNL     1      12.514   8.683  -0.252  1.00  0.00     0.174 HD
ENDBRANCH  36  41
ENDBRANCH  29  31
ENDBRANCH   4  29
TORSDOF 9
ENDMDL
MODEL 2
REMARK VINA RESULT: -8.596665899      2.541      5.382
REMARK  9 active torsions:
REMARK  status: ('A' for Active; 'I' for Inactive)
REMARK    1  A    between atoms: C3_5  and  N2_6 
REMARK    2  A    between atoms: N3_9  and  C6_10 
REMARK    3  A    between atoms: C6_10  and  C7_11 
REMARK    4  A    between atoms: C7_11  and  N4_12 
REMARK    5  A    between atoms: C10_15  and  N5_16 
REMARK    6  A    between atoms: N5_16  and  C11_18 
REMARK    7  A    between atoms: C14_23  and  N8_24 
REMARK    8  A    between atoms: N10_31  and  O2_32 
REMARK    9  A    between atoms: C19_38  and  N12_39 
ROOT
HETATM    1  N4  UNL     1      20.814  10.511   0.963  1.00  0.00    -0.274 N 
HETATM    2  C8  UNL     1      20.801   9.461   0.060  1.00  0.00     0.116 A 
HETATM    3  C9  UNL     1      19.709   9.679  -0.745  1.00  0.00     0.071 A 
HETATM    4  C10 UNL     1      19.078  10.826  -0.342  1.00  0.00     0.154 A 
HETATM    5  N10 UNL     1      19.811  11.289   0.715  1.00  0.00    -0.144 N 
ENDROOT
BRANCH   1   6
HETATM    6  C7  UNL     1      21.807  10.640   2.013  1.00  0.00     0.181 C 
BRANCH   6   7
HETATM    7  C6  UNL     1      21.322  10.346   3.375  1.00  0.00     0.294 C 
BRANCH   7   8
HETATM    8  N3  UNL     1      21.680   9.080   3.949  1.00  0.00     0.093 N 
HETATM    9  C5  UNL     1      21.438   9.088   5.362  1.00  0.00     0.293 C 
HETATM   10  C4  UNL     1      20.293   8.138   5.747  1.00  0.00     0.171 C 
HETATM   11  N2  UNL     1      19.219   8.429   4.839  1.00  0.00    -0.214 N 
HETATM   12  C18 UNL     1      19.478   8.097   3.428  1.00  0.00     0.171 C 
HETATM   13  C17 UNL     1      20.992   8.035   3.237  1.00  0.00     0.293 C 
BRANCH  11  14
HETATM   14  C3  UNL     1      17.980   8.999   5.226  1.00  0.00     0.696 A 
HETATM   15  N1  UNL     1      17.251   8.396   6.190  1.00  0.00    -0.180 N 
HETATM   16  C2  UNL     1      16.078   8.893   6.586  1.00  0.00     0.109 A 
ATOM     17  H1  UNL     1      17.605   7.543   6.624  1.00  0.00     0.185 HD
HETATM   18  C1  UNL     1      15.318   8.179   7.659  1.00  0.00     0.090 C 
HETATM   19  N13 UNL     1      15.593  10.022   6.025  1.00  0.00    -0.180 N 
HETATM   20  C19 UNL     1      16.322  10.613   5.070  1.00  0.00     0.691 A 
ATOM     21  H13 UNL     1      14.697  10.412   6.319  1.00  0.00     0.185 HD
HETATM   22  N11 UNL     1      17.512  10.112   4.666  1.00  0.00    -0.022 N 
ATOM     23  H11 UNL     1      18.047  10.584   3.936  1.00  0.00     0.203 HD
BRANCH  20  24
HETATM   24  N12 UNL     1      15.884  11.699   4.510  1.00  0.00    -0.234 N 
ATOM     25 2H12 UNL     1      16.475  12.195   3.842  1.00  0.00     0.174 HD
ATOM     26 1H12 UNL     1      14.950  12.031   4.753  1.00  0.00     0.174 HD
ENDBRANCH  20  24
ENDBRANCH  11  14
ENDBRANCH   7   8
ENDBRANCH   6   7
ENDBRANCH   1   6
BRANCH   5  27
HETATM   27  O2  UNL     1      19.452  12.422   1.383  1.00  0.00    -0.266 OA
ATOM     28  H2  UNL     1      19.108  12.490   2.266  1.00  0.00     0.247 HD
ENDBRANCH   5  27
BRANCH   4  29
HETATM   29  N5  UNL     1      17.921  11.416  -0.891  1.00  0.00    -0.332 N 
ATOM     30  H5  UNL     1      18.048  12.270  -1.434  1.00  0.00     0.168 HD
BRANCH  29  31
HETATM   31  C11 UNL     1      16.619  10.939  -0.759  1.00  0.00     0.145 A 
HETATM   32  C12 UNL     1      16.009  10.834   0.469  1.00  0.00     0.166 A 
HETATM   33  N6  UNL     1      16.653  11.200   1.677  1.00  0.00    -0.079 NA
HETATM   34  N7  UNL     1      14.730  10.358   0.552  1.00  0.00    -0.172 N 
HETATM   35  C13 UNL     1      14.090  10.249   1.847  1.00  0.00     0.177 C 
HETATM   36  C14 UNL     1      14.038   9.985  -0.528  1.00  0.00     0.683 A 
HETATM   37  N9  UNL     1      14.627  10.082  -1.752  1.00  0.00    -0.150 N 
HETATM   38  C15 UNL     1      13.868   9.677  -2.913  1.00  0.00     0.179 C 
HETATM   39  C16 UNL     1      15.874  10.545  -1.847  1.00  0.00     0.291 A 
HETATM   40  O1  UNL     1      16.385  10.622  -2.996  1.00  0.00    -0.265 OA
BRANCH  36  41
HETATM   41  N8  UNL     1      12.822   9.525  -0.476  1.00  0.00    -0.234 N 
ATOM     42  H82 UNL     1      12.696   8.541  -0.241  1.00  0.00     0.174 HD
ATOM     43  H81 UNL     1      11.997  10.098  -0.654  1.00  0.00     0.174 HD
ENDBRANCH  36  41
ENDBRANCH  29  31
ENDBRANCH   4  29
TORSDOF 9
ENDMDL
MODEL 3
REMARK VINA RESULT: -8.510739876      2.301      5.156
REMARK  9 active torsions:
REMARK  status: ('A' for Active; 'I' for Inactive)
REMARK    1  A    between atoms: C3_5  and  N2_6 
REMARK    2  A    between atoms: N3_9  and  C6_10 
REMARK    3  A    between atoms: C6_10  and  C7_11 
REMARK    4  A    between atoms: C7_11  and  N4_12 
REMARK    5  A    between atoms: C10_15  and  N5_16 
REMARK    6  A    between atoms: N5_16  and  C11_18 
REMARK    7  A    between atoms: C14_23  and  N8_24 
REMARK    8  A    between atoms: N10_31  and  O2_32 
REMARK    9  A    between atoms: C19_38  and  N12_39 
ROOT
HETATM    1  N4  UNL     1      20.798  10.473   0.917  1.00  0.00    -0.274 N 
HETATM    2  C8  UNL     1      20.748   9.468  -0.033  1.00  0.00     0.116 A 
HETATM    3  C9  UNL     1      19.612   9.709  -0.768  1.00  0.00     0.071 A 
HETATM    4  C10 UNL     1      18.991  10.827  -0.278  1.00  0.00     0.154 A 
HETATM    5  N10 UNL     1      19.774  11.249   0.761  1.00  0.00    -0.144 N 
ENDROOT
BRANCH   1   6
HETATM    6  C7  UNL     1      21.845  10.565   1.917  1.00  0.00     0.181 C 
BRANCH   6   7
HETATM    7  C6  UNL     1      21.406  10.334   3.308  1.00  0.00     0.294 C 
BRANCH   7   8
HETATM    8  N3  UNL     1      21.754   9.081   3.914  1.00  0.00     0.093 N 
HETATM    9  C5  UNL     1      21.505   9.125   5.325  1.00  0.00     0.293 C 
HETATM   10  C4  UNL     1      20.353   8.190   5.727  1.00  0.00     0.171 C 
HETATM   11  N2  UNL     1      19.285   8.464   4.807  1.00  0.00    -0.214 N 
HETATM   12  C18 UNL     1      19.550   8.096   3.406  1.00  0.00     0.171 C 
HETATM   13  C17 UNL     1      21.064   8.022   3.224  1.00  0.00     0.293 C 
BRANCH  11  14
HETATM   14  C3  UNL     1      18.047   9.050   5.173  1.00  0.00     0.696 A 
HETATM   15  N1  UNL     1      17.285   8.445   6.109  1.00  0.00    -0.180 N 
HETATM   16  C2  UNL     1      16.111   8.956   6.485  1.00  0.00     0.109 A 
ATOM     17  H1  UNL     1      17.614   7.579   6.537  1.00  0.00     0.185 HD
HETATM   18  C1  UNL     1      15.313   8.239   7.527  1.00  0.00     0.090 C 
HETATM   19  N13 UNL     1      15.659  10.102   5.931  1.00  0.00    -0.180 N 
HETATM   20  C19 UNL     1      16.422  10.695   5.003  1.00  0.00     0.691 A 
ATOM     21  H13 UNL     1      14.764  10.503   6.210  1.00  0.00     0.185 HD
HETATM   22  N11 UNL     1      17.612  10.180   4.620  1.00  0.00    -0.022 N 
ATOM     23  H11 UNL     1      18.172  10.653   3.911  1.00  0.00     0.203 HD
BRANCH  20  24
HETATM   24  N12 UNL     1      16.016  11.797   4.450  1.00  0.00    -0.234 N 
ATOM     25 2H12 UNL     1      16.504  12.670   4.651  1.00  0.00     0.174 HD
ATOM     26 1H12 UNL     1      15.212  11.761   3.823  1.00  0.00     0.174 HD
ENDBRANCH  20  24
ENDBRANCH  11  14
ENDBRANCH   7   8
ENDBRANCH   6   7
ENDBRANCH   1   6
BRANCH   5  27
HETATM   27  O2  UNL     1      19.440  12.344   1.501  1.00  0.00    -0.266 OA
ATOM     28  H2  UNL     1      18.705  12.438   2.097  1.00  0.00     0.247 HD
ENDBRANCH   5  27
BRANCH   4  29
HETATM   29  N5  UNL     1      17.800  11.428  -0.735  1.00  0.00    -0.332 N 
ATOM     30  H5  UNL     1      17.887  12.319  -1.223  1.00  0.00     0.168 HD
BRANCH  29  31
HETATM   31  C11 UNL     1      16.514  10.913  -0.581  1.00  0.00     0.145 A 
HETATM   32  C12 UNL     1      15.763  10.512  -1.660  1.00  0.00     0.166 A 
HETATM   33  N6  UNL     1      16.235  10.591  -2.994  1.00  0.00    -0.079 NA
HETATM   34  N7  UNL     1      14.504  10.015  -1.463  1.00  0.00    -0.172 N 
HETATM   35  C13 UNL     1      13.715   9.593  -2.601  1.00  0.00     0.177 C 
HETATM   36  C14 UNL     1      13.968   9.902  -0.244  1.00  0.00     0.683 A 
HETATM   37  N9  UNL     1      14.698  10.294   0.835  1.00  0.00    -0.150 N 
HETATM   38  C15 UNL     1      14.107  10.165   2.148  1.00  0.00     0.179 C 
HETATM   39  C16 UNL     1      15.927  10.781   0.657  1.00  0.00     0.291 A 
HETATM   40  O1  UNL     1      16.573  11.132   1.679  1.00  0.00    -0.265 OA
BRANCH  36  41
HETATM   41  N8  UNL     1      12.771   9.436  -0.029  1.00  0.00    -0.234 N 
ATOM     42  H82 UNL     1      11.982  10.058  -0.200  1.00  0.00     0.174 HD
ATOM     43  H81 UNL     1      12.589   8.486   0.295  1.00  0.00     0.174 HD
ENDBRANCH  36  41
ENDBRANCH  29  31
ENDBRANCH   4  29
TORSDOF 9
ENDMDL
MODEL 4
REMARK VINA RESULT: -8.471320389      2.037      7.415
REMARK  9 active torsions:
REMARK  status: ('A' for Active; 'I' for Inactive)
REMARK    1  A    between atoms: C3_5  and  N2_6 
REMARK    2  A    between atoms: N3_9  and  C6_10 
REMARK    3  A    between atoms: C6_10  and  C7_11 
REMARK    4  A    between atoms: C7_11  and  N4_12 
REMARK    5  A    between atoms: C10_15  and  N5_16 
REMARK    6  A    between atoms: N5_16  and  C11_18 
REMARK    7  A    between atoms: C14_23  and  N8_24 
REMARK    8  A    between atoms: N10_31  and  O2_32 
REMARK    9  A    between atoms: C19_38  and  N12_39 
ROOT
HETATM    1  N4  UNL     1      17.218  10.999   2.772  1.00  0.00    -0.274 N 
HETATM    2  C8  UNL     1      17.516  11.598   1.559  1.00  0.00     0.116 A 
HETATM    3  C9  UNL     1      18.887  11.598   1.473  1.00  0.00     0.071 A 
HETATM    4  C10 UNL     1      19.407  11.018   2.599  1.00  0.00     0.154 A 
HETATM    5  N10 UNL     1      18.324  10.672   3.359  1.00  0.00    -0.144 N 
ENDROOT
BRANCH   1   6
HETATM    6  C7  UNL     1      15.863  10.826   3.258  1.00  0.00     0.181 C 
BRANCH   6   7
HETATM    7  C6  UNL     1      15.219   9.552   2.882  1.00  0.00     0.294 C 
BRANCH   7   8
HETATM    8  N3  UNL     1      13.790   9.546   2.746  1.00  0.00     0.093 N 
HETATM    9  C5  UNL     1      13.351  10.722   2.053  1.00  0.00     0.293 C 
HETATM   10  C4  UNL     1      12.774  10.383   0.670  1.00  0.00     0.171 C 
HETATM   11  N2  UNL     1      13.727   9.506   0.050  1.00  0.00    -0.214 N 
HETATM   12  C18 UNL     1      13.879   8.187   0.689  1.00  0.00     0.171 C 
HETATM   13  C17 UNL     1      13.385   8.310   2.129  1.00  0.00     0.293 C 
BRANCH  11  14
HETATM   14  C3  UNL     1      14.494   9.841  -1.093  1.00  0.00     0.696 A 
HETATM   15  N1  UNL     1      13.932   9.733  -2.317  1.00  0.00    -0.180 N 
HETATM   16  C2  UNL     1      14.615  10.035  -3.423  1.00  0.00     0.109 A 
ATOM     17  H1  UNL     1      12.966   9.414  -2.396  1.00  0.00     0.185 HD
HETATM   18  C1  UNL     1      13.937   9.894  -4.749  1.00  0.00     0.090 C 
HETATM   19  N13 UNL     1      15.894  10.460  -3.339  1.00  0.00    -0.180 N 
HETATM   20  C19 UNL     1      16.443  10.564  -2.122  1.00  0.00     0.691 A 
ATOM     21  H13 UNL     1      16.427  10.694  -4.177  1.00  0.00     0.185 HD
HETATM   22  N11 UNL     1      15.755  10.259  -0.998  1.00  0.00    -0.022 N 
ATOM     23  H11 UNL     1      16.198  10.349  -0.084  1.00  0.00     0.203 HD
BRANCH  20  24
HETATM   24  N12 UNL     1      17.671  10.969  -2.006  1.00  0.00    -0.234 N 
ATOM     25 2H12 UNL     1      17.939  11.542  -1.205  1.00  0.00     0.174 HD
ATOM     26 1H12 UNL     1      18.343  10.701  -2.725  1.00  0.00     0.174 HD
ENDBRANCH  20  24
ENDBRANCH  11  14
ENDBRANCH   7   8
ENDBRANCH   6   7
ENDBRANCH   1   6
BRANCH   5  27
HETATM   27  O2  UNL     1      18.474  10.079   4.577  1.00  0.00    -0.266 OA
ATOM     28  H2  UNL     1      19.094   9.401   4.820  1.00  0.00     0.247 HD
ENDBRANCH   5  27
BRANCH   4  29
HETATM   29  N5  UNL     1      20.764  10.814   2.921  1.00  0.00    -0.332 N 
ATOM     30  H5  UNL     1      21.270  11.604   3.321  1.00  0.00     0.168 HD
BRANCH  29  31
HETATM   31  C11 UNL     1      21.477   9.631   2.743  1.00  0.00     0.145 A 
HETATM   32  C12 UNL     1      22.093   9.330   1.551  1.00  0.00     0.166 A 
HETATM   33  N6  UNL     1      22.049  10.194   0.428  1.00  0.00    -0.079 NA
HETATM   34  N7  UNL     1      22.781   8.156   1.420  1.00  0.00    -0.172 N 
HETATM   35  C13 UNL     1      23.430   7.843   0.163  1.00  0.00     0.177 C 
HETATM   36  C14 UNL     1      22.881   7.275   2.419  1.00  0.00     0.683 A 
HETATM   37  N9  UNL     1      22.277   7.556   3.607  1.00  0.00    -0.150 N 
HETATM   38  C15 UNL     1      22.393   6.596   4.680  1.00  0.00     0.179 C 
HETATM   39  C16 UNL     1      21.603   8.698   3.748  1.00  0.00     0.291 A 
HETATM   40  O1  UNL     1      21.058   8.925   4.861  1.00  0.00    -0.265 OA
BRANCH  36  41
HETATM   41  N8  UNL     1      23.526   6.149   2.319  1.00  0.00    -0.234 N 
ATOM     42  H82 UNL     1      24.042   5.972   1.458  1.00  0.00     0.174 HD
ATOM     43  H81 UNL     1      23.541   5.444   3.056  1.00  0.00     0.174 HD
ENDBRANCH  36  41
ENDBRANCH  29  31
ENDBRANCH   4  29
TORSDOF 9
ENDMDL
MODEL 5
REMARK VINA RESULT: -8.416600562      2.278      7.916
REMARK  9 active torsions:
REMARK  status: ('A' for Active; 'I' for Inactive)
REMARK    1  A    between atoms: C3_5  and  N2_6 
REMARK    2  A    between atoms: N3_9  and  C6_10 
REMARK    3  A    between atoms: C6_10  and  C7_11 
REMARK    4  A    between atoms: C7_11  and  N4_12 
REMARK    5  A    between atoms: C10_15  and  N5_16 
REMARK    6  A    between atoms: N5_16  and  C11_18 
REMARK    7  A    between atoms: C14_23  and  N8_24 
REMARK    8  A    between atoms: N10_31  and  O2_32 
REMARK    9  A    between atoms: C19_38  and  N12_39 
ROOT
HETATM    1  N4  UNL     1      17.589  11.011  -0.277  1.00  0.00    -0.274 N 
HETATM    2  C8  UNL     1      17.182  11.679   0.866  1.00  0.00     0.116 A 
HETATM    3  C9  UNL     1      18.313  11.824   1.633  1.00  0.00     0.071 A 
HETATM    4  C10 UNL     1      19.375  11.261   0.976  1.00  0.00     0.154 A 
HETATM    5  N10 UNL     1      18.859  10.778  -0.195  1.00  0.00    -0.144 N 
ENDROOT
BRANCH   1   6
HETATM    6  C7  UNL     1      16.679  10.639  -1.342  1.00  0.00     0.181 C 
BRANCH   6   7
HETATM    7  C6  UNL     1      15.312  11.183  -1.219  1.00  0.00     0.294 C 
BRANCH   7   8
HETATM    8  N3  UNL     1      14.217  10.284  -1.452  1.00  0.00     0.093 N 
HETATM    9  C5  UNL     1      14.562   8.960  -1.026  1.00  0.00     0.293 C 
HETATM   10  C4  UNL     1      13.735   8.523   0.194  1.00  0.00     0.171 C 
HETATM   11  N2  UNL     1      13.806   9.612   1.128  1.00  0.00    -0.214 N 
HETATM   12  C18 UNL     1      13.147  10.856   0.697  1.00  0.00     0.171 C 
HETATM   13  C17 UNL     1      13.035  10.818  -0.826  1.00  0.00     0.293 C 
BRANCH  11  14
HETATM   14  C3  UNL     1      14.457   9.543   2.385  1.00  0.00     0.696 A 
HETATM   15  N1  UNL     1      15.737   9.116   2.440  1.00  0.00    -0.180 N 
HETATM   16  C2  UNL     1      16.391   9.032   3.600  1.00  0.00     0.109 A 
ATOM     17  H1  UNL     1      16.213   8.852   1.577  1.00  0.00     0.185 HD
HETATM   18  C1  UNL     1      17.808   8.552   3.596  1.00  0.00     0.090 C 
HETATM   19  N13 UNL     1      15.779   9.378   4.754  1.00  0.00    -0.180 N 
HETATM   20  C19 UNL     1      14.510   9.801   4.689  1.00  0.00     0.691 A 
ATOM     21  H13 UNL     1      16.268   9.319   5.647  1.00  0.00     0.185 HD
HETATM   22  N11 UNL     1      13.843   9.887   3.515  1.00  0.00    -0.022 N 
ATOM     23  H11 UNL     1      12.877  10.213   3.496  1.00  0.00     0.203 HD
BRANCH  20  24
HETATM   24  N12 UNL     1      13.892  10.140   5.780  1.00  0.00    -0.234 N 
ATOM     25 2H12 UNL     1      13.953  11.102   6.114  1.00  0.00     0.174 HD
ATOM     26 1H12 UNL     1      13.356   9.429   6.277  1.00  0.00     0.174 HD
ENDBRANCH  20  24
ENDBRANCH  11  14
ENDBRANCH   7   8
ENDBRANCH   6   7
ENDBRANCH   1   6
BRANCH   5  27
HETATM   27  O2  UNL     1      19.645  10.126  -1.099  1.00  0.00    -0.266 OA
ATOM     28  H2  UNL     1      19.428   9.893  -1.994  1.00  0.00     0.247 HD
ENDBRANCH   5  27
BRANCH   4  29
HETATM   29  N5  UNL     1      20.717  11.188   1.401  1.00  0.00    -0.332 N 
ATOM     30  H5  UNL     1      21.306  12.000   1.220  1.00  0.00     0.168 HD
BRANCH  29  31
HETATM   31  C11 UNL     1      21.312  10.106   2.047  1.00  0.00     0.145 A 
HETATM   32  C12 UNL     1      22.040   9.165   1.359  1.00  0.00     0.166 A 
HETATM   33  N6  UNL     1      22.239   9.226  -0.043  1.00  0.00    -0.079 NA
HETATM   34  N7  UNL     1      22.605   8.118   2.033  1.00  0.00    -0.172 N 
HETATM   35  C13 UNL     1      23.373   7.129   1.305  1.00  0.00     0.177 C 
HETATM   36  C14 UNL     1      22.475   7.971   3.355  1.00  0.00     0.683 A 
HETATM   37  N9  UNL     1      21.757   8.893   4.052  1.00  0.00    -0.150 N 
HETATM   38  C15 UNL     1      21.625   8.723   5.481  1.00  0.00     0.179 C 
HETATM   39  C16 UNL     1      21.201   9.920   3.406  1.00  0.00     0.291 A 
HETATM   40  O1  UNL     1      20.545  10.754   4.085  1.00  0.00    -0.265 OA
BRANCH  36  41
HETATM   41  N8  UNL     1      22.999   6.982   4.019  1.00  0.00    -0.234 N 
ATOM     42  H82 UNL     1      22.365   6.349   4.506  1.00  0.00     0.174 HD
ATOM     43  H81 UNL     1      24.003   6.811   4.072  1.00  0.00     0.174 HD
ENDBRANCH  36  41
ENDBRANCH  29  31
ENDBRANCH   4  29
TORSDOF 9
ENDMDL
