MODEL 1
REMARK VINA RESULT: -9.421807932      0.000      0.000
REMARK  8 active torsions:
REMARK  status: ('A' for Active; 'I' for Inactive)
REMARK    1  A    between atoms: C2_3  and  N2_4 
REMARK    2  A    between atoms: C3_7  and  C4_8 
REMARK    3  A    between atoms: C4_8  and  O3_9 
REMARK    4  A    between atoms: C4_8  and  N3_11 
REMARK    5  A    between atoms: N3_11  and  C5_12 
REMARK    6  A    between atoms: C5_12  and  C6_13 
REMARK    7  A    between atoms: C6_13  and  N4_14 
REMARK    8  A    between atoms: N6_22  and  C11_23 
ROOT
HETATM    1  N1  UNL     1      17.632  12.520   2.846  1.00  0.00    -0.077 NA
HETATM    2  C1  UNL     1      18.143  11.282   2.306  1.00  0.00     0.191 A 
HETATM    3  C2  UNL     1      18.849  11.139   1.152  1.00  0.00     0.179 A 
HETATM    4  C3  UNL     1      19.110   9.745   1.046  1.00  0.00     0.150 A 
HETATM    5  N5  UNL     1      18.581   9.174   2.086  1.00  0.00    -0.271 N 
ATOM      6  H5  UNL     1      18.625   8.171   2.266  1.00  0.00     0.188 HD
HETATM    7  N6  UNL     1      17.983  10.034   2.885  1.00  0.00    -0.066 N 
ENDROOT
BRANCH   7   8
HETATM    8  C11 UNL     1      17.246   9.950   4.099  1.00  0.00     0.734 C 
HETATM    9  N7  UNL     1      16.303  10.809   4.254  1.00  0.00    -0.127 N 
HETATM   10  N8  UNL     1      15.389  10.994   5.317  1.00  0.00    -0.269 N 
ATOM     11  H7  UNL     1      16.195  11.466   3.481  1.00  0.00     0.206 HD
HETATM   12  C12 UNL     1      15.225  10.243   6.370  1.00  0.00     0.157 A 
ATOM     13  H8  UNL     1      14.786  11.814   5.252  1.00  0.00     0.189 HD
HETATM   14  N9  UNL     1      14.239  10.756   7.137  1.00  0.00    -0.316 N 
HETATM   15  C15 UNL     1      15.850   9.086   6.724  1.00  0.00     0.162 A 
HETATM   16  C13 UNL     1      13.879  10.084   8.286  1.00  0.00     0.180 A 
ATOM     17  H9  UNL     1      13.771  11.623   6.873  1.00  0.00     0.170 HD
HETATM   18  S1  UNL     1      12.664  10.766   9.158  1.00  0.00    -0.040 SA
HETATM   19  N10 UNL     1      14.475   8.952   8.645  1.00  0.00    -0.298 N 
HETATM   20  C14 UNL     1      15.448   8.449   7.883  1.00  0.00     0.279 A 
ATOM     21  H10 UNL     1      14.192   8.471   9.499  1.00  0.00     0.171 HD
HETATM   22  O5  UNL     1      15.990   7.377   8.255  1.00  0.00    -0.265 OA
HETATM   23  N11 UNL     1      16.856   8.485   6.185  1.00  0.00    -0.278 N 
HETATM   24  N12 UNL     1      17.584   8.925   5.033  1.00  0.00    -0.128 N 
ATOM     25  H11 UNL     1      17.163   7.615   6.621  1.00  0.00     0.188 HD
ATOM     26  H12 UNL     1      18.464   8.440   4.856  1.00  0.00     0.205 HD
ENDBRANCH   7   8
BRANCH   3  27
HETATM   27  N2  UNL     1      19.257  12.155   0.258  1.00  0.00    -0.110 N 
HETATM   28  O1  UNL     1      20.463  12.319   0.067  1.00  0.00    -0.532 OA
HETATM   29  O2  UNL     1      18.355  12.957  -0.369  1.00  0.00    -0.532 OA
ENDBRANCH   3  27
BRANCH   4  30
HETATM   30  C4  UNL     1      19.811   9.304  -0.211  1.00  0.00     0.240 C 
BRANCH  30  31
HETATM   31  O3  UNL     1      19.180   9.762  -1.274  1.00  0.00    -0.334 OA
ATOM     32  H3  UNL     1      18.581  10.458  -1.029  1.00  0.00     0.220 HD
ENDBRANCH  30  31
BRANCH  30  33
HETATM   33  N3  UNL     1      20.921   8.569  -0.305  1.00  0.00    -0.421 NA
BRANCH  33  34
HETATM   34  C5  UNL     1      22.095   7.790  -0.402  1.00  0.00     0.251 C 
BRANCH  34  35
HETATM   35  C6  UNL     1      22.872   7.916   0.951  1.00  0.00     0.305 C 
BRANCH  35  36
HETATM   36  N4  UNL     1      22.021   7.706   2.089  1.00  0.00     0.095 N 
HETATM   37  C7  UNL     1      22.217   8.778   3.034  1.00  0.00     0.298 C 
HETATM   38  C8  UNL     1      21.976   8.470   4.458  1.00  0.00     0.198 C 
HETATM   39  O4  UNL     1      22.236   7.156   4.819  1.00  0.00    -0.388 OA
HETATM   40  C9  UNL     1      23.131   6.603   3.910  1.00  0.00     0.198 C 
HETATM   41  C10 UNL     1      22.378   6.406   2.627  1.00  0.00     0.298 C 
ENDBRANCH  35  36
ENDBRANCH  34  35
ENDBRANCH  33  34
ENDBRANCH  30  33
ENDBRANCH   4  30
TORSDOF 8
ENDMDL
MODEL 2
REMARK VINA RESULT: -9.252587317      1.583      1.822
REMARK  8 active torsions:
REMARK  status: ('A' for Active; 'I' for Inactive)
REMARK    1  A    between atoms: C2_3  and  N2_4 
REMARK    2  A    between atoms: C3_7  and  C4_8 
REMARK    3  A    between atoms: C4_8  and  O3_9 
REMARK    4  A    between atoms: C4_8  and  N3_11 
REMARK    5  A    between atoms: N3_11  and  C5_12 
REMARK    6  A    between atoms: C5_12  and  C6_13 
REMARK    7  A    between atoms: C6_13  and  N4_14 
REMARK    8  A    between atoms: N6_22  and  C11_23 
ROOT
HETATM    1  N1  UNL     1      17.587  12.121   2.355  1.00  0.00    -0.077 NA
HETATM    2  C1  UNL     1      18.305  10.932   1.964  1.00  0.00     0.191 A 
HETATM    3  C2  UNL     1      19.283  10.856   1.021  1.00  0.00     0.179 A 
HETATM    4  C3  UNL     1      19.664   9.486   0.989  1.00  0.00     0.150 A 
HETATM    5  N5  UNL     1      18.938   8.864   1.870  1.00  0.00    -0.271 N 
ATOM      6  H5  UNL     1      19.010   7.864   2.059  1.00  0.00     0.188 HD
HETATM    7  N6  UNL     1      18.099   9.667   2.492  1.00  0.00    -0.066 N 
ENDROOT
BRANCH   7   8
HETATM    8  C11 UNL     1      17.094   9.513   3.486  1.00  0.00     0.734 C 
HETATM    9  N7  UNL     1      17.406   9.893   4.674  1.00  0.00    -0.127 N 
HETATM   10  N8  UNL     1      16.653   9.889   5.871  1.00  0.00    -0.269 N 
ATOM     11  H7  UNL     1      18.354  10.258   4.769  1.00  0.00     0.206 HD
HETATM   12  C12 UNL     1      15.394   9.585   6.022  1.00  0.00     0.157 A 
ATOM     13  H8  UNL     1      17.156  10.156   6.718  1.00  0.00     0.189 HD
HETATM   14  N9  UNL     1      15.053   9.723   7.322  1.00  0.00    -0.316 N 
HETATM   15  C15 UNL     1      14.465   9.221   5.095  1.00  0.00     0.162 A 
HETATM   16  C13 UNL     1      13.745   9.488   7.690  1.00  0.00     0.180 A 
ATOM     17  H9  UNL     1      15.749   9.995   8.017  1.00  0.00     0.170 HD
HETATM   18  S1  UNL     1      13.409   9.688   9.287  1.00  0.00    -0.040 SA
HETATM   19  N10 UNL     1      12.825   9.134   6.799  1.00  0.00    -0.298 N 
HETATM   20  C14 UNL     1      13.167   9.001   5.516  1.00  0.00     0.279 A 
ATOM     21  H10 UNL     1      11.864   8.966   7.094  1.00  0.00     0.171 HD
HETATM   22  O5  UNL     1      12.270   8.664   4.702  1.00  0.00    -0.265 OA
HETATM   23  N11 UNL     1      14.602   8.954   3.841  1.00  0.00    -0.278 N 
HETATM   24  N12 UNL     1      15.828   8.980   3.101  1.00  0.00    -0.128 N 
ATOM     25  H11 UNL     1      13.758   8.701   3.328  1.00  0.00     0.188 HD
ATOM     26  H12 UNL     1      15.791   8.559   2.173  1.00  0.00     0.205 HD
ENDBRANCH   7   8
BRANCH   3  27
HETATM   27  N2  UNL     1      19.823  11.911   0.251  1.00  0.00    -0.110 N 
HETATM   28  O1  UNL     1      19.075  12.517  -0.518  1.00  0.00    -0.532 OA
HETATM   29  O2  UNL     1      21.138  12.249   0.328  1.00  0.00    -0.532 OA
ENDBRANCH   3  27
BRANCH   4  30
HETATM   30  C4  UNL     1      20.684   9.114  -0.053  1.00  0.00     0.240 C 
BRANCH  30  31
HETATM   31  O3  UNL     1      20.336   9.597  -1.229  1.00  0.00    -0.334 OA
ATOM     32  H3  UNL     1      20.571  10.515  -1.293  1.00  0.00     0.220 HD
ENDBRANCH  30  31
BRANCH  30  33
HETATM   33  N3  UNL     1      21.806   8.413   0.124  1.00  0.00    -0.421 NA
BRANCH  33  34
HETATM   34  C5  UNL     1      22.992   7.670   0.313  1.00  0.00     0.251 C 
BRANCH  34  35
HETATM   35  C6  UNL     1      23.147   7.390   1.846  1.00  0.00     0.305 C 
BRANCH  35  36
HETATM   36  N4  UNL     1      21.902   7.027   2.462  1.00  0.00     0.095 N 
HETATM   37  C7  UNL     1      21.739   7.776   3.684  1.00  0.00     0.298 C 
HETATM   38  C8  UNL     1      20.932   7.152   4.752  1.00  0.00     0.198 C 
HETATM   39  O4  UNL     1      20.974   5.766   4.775  1.00  0.00    -0.388 OA
HETATM   40  C9  UNL     1      22.139   5.335   4.150  1.00  0.00     0.198 C 
HETATM   41  C10 UNL     1      21.963   5.593   2.682  1.00  0.00     0.298 C 
ENDBRANCH  35  36
ENDBRANCH  34  35
ENDBRANCH  33  34
ENDBRANCH  30  33
ENDBRANCH   4  30
TORSDOF 8
ENDMDL
MODEL 3
REMARK VINA RESULT: -9.244611561      3.176      5.073
REMARK  8 active torsions:
REMARK  status: ('A' for Active; 'I' for Inactive)
REMARK    1  A    between atoms: C2_3  and  N2_4 
REMARK    2  A    between atoms: C3_7  and  C4_8 
REMARK    3  A    between atoms: C4_8  and  O3_9 
REMARK    4  A    between atoms: C4_8  and  N3_11 
REMARK    5  A    between atoms: N3_11  and  C5_12 
REMARK    6  A    between atoms: C5_12  and  C6_13 
REMARK    7  A    between atoms: C6_13  and  N4_14 
REMARK    8  A    between atoms: N6_22  and  C11_23 
ROOT
HETATM    1  N1  UNL     1      19.401  10.865   3.316  1.00  0.00    -0.077 NA
HETATM    2  C1  UNL     1      18.469  10.664   2.232  1.00  0.00     0.191 A 
HETATM    3  C2  UNL     1      18.740  10.792   0.904  1.00  0.00     0.179 A 
HETATM    4  C3  UNL     1      17.512  10.509   0.245  1.00  0.00     0.150 A 
HETATM    5  N5  UNL     1      16.635  10.237   1.165  1.00  0.00    -0.271 N 
ATOM      6  H5  UNL     1      15.665   9.991   0.968  1.00  0.00     0.188 HD
HETATM    7  N6  UNL     1      17.138  10.312   2.381  1.00  0.00    -0.066 N 
ENDROOT
BRANCH   7   8
HETATM    8  C11 UNL     1      16.633  10.148   3.700  1.00  0.00     0.734 C 
HETATM    9  N7  UNL     1      15.678  10.936   4.046  1.00  0.00    -0.127 N 
HETATM   10  N8  UNL     1      14.956  11.032   5.258  1.00  0.00    -0.269 N 
ATOM     11  H7  UNL     1      15.395  11.602   3.328  1.00  0.00     0.206 HD
HETATM   12  C12 UNL     1      15.028  10.246   6.296  1.00  0.00     0.157 A 
ATOM     13  H8  UNL     1      14.299  11.809   5.328  1.00  0.00     0.189 HD
HETATM   14  N9  UNL     1      14.161  10.671   7.241  1.00  0.00    -0.316 N 
HETATM   15  C15 UNL     1      15.777   9.126   6.495  1.00  0.00     0.162 A 
HETATM   16  C13 UNL     1      14.051   9.948   8.410  1.00  0.00     0.180 A 
ATOM     17  H9  UNL     1      13.599  11.509   7.092  1.00  0.00     0.170 HD
HETATM   18  S1  UNL     1      12.967  10.523   9.503  1.00  0.00    -0.040 SA
HETATM   19  N10 UNL     1      14.772   8.852   8.619  1.00  0.00    -0.298 N 
HETATM   20  C14 UNL     1      15.626   8.436   7.682  1.00  0.00     0.279 A 
ATOM     21  H10 UNL     1      14.674   8.332   9.491  1.00  0.00     0.171 HD
HETATM   22  O5  UNL     1      16.293   7.395   7.916  1.00  0.00    -0.265 OA
HETATM   23  N11 UNL     1      16.709   8.610   5.769  1.00  0.00    -0.278 N 
HETATM   24  N12 UNL     1      17.194   9.127   4.524  1.00  0.00    -0.128 N 
ATOM     25  H11 UNL     1      17.142   7.753   6.113  1.00  0.00     0.188 HD
ATOM     26  H12 UNL     1      18.058   8.708   4.180  1.00  0.00     0.205 HD
ENDBRANCH   7   8
BRANCH   3  27
HETATM   27  N2  UNL     1      19.977  11.116   0.303  1.00  0.00    -0.110 N 
HETATM   28  O1  UNL     1      20.226  12.301   0.075  1.00  0.00    -0.532 OA
HETATM   29  O2  UNL     1      20.875  10.154  -0.042  1.00  0.00    -0.532 OA
ENDBRANCH   3  27
BRANCH   4  30
HETATM   30  C4  UNL     1      17.519  10.673  -1.251  1.00  0.00     0.240 C 
BRANCH  30  31
HETATM   31  O3  UNL     1      18.711  10.395  -1.738  1.00  0.00    -0.334 OA
ATOM     32  H3  UNL     1      18.720   9.523  -2.115  1.00  0.00     0.220 HD
ENDBRANCH  30  31
BRANCH  30  33
HETATM   33  N3  UNL     1      16.497  11.032  -2.032  1.00  0.00    -0.421 NA
BRANCH  33  34
HETATM   34  C5  UNL     1      15.417  11.410  -2.859  1.00  0.00     0.251 C 
BRANCH  34  35
HETATM   35  C6  UNL     1      14.627  10.115  -3.244  1.00  0.00     0.305 C 
BRANCH  35  36
HETATM   36  N4  UNL     1      13.500   9.889  -2.382  1.00  0.00     0.095 N 
HETATM   37  C7  UNL     1      13.486  10.892  -1.345  1.00  0.00     0.298 C 
HETATM   38  C8  UNL     1      12.869  10.518  -0.056  1.00  0.00     0.198 C 
HETATM   39  O4  UNL     1      12.973   9.173   0.267  1.00  0.00    -0.388 OA
HETATM   40  C9  UNL     1      14.052   8.622  -0.417  1.00  0.00     0.198 C 
HETATM   41  C10 UNL     1      13.653   8.542  -1.861  1.00  0.00     0.298 C 
ENDBRANCH  35  36
ENDBRANCH  34  35
ENDBRANCH  33  34
ENDBRANCH  30  33
ENDBRANCH   4  30
TORSDOF 8
ENDMDL
MODEL 4
REMARK VINA RESULT: -9.194613209      3.337      5.500
REMARK  8 active torsions:
REMARK  status: ('A' for Active; 'I' for Inactive)
REMARK    1  A    between atoms: C2_3  and  N2_4 
REMARK    2  A    between atoms: C3_7  and  C4_8 
REMARK    3  A    between atoms: C4_8  and  O3_9 
REMARK    4  A    between atoms: C4_8  and  N3_11 
REMARK    5  A    between atoms: N3_11  and  C5_12 
REMARK    6  A    between atoms: C5_12  and  C6_13 
REMARK    7  A    between atoms: C6_13  and  N4_14 
REMARK    8  A    between atoms: N6_22  and  C11_23 
ROOT
HETATM    1  N1  UNL     1      19.940  10.686   4.129  1.00  0.00    -0.077 NA
HETATM    2  C1  UNL     1      19.179  10.389   2.939  1.00  0.00     0.191 A 
HETATM    3  C2  UNL     1      19.639  10.433   1.658  1.00  0.00     0.179 A 
HETATM    4  C3  UNL     1      18.524  10.076   0.851  1.00  0.00     0.150 A 
HETATM    5  N5  UNL     1      17.526   9.846   1.651  1.00  0.00    -0.271 N 
ATOM      6  H5  UNL     1      16.599   9.564   1.334  1.00  0.00     0.188 HD
HETATM    7  N6  UNL     1      17.846  10.016   2.918  1.00  0.00    -0.066 N 
ENDROOT
BRANCH   7   8
HETATM    8  C11 UNL     1      17.156   9.930   4.159  1.00  0.00     0.734 C 
HETATM    9  N7  UNL     1      16.251  10.818   4.371  1.00  0.00    -0.127 N 
HETATM   10  N8  UNL     1      15.389  11.010   5.474  1.00  0.00    -0.269 N 
ATOM     11  H7  UNL     1      16.136  11.496   3.617  1.00  0.00     0.206 HD
HETATM   12  C12 UNL     1      15.240  10.242   6.517  1.00  0.00     0.157 A 
ATOM     13  H8  UNL     1      14.813  11.853   5.451  1.00  0.00     0.189 HD
HETATM   14  N9  UNL     1      14.305  10.771   7.335  1.00  0.00    -0.316 N 
HETATM   15  C15 UNL     1      15.836   9.055   6.820  1.00  0.00     0.162 A 
HETATM   16  C13 UNL     1      13.966  10.086   8.482  1.00  0.00     0.180 A 
ATOM     17  H9  UNL     1      13.858  11.660   7.108  1.00  0.00     0.170 HD
HETATM   18  S1  UNL     1      12.813  10.791   9.418  1.00  0.00    -0.040 SA
HETATM   19  N10 UNL     1      14.535   8.926   8.792  1.00  0.00    -0.298 N 
HETATM   20  C14 UNL     1      15.458   8.407   7.980  1.00  0.00     0.279 A 
ATOM     21  H10 UNL     1      14.269   8.436   9.646  1.00  0.00     0.171 HD
HETATM   22  O5  UNL     1      15.976   7.308   8.307  1.00  0.00    -0.265 OA
HETATM   23  N11 UNL     1      16.797   8.432   6.228  1.00  0.00    -0.278 N 
HETATM   24  N12 UNL     1      17.494   8.872   5.056  1.00  0.00    -0.128 N 
ATOM     25  H11 UNL     1      17.089   7.542   6.631  1.00  0.00     0.188 HD
ATOM     26  H12 UNL     1      18.348   8.361   4.833  1.00  0.00     0.205 HD
ENDBRANCH   7   8
BRANCH   3  27
HETATM   27  N2  UNL     1      20.946  10.745   1.221  1.00  0.00    -0.110 N 
HETATM   28  O1  UNL     1      21.825   9.890   1.344  1.00  0.00    -0.532 OA
HETATM   29  O2  UNL     1      21.251  11.962   0.695  1.00  0.00    -0.532 OA
ENDBRANCH   3  27
BRANCH   4  30
HETATM   30  C4  UNL     1      18.747  10.138  -0.636  1.00  0.00     0.240 C 
BRANCH  30  31
HETATM   31  O3  UNL     1      19.991   9.815  -0.928  1.00  0.00    -0.334 OA
ATOM     32  H3  UNL     1      20.083   8.871  -0.986  1.00  0.00     0.220 HD
ENDBRANCH  30  31
BRANCH  30  33
HETATM   33  N3  UNL     1      17.854  10.453  -1.577  1.00  0.00    -0.421 NA
BRANCH  33  34
HETATM   34  C5  UNL     1      16.909  10.785  -2.573  1.00  0.00     0.251 C 
BRANCH  34  35
HETATM   35  C6  UNL     1      15.492  10.374  -2.050  1.00  0.00     0.305 C 
BRANCH  35  36
HETATM   36  N4  UNL     1      14.461  10.625  -3.019  1.00  0.00     0.095 N 
HETATM   37  C7  UNL     1      13.430   9.625  -2.885  1.00  0.00     0.298 C 
HETATM   38  C8  UNL     1      12.655   9.293  -4.098  1.00  0.00     0.198 C 
HETATM   39  O4  UNL     1      13.354   9.429  -5.288  1.00  0.00    -0.388 OA
HETATM   40  C9  UNL     1      14.718   9.335  -5.028  1.00  0.00     0.198 C 
HETATM   41  C10 UNL     1      15.110  10.596  -4.317  1.00  0.00     0.298 C 
ENDBRANCH  35  36
ENDBRANCH  34  35
ENDBRANCH  33  34
ENDBRANCH  30  33
ENDBRANCH   4  30
TORSDOF 8
ENDMDL
MODEL 5
REMARK VINA RESULT: -9.120317710      1.076      1.521
REMARK  8 active torsions:
REMARK  status: ('A' for Active; 'I' for Inactive)
REMARK    1  A    between atoms: C2_3  and  N2_4 
REMARK    2  A    between atoms: C3_7  and  C4_8 
REMARK    3  A    between atoms: C4_8  and  O3_9 
REMARK    4  A    between atoms: C4_8  and  N3_11 
REMARK    5  A    between atoms: N3_11  and  C5_12 
REMARK    6  A    between atoms: C5_12  and  C6_13 
REMARK    7  A    between atoms: C6_13  and  N4_14 
REMARK    8  A    between atoms: N6_22  and  C11_23 
ROOT
HETATM    1  N1  UNL     1      16.410  11.127   1.740  1.00  0.00    -0.077 NA
HETATM    2  C1  UNL     1      17.835  11.010   1.935  1.00  0.00     0.191 A 
HETATM    3  C2  UNL     1      18.796  11.193   0.988  1.00  0.00     0.179 A 
HETATM    4  C3  UNL     1      20.028  10.956   1.656  1.00  0.00     0.150 A 
HETATM    5  N5  UNL     1      19.747  10.669   2.892  1.00  0.00    -0.271 N 
ATOM      6  H5  UNL     1      20.452  10.459   3.599  1.00  0.00     0.188 HD
HETATM    7  N6  UNL     1      18.451  10.681   3.132  1.00  0.00    -0.066 N 
ENDROOT
BRANCH   7   8
HETATM    8  C11 UNL     1      17.625  10.421   4.259  1.00  0.00     0.734 C 
HETATM    9  N7  UNL     1      16.635  11.221   4.437  1.00  0.00    -0.127 N 
HETATM   10  N8  UNL     1      15.632  11.241   5.433  1.00  0.00    -0.269 N 
ATOM     11  H7  UNL     1      16.560  11.966   3.743  1.00  0.00     0.206 HD
HETATM   12  C12 UNL     1      15.418  10.360   6.370  1.00  0.00     0.157 A 
ATOM     13  H8  UNL     1      15.000  12.042   5.417  1.00  0.00     0.189 HD
HETATM   14  N9  UNL     1      14.352  10.739   7.107  1.00  0.00    -0.316 N 
HETATM   15  C15 UNL     1      16.063   9.189   6.632  1.00  0.00     0.162 A 
HETATM   16  C13 UNL     1      13.931   9.917   8.131  1.00  0.00     0.180 A 
ATOM     17  H9  UNL     1      13.869  11.616   6.911  1.00  0.00     0.170 HD
HETATM   18  S1  UNL     1      12.621  10.444   8.973  1.00  0.00    -0.040 SA
HETATM   19  N10 UNL     1      14.546   8.770   8.399  1.00  0.00    -0.298 N 
HETATM   20  C14 UNL     1      15.598   8.400   7.667  1.00  0.00     0.279 A 
ATOM     21  H10 UNL     1      14.217   8.178   9.161  1.00  0.00     0.171 HD
HETATM   22  O5  UNL     1      16.156   7.309   7.951  1.00  0.00    -0.265 OA
HETATM   23  N11 UNL     1      17.134   8.695   6.112  1.00  0.00    -0.278 N 
HETATM   24  N12 UNL     1      17.932   9.300   5.087  1.00  0.00    -0.128 N 
ATOM     25  H11 UNL     1      17.443   7.789   6.463  1.00  0.00     0.188 HD
ATOM     26  H12 UNL     1      18.843   8.870   4.928  1.00  0.00     0.205 HD
ENDBRANCH   7   8
BRANCH   3  27
HETATM   27  N2  UNL     1      18.613  11.562  -0.364  1.00  0.00    -0.110 N 
HETATM   28  O1  UNL     1      18.667  12.757  -0.659  1.00  0.00    -0.532 OA
HETATM   29  O2  UNL     1      18.363  10.635  -1.328  1.00  0.00    -0.532 OA
ENDBRANCH   3  27
BRANCH   4  30
HETATM   30  C4  UNL     1      21.260  11.007   0.794  1.00  0.00     0.240 C 
BRANCH  30  31
HETATM   31  O3  UNL     1      21.529  12.250   0.449  1.00  0.00    -0.334 OA
ATOM     32  H3  UNL     1      20.936  12.851   0.886  1.00  0.00     0.220 HD
ENDBRANCH  30  31
BRANCH  30  33
HETATM   33  N3  UNL     1      22.024   9.981   0.409  1.00  0.00    -0.421 NA
BRANCH  33  34
HETATM   34  C5  UNL     1      22.833   8.898   0.002  1.00  0.00     0.251 C 
BRANCH  34  35
HETATM   35  C6  UNL     1      22.328   7.614   0.741  1.00  0.00     0.305 C 
BRANCH  35  36
HETATM   36  N4  UNL     1      22.628   7.641   2.145  1.00  0.00     0.095 N 
HETATM   37  C7  UNL     1      23.544   6.570   2.456  1.00  0.00     0.298 C 
HETATM   38  C8  UNL     1      23.490   6.016   3.824  1.00  0.00     0.198 C 
HETATM   39  O4  UNL     1      22.240   6.070   4.423  1.00  0.00    -0.388 OA
HETATM   40  C9  UNL     1      21.264   6.141   3.433  1.00  0.00     0.198 C 
HETATM   41  C10 UNL     1      21.357   7.513   2.834  1.00  0.00     0.298 C 
ENDBRANCH  35  36
ENDBRANCH  34  35
ENDBRANCH  33  34
ENDBRANCH  30  33
ENDBRANCH   4  30
TORSDOF 8
ENDMDL
