MODEL 1
REMARK VINA RESULT: -8.910960044      0.000      0.000
REMARK  11 active torsions:
REMARK  status: ('A' for Active; 'I' for Inactive)
REMARK    1  A    between atoms: C2_2  and  O1_3 
REMARK    2  A    between atoms: C2_2  and  C3_5 
REMARK    3  A    between atoms: C6_10  and  N2_11 
REMARK    4  A    between atoms: C11_22  and  N6_23 
REMARK    5  A    between atoms: N6_23  and  C12_25 
REMARK    6  A    between atoms: C12_25  and  C13_26 
REMARK    7  A    between atoms: C17_33  and  N8_34 
REMARK    8  A    between atoms: N8_34  and  C18_36 
REMARK    9  A    between atoms: C18_36  and  C19_37 
REMARK   10  A    between atoms: C19_37  and  O3_38 
REMARK   11  A    between atoms: N10_43  and  O4_44 
ROOT
HETATM    1  C3  UNL     1      15.294   8.784   6.982  1.00  0.00     0.139 A 
HETATM    2  N1  UNL     1      16.627   8.640   6.890  1.00  0.00    -0.337 N 
ATOM      3  H1  UNL     1      17.285   8.461   7.649  1.00  0.00     0.167 HD
HETATM    4  C4  UNL     1      16.906   8.782   5.586  1.00  0.00     0.114 A 
HETATM    5  C5  UNL     1      15.770   9.015   4.848  1.00  0.00     0.140 A 
HETATM    6  C6  UNL     1      15.866   9.183   3.483  1.00  0.00     0.151 A 
HETATM    7  N4  UNL     1      17.083   9.110   2.932  1.00  0.00    -0.261 N 
ATOM      8  H4  UNL     1      17.137   9.235   1.921  1.00  0.00     0.190 HD
HETATM    9  N5  UNL     1      18.200   8.895   3.555  1.00  0.00    -0.065 N 
HETATM   10  C11 UNL     1      19.388   8.839   2.932  1.00  0.00     0.719 A 
HETATM   11  N7  UNL     1      20.499   8.605   3.724  1.00  0.00    -0.020 N 
ATOM     12  H7  UNL     1      21.411   8.559   3.270  1.00  0.00     0.203 HD
HETATM   13  C17 UNL     1      20.444   8.439   5.040  1.00  0.00     0.694 A 
HETATM   14  N9  UNL     1      19.240   8.502   5.623  1.00  0.00    -0.171 N 
ATOM     15  H9  UNL     1      19.174   8.376   6.632  1.00  0.00     0.186 HD
HETATM   16  C20 UNL     1      18.113   8.727   4.919  1.00  0.00     0.190 A 
HETATM   17  N10 UNL     1      14.771   9.011   5.744  1.00  0.00    -0.204 N 
ENDROOT
BRANCH   6  18
HETATM   18  N2  UNL     1      14.733   9.443   2.679  1.00  0.00    -0.361 N 
HETATM   19  C7  UNL     1      13.984   8.474   1.921  1.00  0.00     0.152 C 
HETATM   20  C8  UNL     1      12.527   8.441   2.366  1.00  0.00     0.252 C 
HETATM   21  N3  UNL     1      12.113   9.743   2.865  1.00  0.00    -0.072 N 
HETATM   22  C9  UNL     1      12.780  10.781   2.079  1.00  0.00     0.252 C 
ATOM     23  H32 UNL     1      11.099   9.853   2.876  1.00  0.00     0.277 HD
ATOM     24  H31 UNL     1      12.277   9.847   3.866  1.00  0.00     0.277 HD
HETATM   25  C10 UNL     1      14.230  10.824   2.590  1.00  0.00     0.152 C 
ENDBRANCH   6  18
BRANCH  17  26
HETATM   26  O4  UNL     1      13.451   9.203   5.431  1.00  0.00    -0.281 OA
ATOM     27  H4  UNL     1      13.009   8.932   4.635  1.00  0.00     0.245 HD
ENDBRANCH  17  26
BRANCH   1  28
HETATM   28  C2  UNL     1      14.498   8.708   8.242  1.00  0.00     0.184 C 
HETATM   29  C1  UNL     1      14.324  10.054   8.886  1.00  0.00     0.048 C 
BRANCH  28  30
HETATM   30  O1  UNL     1      15.158   7.879   9.137  1.00  0.00    -0.388 OA
ATOM     31  H1  UNL     1      14.630   7.101   9.269  1.00  0.00     0.210 HD
ENDBRANCH  28  30
ENDBRANCH   1  28
BRANCH  10  32
HETATM   32  N6  UNL     1      19.521   8.980   1.713  1.00  0.00    -0.197 N 
ATOM     33  H6  UNL     1      19.433   8.059   1.283  1.00  0.00     0.183 HD
BRANCH  32  34
HETATM   34  C12 UNL     1      19.745   9.897   0.699  1.00  0.00     0.143 C 
BRANCH  34  35
HETATM   35  C13 UNL     1      18.510  10.294  -0.043  1.00  0.00     0.090 A 
HETATM   36  C14 UNL     1      18.440  10.536  -1.382  1.00  0.00     0.040 A 
HETATM   37  C15 UNL     1      17.117  10.875  -1.669  1.00  0.00     0.027 A 
HETATM   38  C16 UNL     1      16.466  10.812  -0.460  1.00  0.00     0.142 A 
HETATM   39  O2  UNL     1      17.331  10.465   0.468  1.00  0.00    -0.321 OA
ENDBRANCH  34  35
ENDBRANCH  32  34
ENDBRANCH  10  32
BRANCH  13  40
HETATM   40  N8  UNL     1      21.525   8.219   5.745  1.00  0.00    -0.223 N 
ATOM     41  H8  UNL     1      21.860   7.259   5.811  1.00  0.00     0.177 HD
BRANCH  40  42
HETATM   42  C18 UNL     1      22.266   9.225   6.425  1.00  0.00     0.164 C 
BRANCH  42  43
HETATM   43  C19 UNL     1      23.203   8.517   7.412  1.00  0.00     0.184 C 
BRANCH  43  44
HETATM   44  O3  UNL     1      22.684   8.747   8.697  1.00  0.00    -0.399 OA
ATOM     45  H3  UNL     1      23.144   8.160   9.286  1.00  0.00     0.209 HD
ENDBRANCH  43  44
ENDBRANCH  42  43
ENDBRANCH  40  42
ENDBRANCH  13  40
TORSDOF 11
ENDMDL
MODEL 2
REMARK VINA RESULT: -8.754173183      1.922      8.343
REMARK  11 active torsions:
REMARK  status: ('A' for Active; 'I' for Inactive)
REMARK    1  A    between atoms: C2_2  and  O1_3 
REMARK    2  A    between atoms: C2_2  and  C3_5 
REMARK    3  A    between atoms: C6_10  and  N2_11 
REMARK    4  A    between atoms: C11_22  and  N6_23 
REMARK    5  A    between atoms: N6_23  and  C12_25 
REMARK    6  A    between atoms: C12_25  and  C13_26 
REMARK    7  A    between atoms: C17_33  and  N8_34 
REMARK    8  A    between atoms: N8_34  and  C18_36 
REMARK    9  A    between atoms: C18_36  and  C19_37 
REMARK   10  A    between atoms: C19_37  and  O3_38 
REMARK   11  A    between atoms: N10_43  and  O4_44 
ROOT
HETATM    1  C3  UNL     1      19.281   9.650   1.093  1.00  0.00     0.139 A 
HETATM    2  N1  UNL     1      18.010   9.884   1.464  1.00  0.00    -0.337 N 
ATOM      3  H1  UNL     1      17.270  10.309   0.906  1.00  0.00     0.167 HD
HETATM    4  C4  UNL     1      17.926   9.439   2.727  1.00  0.00     0.114 A 
HETATM    5  C5  UNL     1      19.124   8.926   3.163  1.00  0.00     0.140 A 
HETATM    6  C6  UNL     1      19.223   8.417   4.440  1.00  0.00     0.151 A 
HETATM    7  N4  UNL     1      18.128   8.448   5.208  1.00  0.00    -0.261 N 
ATOM      8  H4  UNL     1      18.216   8.067   6.150  1.00  0.00     0.190 HD
HETATM    9  N5  UNL     1      16.964   8.913   4.873  1.00  0.00    -0.065 N 
HETATM   10  C11 UNL     1      15.908   8.913   5.702  1.00  0.00     0.719 A 
HETATM   11  N7  UNL     1      14.728   9.445   5.212  1.00  0.00    -0.020 N 
ATOM     12  H7  UNL     1      13.913   9.454   5.826  1.00  0.00     0.203 HD
HETATM   13  C17 UNL     1      14.596   9.943   3.988  1.00  0.00     0.694 A 
HETATM   14  N9  UNL     1      15.673   9.924   3.193  1.00  0.00    -0.171 N 
ATOM     15  H9  UNL     1      15.596  10.301   2.248  1.00  0.00     0.186 HD
HETATM   16  C20 UNL     1      16.857   9.424   3.599  1.00  0.00     0.190 A 
HETATM   17  N10 UNL     1      19.959   9.068   2.122  1.00  0.00    -0.204 N 
ENDROOT
BRANCH   6  18
HETATM   18  N2  UNL     1      20.435   7.894   4.947  1.00  0.00    -0.361 N 
HETATM   19  C7  UNL     1      20.861   6.520   4.890  1.00  0.00     0.152 C 
HETATM   20  C8  UNL     1      22.179   6.388   4.137  1.00  0.00     0.252 C 
HETATM   21  N3  UNL     1      22.975   7.596   4.281  1.00  0.00    -0.072 N 
HETATM   22  C9  UNL     1      22.768   8.138   5.624  1.00  0.00     0.252 C 
ATOM     23  H32 UNL     1      23.961   7.441   4.070  1.00  0.00     0.277 HD
ATOM     24  H31 UNL     1      22.780   8.280   3.550  1.00  0.00     0.277 HD
HETATM   25  C10 UNL     1      21.387   8.813   5.593  1.00  0.00     0.152 C 
ENDBRANCH   6  18
BRANCH  17  26
HETATM   26  O4  UNL     1      21.272   8.677   2.126  1.00  0.00    -0.281 OA
ATOM     27  H4  UNL     1      21.734   8.238   2.830  1.00  0.00     0.245 HD
ENDBRANCH  17  26
BRANCH   1  28
HETATM   28  C2  UNL     1      19.870   9.974  -0.239  1.00  0.00     0.184 C 
HETATM   29  C1  UNL     1      18.832  10.435  -1.223  1.00  0.00     0.048 C 
BRANCH  28  30
HETATM   30  O1  UNL     1      20.476   8.834  -0.747  1.00  0.00    -0.388 OA
ATOM     31  H1  UNL     1      20.753   9.015  -1.638  1.00  0.00     0.210 HD
ENDBRANCH  28  30
ENDBRANCH   1  28
BRANCH  10  32
HETATM   32  N6  UNL     1      15.949   8.465   6.852  1.00  0.00    -0.197 N 
ATOM     33  H6  UNL     1      16.907   8.167   7.035  1.00  0.00     0.183 HD
BRANCH  32  34
HETATM   34  C12 UNL     1      15.204   8.209   7.992  1.00  0.00     0.143 C 
BRANCH  34  35
HETATM   35  C13 UNL     1      14.561   9.422   8.582  1.00  0.00     0.090 A 
HETATM   36  C14 UNL     1      15.008  10.093   9.680  1.00  0.00     0.040 A 
HETATM   37  C15 UNL     1      14.130  11.158   9.895  1.00  0.00     0.027 A 
HETATM   38  C16 UNL     1      13.196  11.053   8.891  1.00  0.00     0.142 A 
HETATM   39  O2  UNL     1      13.495  10.014   8.144  1.00  0.00    -0.321 OA
ENDBRANCH  34  35
ENDBRANCH  32  34
ENDBRANCH  10  32
BRANCH  13  40
HETATM   40  N8  UNL     1      13.457  10.434   3.571  1.00  0.00    -0.223 N 
ATOM     41  H8  UNL     1      13.062  11.218   4.090  1.00  0.00     0.177 HD
BRANCH  40  42
HETATM   42  C18 UNL     1      12.731   9.954   2.447  1.00  0.00     0.164 C 
BRANCH  42  43
HETATM   43  C19 UNL     1      12.093   8.618   2.849  1.00  0.00     0.184 C 
BRANCH  43  44
HETATM   44  O3  UNL     1      10.974   8.928   3.640  1.00  0.00    -0.399 OA
ATOM     45  H3  UNL     1      10.398   9.458   3.102  1.00  0.00     0.209 HD
ENDBRANCH  43  44
ENDBRANCH  42  43
ENDBRANCH  40  42
ENDBRANCH  13  40
TORSDOF 11
ENDMDL
MODEL 3
REMARK VINA RESULT: -8.751348337      1.472      2.173
REMARK  11 active torsions:
REMARK  status: ('A' for Active; 'I' for Inactive)
REMARK    1  A    between atoms: C2_2  and  O1_3 
REMARK    2  A    between atoms: C2_2  and  C3_5 
REMARK    3  A    between atoms: C6_10  and  N2_11 
REMARK    4  A    between atoms: C11_22  and  N6_23 
REMARK    5  A    between atoms: N6_23  and  C12_25 
REMARK    6  A    between atoms: C12_25  and  C13_26 
REMARK    7  A    between atoms: C17_33  and  N8_34 
REMARK    8  A    between atoms: N8_34  and  C18_36 
REMARK    9  A    between atoms: C18_36  and  C19_37 
REMARK   10  A    between atoms: C19_37  and  O3_38 
REMARK   11  A    between atoms: N10_43  and  O4_44 
ROOT
HETATM    1  C3  UNL     1      15.420   8.811   6.917  1.00  0.00     0.139 A 
HETATM    2  N1  UNL     1      16.754   8.664   6.837  1.00  0.00    -0.337 N 
ATOM      3  H1  UNL     1      17.405   8.486   7.602  1.00  0.00     0.167 HD
HETATM    4  C4  UNL     1      17.045   8.801   5.535  1.00  0.00     0.114 A 
HETATM    5  C5  UNL     1      15.915   9.034   4.787  1.00  0.00     0.140 A 
HETATM    6  C6  UNL     1      16.023   9.197   3.422  1.00  0.00     0.151 A 
HETATM    7  N4  UNL     1      17.245   9.120   2.881  1.00  0.00    -0.261 N 
ATOM      8  H4  UNL     1      17.308   9.241   1.871  1.00  0.00     0.190 HD
HETATM    9  N5  UNL     1      18.356   8.905   3.515  1.00  0.00    -0.065 N 
HETATM   10  C11 UNL     1      19.549   8.843   2.903  1.00  0.00     0.719 A 
HETATM   11  N7  UNL     1      20.653   8.610   3.705  1.00  0.00    -0.020 N 
ATOM     12  H7  UNL     1      21.569   8.560   3.259  1.00  0.00     0.203 HD
HETATM   13  C17 UNL     1      20.586   8.448   5.021  1.00  0.00     0.694 A 
HETATM   14  N9  UNL     1      19.378   8.516   5.593  1.00  0.00    -0.171 N 
ATOM     15  H9  UNL     1      19.302   8.394   6.602  1.00  0.00     0.186 HD
HETATM   16  C20 UNL     1      18.257   8.741   4.878  1.00  0.00     0.190 A 
HETATM   17  N10 UNL     1      14.909   9.035   5.674  1.00  0.00    -0.204 N 
ENDROOT
BRANCH   6  18
HETATM   18  N2  UNL     1      14.897   9.456   2.607  1.00  0.00    -0.361 N 
HETATM   19  C7  UNL     1      14.159   8.488   1.839  1.00  0.00     0.152 C 
HETATM   20  C8  UNL     1      12.697   8.450   2.269  1.00  0.00     0.252 C 
HETATM   21  N3  UNL     1      12.276   9.749   2.767  1.00  0.00    -0.072 N 
HETATM   22  C9  UNL     1      12.948  10.791   1.991  1.00  0.00     0.252 C 
ATOM     23  H32 UNL     1      11.261   9.857   2.768  1.00  0.00     0.277 HD
ATOM     24  H31 UNL     1      12.430   9.851   3.770  1.00  0.00     0.277 HD
HETATM   25  C10 UNL     1      14.392  10.837   2.517  1.00  0.00     0.152 C 
ENDBRANCH   6  18
BRANCH  17  26
HETATM   26  O4  UNL     1      13.592   9.229   5.348  1.00  0.00    -0.281 OA
ATOM     27  H4  UNL     1      13.222   9.281   4.475  1.00  0.00     0.245 HD
ENDBRANCH  17  26
BRANCH   1  28
HETATM   28  C2  UNL     1      14.613   8.742   8.170  1.00  0.00     0.184 C 
HETATM   29  C1  UNL     1      14.478  10.083   8.834  1.00  0.00     0.048 C 
BRANCH  28  30
HETATM   30  O1  UNL     1      15.240   7.879   9.056  1.00  0.00    -0.388 OA
ATOM     31  H1  UNL     1      15.135   8.224   9.935  1.00  0.00     0.210 HD
ENDBRANCH  28  30
ENDBRANCH   1  28
BRANCH  10  32
HETATM   32  N6  UNL     1      19.694   8.979   1.684  1.00  0.00    -0.197 N 
ATOM     33  H6  UNL     1      19.170   8.234   1.225  1.00  0.00     0.183 HD
BRANCH  32  34
HETATM   34  C12 UNL     1      20.287   9.747   0.695  1.00  0.00     0.143 C 
BRANCH  34  35
HETATM   35  C13 UNL     1      21.513   9.131   0.103  1.00  0.00     0.090 A 
HETATM   36  C14 UNL     1      22.553   8.610   0.814  1.00  0.00     0.040 A 
HETATM   37  C15 UNL     1      23.487   8.140  -0.112  1.00  0.00     0.027 A 
HETATM   38  C16 UNL     1      22.935   8.415  -1.341  1.00  0.00     0.142 A 
HETATM   39  O2  UNL     1      21.771   8.999  -1.160  1.00  0.00    -0.321 OA
ENDBRANCH  34  35
ENDBRANCH  32  34
ENDBRANCH  10  32
BRANCH  13  40
HETATM   40  N8  UNL     1      21.661   8.229   5.736  1.00  0.00    -0.223 N 
ATOM     41  H8  UNL     1      21.955   7.261   5.863  1.00  0.00     0.177 HD
BRANCH  40  42
HETATM   42  C18 UNL     1      22.446   9.244   6.348  1.00  0.00     0.164 C 
BRANCH  42  43
HETATM   43  C19 UNL     1      23.111   8.626   7.586  1.00  0.00     0.184 C 
BRANCH  43  44
HETATM   44  O3  UNL     1      22.222   8.814   8.657  1.00  0.00    -0.399 OA
ATOM     45  H3  UNL     1      21.542   9.401   8.347  1.00  0.00     0.209 HD
ENDBRANCH  43  44
ENDBRANCH  42  43
ENDBRANCH  40  42
ENDBRANCH  13  40
TORSDOF 11
ENDMDL
MODEL 4
REMARK VINA RESULT: -8.680284255      1.950      5.863
REMARK  11 active torsions:
REMARK  status: ('A' for Active; 'I' for Inactive)
REMARK    1  A    between atoms: C2_2  and  O1_3 
REMARK    2  A    between atoms: C2_2  and  C3_5 
REMARK    3  A    between atoms: C6_10  and  N2_11 
REMARK    4  A    between atoms: C11_22  and  N6_23 
REMARK    5  A    between atoms: N6_23  and  C12_25 
REMARK    6  A    between atoms: C12_25  and  C13_26 
REMARK    7  A    between atoms: C17_33  and  N8_34 
REMARK    8  A    between atoms: N8_34  and  C18_36 
REMARK    9  A    between atoms: C18_36  and  C19_37 
REMARK   10  A    between atoms: C19_37  and  O3_38 
REMARK   11  A    between atoms: N10_43  and  O4_44 
ROOT
HETATM    1  C3  UNL     1      19.540   8.311   4.777  1.00  0.00     0.139 A 
HETATM    2  N1  UNL     1      18.317   8.287   5.335  1.00  0.00    -0.337 N 
ATOM      3  H1  UNL     1      18.048   7.860   6.222  1.00  0.00     0.167 HD
HETATM    4  C4  UNL     1      17.526   8.948   4.476  1.00  0.00     0.114 A 
HETATM    5  C5  UNL     1      18.229   9.389   3.380  1.00  0.00     0.140 A 
HETATM    6  C6  UNL     1      17.576  10.093   2.390  1.00  0.00     0.151 A 
HETATM    7  N4  UNL     1      16.266  10.317   2.547  1.00  0.00    -0.261 N 
ATOM      8  H4  UNL     1      15.798  10.840   1.808  1.00  0.00     0.190 HD
HETATM    9  N5  UNL     1      15.533   9.935   3.547  1.00  0.00    -0.065 N 
HETATM   10  C11 UNL     1      14.219  10.195   3.635  1.00  0.00     0.719 A 
HETATM   11  N7  UNL     1      13.562   9.724   4.758  1.00  0.00    -0.020 N 
ATOM     12  H7  UNL     1      12.562   9.911   4.843  1.00  0.00     0.203 HD
HETATM   13  C17 UNL     1      14.157   9.044   5.729  1.00  0.00     0.694 A 
HETATM   14  N9  UNL     1      15.469   8.806   5.605  1.00  0.00    -0.171 N 
ATOM     15  H9  UNL     1      15.948   8.285   6.339  1.00  0.00     0.186 HD
HETATM   16  C20 UNL     1      16.177   9.231   4.540  1.00  0.00     0.190 A 
HETATM   17  N10 UNL     1      19.489   8.979   3.591  1.00  0.00    -0.204 N 
ENDROOT
BRANCH   6  18
HETATM   18  N2  UNL     1      18.245  10.555   1.234  1.00  0.00    -0.361 N 
HETATM   19  C7  UNL     1      18.863  11.844   1.063  1.00  0.00     0.152 C 
HETATM   20  C8  UNL     1      20.348  11.701   0.753  1.00  0.00     0.252 C 
HETATM   21  N3  UNL     1      20.609  10.452   0.056  1.00  0.00    -0.072 N 
HETATM   22  C9  UNL     1      19.483  10.168  -0.835  1.00  0.00     0.252 C 
ATOM     23  H32 UNL     1      21.503  10.459  -0.436  1.00  0.00     0.277 HD
ATOM     24  H31 UNL     1      20.804   9.682   0.695  1.00  0.00     0.277 HD
HETATM   25  C10 UNL     1      18.353   9.655   0.072  1.00  0.00     0.152 C 
ENDBRANCH   6  18
BRANCH  17  26
HETATM   26  O4  UNL     1      20.532   9.215   2.733  1.00  0.00    -0.281 OA
ATOM     27  H4  UNL     1      20.741  10.035   2.303  1.00  0.00     0.245 HD
ENDBRANCH  17  26
BRANCH   1  28
HETATM   28  C2  UNL     1      20.771   7.701   5.359  1.00  0.00     0.184 C 
HETATM   29  C1  UNL     1      21.641   8.717   6.043  1.00  0.00     0.048 C 
BRANCH  28  30
HETATM   30  O1  UNL     1      21.505   7.117   4.337  1.00  0.00    -0.388 OA
ATOM     31  H1  UNL     1      21.105   7.355   3.509  1.00  0.00     0.210 HD
ENDBRANCH  28  30
ENDBRANCH   1  28
BRANCH  10  32
HETATM   32  N6  UNL     1      13.594  10.825   2.775  1.00  0.00    -0.197 N 
ATOM     33  H6  UNL     1      13.802  11.815   2.905  1.00  0.00     0.183 HD
BRANCH  32  34
HETATM   34  C12 UNL     1      12.721  10.714   1.705  1.00  0.00     0.143 C 
BRANCH  34  35
HETATM   35  C13 UNL     1      13.390  10.397   0.408  1.00  0.00     0.090 A 
HETATM   36  C14 UNL     1      12.996  10.855  -0.814  1.00  0.00     0.040 A 
HETATM   37  C15 UNL     1      13.882  10.329  -1.755  1.00  0.00     0.027 A 
HETATM   38  C16 UNL     1      14.769   9.575  -1.022  1.00  0.00     0.142 A 
HETATM   39  O2  UNL     1      14.435   9.647   0.247  1.00  0.00    -0.321 OA
ENDBRANCH  34  35
ENDBRANCH  32  34
ENDBRANCH  10  32
BRANCH  13  40
HETATM   40  N8  UNL     1      13.490   8.620   6.773  1.00  0.00    -0.223 N 
ATOM     41  H8  UNL     1      12.666   9.150   7.054  1.00  0.00     0.177 HD
BRANCH  40  42
HETATM   42  C18 UNL     1      13.833   7.474   7.542  1.00  0.00     0.164 C 
BRANCH  42  43
HETATM   43  C19 UNL     1      14.770   7.938   8.665  1.00  0.00     0.184 C 
BRANCH  43  44
HETATM   44  O3  UNL     1      16.078   7.642   8.247  1.00  0.00    -0.399 OA
ATOM     45  H3  UNL     1      16.606   7.573   9.034  1.00  0.00     0.209 HD
ENDBRANCH  43  44
ENDBRANCH  42  43
ENDBRANCH  40  42
ENDBRANCH  13  40
TORSDOF 11
ENDMDL
MODEL 5
REMARK VINA RESULT: -8.454226185      1.043      1.104
REMARK  11 active torsions:
REMARK  status: ('A' for Active; 'I' for Inactive)
REMARK    1  A    between atoms: C2_2  and  O1_3 
REMARK    2  A    between atoms: C2_2  and  C3_5 
REMARK    3  A    between atoms: C6_10  and  N2_11 
REMARK    4  A    between atoms: C11_22  and  N6_23 
REMARK    5  A    between atoms: N6_23  and  C12_25 
REMARK    6  A    between atoms: C12_25  and  C13_26 
REMARK    7  A    between atoms: C17_33  and  N8_34 
REMARK    8  A    between atoms: N8_34  and  C18_36 
REMARK    9  A    between atoms: C18_36  and  C19_37 
REMARK   10  A    between atoms: C19_37  and  O3_38 
REMARK   11  A    between atoms: N10_43  and  O4_44 
ROOT
HETATM    1  C3  UNL     1      15.884   8.777   6.480  1.00  0.00     0.139 A 
HETATM    2  N1  UNL     1      17.197   8.902   6.225  1.00  0.00    -0.337 N 
ATOM      3  H1  UNL     1      17.968   8.817   6.887  1.00  0.00     0.167 HD
HETATM    4  C4  UNL     1      17.276   9.162   4.911  1.00  0.00     0.114 A 
HETATM    5  C5  UNL     1      16.032   9.204   4.329  1.00  0.00     0.140 A 
HETATM    6  C6  UNL     1      15.919   9.457   2.978  1.00  0.00     0.151 A 
HETATM    7  N4  UNL     1      17.047   9.651   2.286  1.00  0.00    -0.261 N 
ATOM      8  H4  UNL     1      16.948   9.836   1.288  1.00  0.00     0.190 HD
HETATM    9  N5  UNL     1      18.255   9.629   2.758  1.00  0.00    -0.065 N 
HETATM   10  C11 UNL     1      19.343   9.837   2.000  1.00  0.00     0.719 A 
HETATM   11  N7  UNL     1      20.570   9.787   2.639  1.00  0.00    -0.020 N 
ATOM     12  H7  UNL     1      21.410   9.943   2.081  1.00  0.00     0.203 HD
HETATM   13  C17 UNL     1      20.716   9.546   3.937  1.00  0.00     0.694 A 
HETATM   14  N9  UNL     1      19.606   9.343   4.657  1.00  0.00    -0.171 N 
ATOM     15  H9  UNL     1      19.694   9.156   5.656  1.00  0.00     0.186 HD
HETATM   16  C20 UNL     1      18.376   9.378   4.107  1.00  0.00     0.190 A 
HETATM   17  N10 UNL     1      15.174   8.959   5.331  1.00  0.00    -0.204 N 
ENDROOT
BRANCH   6  18
HETATM   18  N2  UNL     1      14.664   9.529   2.331  1.00  0.00    -0.361 N 
HETATM   19  C7  UNL     1      13.999   8.458   1.637  1.00  0.00     0.152 C 
HETATM   20  C8  UNL     1      12.638   8.167   2.257  1.00  0.00     0.252 C 
HETATM   21  N3  UNL     1      12.078   9.369   2.853  1.00  0.00    -0.072 N 
HETATM   22  C9  UNL     1      12.453  10.519   2.029  1.00  0.00     0.252 C 
ATOM     23  H32 UNL     1      11.070   9.302   2.993  1.00  0.00     0.277 HD
ATOM     24  H31 UNL     1      12.350   9.484   3.829  1.00  0.00     0.277 HD
HETATM   25  C10 UNL     1      13.927  10.804   2.358  1.00  0.00     0.152 C 
ENDBRANCH   6  18
BRANCH  17  26
HETATM   26  O4  UNL     1      13.812   8.905   5.187  1.00  0.00    -0.281 OA
ATOM     27  H4  UNL     1      13.308   9.176   4.430  1.00  0.00     0.245 HD
ENDBRANCH  17  26
BRANCH   1  28
HETATM   28  C2  UNL     1      15.283   8.483   7.814  1.00  0.00     0.184 C 
HETATM   29  C1  UNL     1      15.278   9.688   8.713  1.00  0.00     0.048 C 
BRANCH  28  30
HETATM   30  O1  UNL     1      16.027   7.486   8.427  1.00  0.00    -0.388 OA
ATOM     31  H1  UNL     1      15.458   7.013   9.023  1.00  0.00     0.210 HD
ENDBRANCH  28  30
ENDBRANCH   1  28
BRANCH  10  32
HETATM   32  N6  UNL     1      19.291  10.063   0.787  1.00  0.00    -0.197 N 
ATOM     33  H6  UNL     1      19.522   9.197   0.301  1.00  0.00     0.183 HD
BRANCH  32  34
HETATM   34  C12 UNL     1      19.043  11.031  -0.172  1.00  0.00     0.143 C 
BRANCH  34  35
HETATM   35  C13 UNL     1      17.665  10.976  -0.747  1.00  0.00     0.090 A 
HETATM   36  C14 UNL     1      17.363  10.668  -2.040  1.00  0.00     0.040 A 
HETATM   37  C15 UNL     1      15.974  10.727  -2.162  1.00  0.00     0.027 A 
HETATM   38  C16 UNL     1      15.524  11.073  -0.909  1.00  0.00     0.142 A 
HETATM   39  O2  UNL     1      16.560  11.208  -0.111  1.00  0.00    -0.321 OA
ENDBRANCH  34  35
ENDBRANCH  32  34
ENDBRANCH  10  32
BRANCH  13  40
HETATM   40  N8  UNL     1      21.900   9.508   4.494  1.00  0.00    -0.223 N 
ATOM     41  H8  UNL     1      22.515  10.309   4.353  1.00  0.00     0.177 HD
BRANCH  40  42
HETATM   42  C18 UNL     1      22.389   8.430   5.282  1.00  0.00     0.164 C 
BRANCH  42  43
HETATM   43  C19 UNL     1      22.594   8.959   6.708  1.00  0.00     0.184 C 
BRANCH  43  44
HETATM   44  O3  UNL     1      21.355   8.848   7.360  1.00  0.00    -0.399 OA
ATOM     45  H3  UNL     1      20.872   9.643   7.168  1.00  0.00     0.209 HD
ENDBRANCH  43  44
ENDBRANCH  42  43
ENDBRANCH  40  42
ENDBRANCH  13  40
TORSDOF 11
ENDMDL
