MODEL 1
REMARK VINA RESULT: -9.949065440      0.000      0.000
REMARK  8 active torsions:
REMARK  status: ('A' for Active; 'I' for Inactive)
REMARK    1  A    between atoms: C3_4  and  C4_5 
REMARK    2  A    between atoms: C5_12  and  C6_13 
REMARK    3  A    between atoms: N5_15  and  C8_16 
REMARK    4  A    between atoms: C8_16  and  O1_17 
REMARK    5  A    between atoms: O1_17  and  C9_18 
REMARK    6  A    between atoms: C9_18  and  O2_19 
REMARK    7  A    between atoms: C9_18  and  C10_21 
REMARK    8  A    between atoms: C10_21  and  N6_22 
ROOT
HETATM    1  C8  UNL     1      20.642  11.648   0.599  1.00  0.00     0.320 C 
ENDROOT
BRANCH   1   2
HETATM    2  N5  UNL     1      20.667  11.124   1.972  1.00  0.00    -0.263 N 
HETATM    3  C7  UNL     1      21.698  10.598   2.634  1.00  0.00     0.147 A 
HETATM    4  C6  UNL     1      21.299  10.229   3.896  1.00  0.00     0.097 A 
HETATM    5  N12 UNL     1      19.994  10.555   3.957  1.00  0.00    -0.282 N 
HETATM    6  N11 UNL     1      19.635  11.084   2.811  1.00  0.00    -0.238 N 
ATOM      7  H12 UNL     1      19.385  10.415   4.762  1.00  0.00     0.188 HD
ATOM      8  H11 UNL     1      18.696  11.417   2.593  1.00  0.00     0.208 HD
BRANCH   4   9
HETATM    9  C5  UNL     1      22.121   9.617   4.930  1.00  0.00     0.108 A 
HETATM   10  C4  UNL     1      22.220   8.271   5.184  1.00  0.00     0.093 A 
HETATM   11  N2  UNL     1      23.085   8.121   6.220  1.00  0.00    -0.283 N 
HETATM   12  N3  UNL     1      23.507   9.311   6.594  1.00  0.00    -0.242 N 
ATOM     13  H2  UNL     1      23.362   7.233   6.638  1.00  0.00     0.188 HD
HETATM   14  N4  UNL     1      22.925  10.226   5.815  1.00  0.00    -0.282 N 
ATOM     15  H3  UNL     1      24.165   9.501   7.349  1.00  0.00     0.208 HD
ATOM     16  H4  UNL     1      23.070  11.233   5.883  1.00  0.00     0.188 HD
BRANCH  10  17
HETATM   17  C3  UNL     1      21.565   7.160   4.530  1.00  0.00     0.028 A 
HETATM   18  C2  UNL     1      20.422   6.479   4.891  1.00  0.00     0.124 A 
HETATM   19  N1  UNL     1      20.174   5.508   3.981  1.00  0.00    -0.307 N 
HETATM   20  C1  UNL     1      19.035   4.602   4.066  1.00  0.00     0.177 C 
HETATM   21  N13 UNL     1      21.130   5.576   3.076  1.00  0.00    -0.310 N 
HETATM   22  C17 UNL     1      21.995   6.554   3.358  1.00  0.00     0.122 A 
ATOM     23  H13 UNL     1      21.200   4.960   2.266  1.00  0.00     0.186 HD
ENDBRANCH  10  17
ENDBRANCH   4   9
ENDBRANCH   1   2
BRANCH   1  24
HETATM   24  O1  UNL     1      20.551  10.556  -0.242  1.00  0.00    -0.339 OA
BRANCH  24  25
HETATM   25  C9  UNL     1      19.258  10.264  -0.632  1.00  0.00     0.277 C 
BRANCH  25  26
HETATM   26  O2  UNL     1      18.660   9.289   0.135  1.00  0.00    -0.369 OA
ATOM     27  H2  UNL     1      18.043   8.751  -0.349  1.00  0.00     0.212 HD
ENDBRANCH  25  26
BRANCH  25  28
HETATM   28  C10 UNL     1      18.371  11.473  -0.705  1.00  0.00     0.196 C 
BRANCH  28  29
HETATM   29  N6  UNL     1      16.990  11.035  -0.667  1.00  0.00    -0.278 N 
HETATM   30  C11 UNL     1      16.260  10.871   0.460  1.00  0.00     0.331 A 
HETATM   31  O3  UNL     1      16.710  11.086   1.615  1.00  0.00    -0.246 OA
HETATM   32  N7  UNL     1      15.018  10.454   0.144  1.00  0.00    -0.296 N 
HETATM   33  C12 UNL     1      13.978  10.180   1.082  1.00  0.00     0.161 C 
HETATM   34  C13 UNL     1      14.960  10.355  -1.177  1.00  0.00     0.152 A 
HETATM   35  C14 UNL     1      13.970   9.983  -2.063  1.00  0.00     0.290 A 
HETATM   36  C16 UNL     1      16.182  10.713  -1.711  1.00  0.00     0.160 A 
HETATM   37  O4  UNL     1      12.848   9.652  -1.628  1.00  0.00    -0.265 OA
HETATM   38  N8  UNL     1      14.195   9.975  -3.375  1.00  0.00    -0.154 N 
HETATM   39  C15 UNL     1      15.389  10.325  -3.882  1.00  0.00     0.680 A 
ATOM     40  H8  UNL     1      13.446   9.697  -4.009  1.00  0.00     0.187 HD
HETATM   41  N9  UNL     1      15.607  10.317  -5.139  1.00  0.00    -0.234 N 
HETATM   42  N10 UNL     1      16.391  10.697  -3.046  1.00  0.00    -0.174 N 
ATOM     43  H92 UNL     1      14.854  10.038  -5.768  1.00  0.00     0.174 HD
ATOM     44  H91 UNL     1      16.513  10.583  -5.524  1.00  0.00     0.174 HD
ATOM     45  H10 UNL     1      17.299  10.964  -3.424  1.00  0.00     0.186 HD
ENDBRANCH  28  29
ENDBRANCH  25  28
ENDBRANCH  24  25
ENDBRANCH   1  24
TORSDOF 8
ENDMDL
MODEL 2
REMARK VINA RESULT: -9.820009167      2.319      3.716
REMARK  8 active torsions:
REMARK  status: ('A' for Active; 'I' for Inactive)
REMARK    1  A    between atoms: C3_4  and  C4_5 
REMARK    2  A    between atoms: C5_12  and  C6_13 
REMARK    3  A    between atoms: N5_15  and  C8_16 
REMARK    4  A    between atoms: C8_16  and  O1_17 
REMARK    5  A    between atoms: O1_17  and  C9_18 
REMARK    6  A    between atoms: C9_18  and  O2_19 
REMARK    7  A    between atoms: C9_18  and  C10_21 
REMARK    8  A    between atoms: C10_21  and  N6_22 
ROOT
HETATM    1  C8  UNL     1      17.876   9.809   4.001  1.00  0.00     0.320 C 
ENDROOT
BRANCH   1   2
HETATM    2  N5  UNL     1      19.230   9.952   3.448  1.00  0.00    -0.263 N 
HETATM    3  C7  UNL     1      19.773   9.298   2.420  1.00  0.00     0.147 A 
HETATM    4  C6  UNL     1      21.064   9.728   2.227  1.00  0.00     0.097 A 
HETATM    5  N12 UNL     1      21.265  10.660   3.178  1.00  0.00    -0.282 N 
HETATM    6  N11 UNL     1      20.171  10.781   3.893  1.00  0.00    -0.238 N 
ATOM      7  H12 UNL     1      22.127  11.186   3.320  1.00  0.00     0.188 HD
ATOM      8  H11 UNL     1      20.058  11.420   4.679  1.00  0.00     0.208 HD
BRANCH   4   9
HETATM    9  C5  UNL     1      21.998   9.265   1.212  1.00  0.00     0.108 A 
HETATM   10  C4  UNL     1      22.618   8.041   1.190  1.00  0.00     0.093 A 
HETATM   11  N2  UNL     1      23.402   8.007   0.083  1.00  0.00    -0.283 N 
HETATM   12  N3  UNL     1      23.279   9.151  -0.558  1.00  0.00    -0.242 N 
ATOM     13  H2  UNL     1      23.990   7.224  -0.206  1.00  0.00     0.188 HD
HETATM   14  N4  UNL     1      22.428   9.922   0.122  1.00  0.00    -0.282 N 
ATOM     15  H3  UNL     1      23.752   9.405  -1.425  1.00  0.00     0.208 HD
ATOM     16  H4  UNL     1      22.147  10.866  -0.145  1.00  0.00     0.188 HD
BRANCH  10  17
HETATM   17  C3  UNL     1      22.518   6.942   2.125  1.00  0.00     0.028 A 
HETATM   18  C2  UNL     1      21.443   6.126   2.408  1.00  0.00     0.124 A 
HETATM   19  N1  UNL     1      21.802   5.225   3.352  1.00  0.00    -0.307 N 
HETATM   20  C1  UNL     1      20.897   4.211   3.878  1.00  0.00     0.177 C 
HETATM   21  N13 UNL     1      23.062   5.466   3.654  1.00  0.00    -0.310 N 
HETATM   22  C17 UNL     1      23.543   6.490   2.944  1.00  0.00     0.122 A 
ATOM     23  H13 UNL     1      23.600   4.938   4.342  1.00  0.00     0.186 HD
ENDBRANCH  10  17
ENDBRANCH   4   9
ENDBRANCH   1   2
BRANCH   1  24
HETATM   24  O1  UNL     1      17.174   8.999   3.130  1.00  0.00    -0.339 OA
BRANCH  24  25
HETATM   25  C9  UNL     1      15.803   9.159   3.210  1.00  0.00     0.277 C 
BRANCH  25  26
HETATM   26  O2  UNL     1      15.294   8.916   4.466  1.00  0.00    -0.369 OA
ATOM     27  H2  UNL     1      15.349   8.004   4.728  1.00  0.00     0.212 HD
ENDBRANCH  25  26
BRANCH  25  28
HETATM   28  C10 UNL     1      15.330  10.496   2.716  1.00  0.00     0.196 C 
BRANCH  28  29
HETATM   29  N6  UNL     1      15.198  10.433   1.273  1.00  0.00    -0.278 N 
HETATM   30  C11 UNL     1      14.052  10.146   0.613  1.00  0.00     0.331 A 
HETATM   31  O3  UNL     1      12.962   9.899   1.191  1.00  0.00    -0.246 OA
HETATM   32  N7  UNL     1      14.273  10.169  -0.716  1.00  0.00    -0.296 N 
HETATM   33  C12 UNL     1      13.289   9.914  -1.718  1.00  0.00     0.161 C 
HETATM   34  C13 UNL     1      15.551  10.471  -0.898  1.00  0.00     0.152 A 
HETATM   35  C14 UNL     1      16.343  10.635  -2.016  1.00  0.00     0.290 A 
HETATM   36  C16 UNL     1      16.155  10.641   0.333  1.00  0.00     0.160 A 
HETATM   37  O4  UNL     1      15.843  10.491  -3.151  1.00  0.00    -0.265 OA
HETATM   38  N8  UNL     1      17.633  10.945  -1.901  1.00  0.00    -0.154 N 
HETATM   39  C15 UNL     1      18.208  11.108  -0.698  1.00  0.00     0.680 A 
ATOM     40  H8  UNL     1      18.195  11.062  -2.743  1.00  0.00     0.187 HD
HETATM   41  N9  UNL     1      19.443  11.405  -0.586  1.00  0.00    -0.234 N 
HETATM   42  N10 UNL     1      17.465  10.956   0.428  1.00  0.00    -0.174 N 
ATOM     43  H92 UNL     1      20.001  11.520  -1.431  1.00  0.00     0.174 HD
ATOM     44  H91 UNL     1      19.880  11.529   0.328  1.00  0.00     0.174 HD
ATOM     45  H10 UNL     1      17.896  11.078   1.344  1.00  0.00     0.186 HD
ENDBRANCH  28  29
ENDBRANCH  25  28
ENDBRANCH  24  25
ENDBRANCH   1  24
TORSDOF 8
ENDMDL
MODEL 3
REMARK VINA RESULT: -9.769801228      4.156      7.265
REMARK  8 active torsions:
REMARK  status: ('A' for Active; 'I' for Inactive)
REMARK    1  A    between atoms: C3_4  and  C4_5 
REMARK    2  A    between atoms: C5_12  and  C6_13 
REMARK    3  A    between atoms: N5_15  and  C8_16 
REMARK    4  A    between atoms: C8_16  and  O1_17 
REMARK    5  A    between atoms: O1_17  and  C9_18 
REMARK    6  A    between atoms: C9_18  and  O2_19 
REMARK    7  A    between atoms: C9_18  and  C10_21 
REMARK    8  A    between atoms: C10_21  and  N6_22 
ROOT
HETATM    1  C8  UNL     1      17.899  12.751   2.164  1.00  0.00     0.320 C 
ENDROOT
BRANCH   1   2
HETATM    2  N5  UNL     1      17.122  11.892   3.068  1.00  0.00    -0.263 N 
HETATM    3  C7  UNL     1      15.909  11.373   2.871  1.00  0.00     0.147 A 
HETATM    4  C6  UNL     1      15.541  10.627   3.965  1.00  0.00     0.097 A 
HETATM    5  N12 UNL     1      16.579  10.724   4.817  1.00  0.00    -0.282 N 
HETATM    6  N11 UNL     1      17.506  11.476   4.272  1.00  0.00    -0.238 N 
ATOM      7  H12 UNL     1      16.636  10.285   5.735  1.00  0.00     0.188 HD
ATOM      8  H11 UNL     1      18.397  11.708   4.710  1.00  0.00     0.208 HD
BRANCH   4   9
HETATM    9  C5  UNL     1      14.294   9.899   4.148  1.00  0.00     0.108 A 
HETATM   10  C4  UNL     1      13.818   9.410   5.339  1.00  0.00     0.093 A 
HETATM   11  N2  UNL     1      12.633   8.801   5.078  1.00  0.00    -0.283 N 
HETATM   12  N3  UNL     1      12.379   8.904   3.790  1.00  0.00    -0.242 N 
ATOM     13  H2  UNL     1      12.037   8.340   5.766  1.00  0.00     0.188 HD
HETATM   14  N4  UNL     1      13.384   9.569   3.217  1.00  0.00    -0.282 N 
ATOM     15  H3  UNL     1      11.556   8.538   3.312  1.00  0.00     0.208 HD
ATOM     16  H4  UNL     1      13.451   9.793   2.224  1.00  0.00     0.188 HD
BRANCH  10  17
HETATM   17  C3  UNL     1      14.399   9.481   6.662  1.00  0.00     0.028 A 
HETATM   18  C2  UNL     1      14.161  10.381   7.678  1.00  0.00     0.124 A 
HETATM   19  N1  UNL     1      14.930  10.063   8.745  1.00  0.00    -0.307 N 
HETATM   20  C1  UNL     1      14.919  10.817   9.994  1.00  0.00     0.177 C 
HETATM   21  N13 UNL     1      15.630   8.998   8.412  1.00  0.00    -0.310 N 
HETATM   22  C17 UNL     1      15.349   8.604   7.167  1.00  0.00     0.122 A 
ATOM     23  H13 UNL     1      16.299   8.534   9.026  1.00  0.00     0.186 HD
ENDBRANCH  10  17
ENDBRANCH   4   9
ENDBRANCH   1   2
BRANCH   1  24
HETATM   24  O1  UNL     1      19.100  12.107   1.938  1.00  0.00    -0.339 OA
BRANCH  24  25
HETATM   25  C9  UNL     1      19.264  11.684   0.632  1.00  0.00     0.277 C 
BRANCH  25  26
HETATM   26  O2  UNL     1      20.521  11.933   0.128  1.00  0.00    -0.369 OA
ATOM     27  H2  UNL     1      20.749  11.381  -0.612  1.00  0.00     0.212 HD
ENDBRANCH  25  26
BRANCH  25  28
HETATM   28  C10 UNL     1      18.907  10.240   0.426  1.00  0.00     0.196 C 
BRANCH  28  29
HETATM   29  N6  UNL     1      19.914   9.420   1.072  1.00  0.00    -0.278 N 
HETATM   30  C11 UNL     1      19.812   8.912   2.322  1.00  0.00     0.331 A 
HETATM   31  O3  UNL     1      18.816   9.099   3.068  1.00  0.00    -0.246 OA
HETATM   32  N7  UNL     1      20.917   8.199   2.617  1.00  0.00    -0.296 N 
HETATM   33  C12 UNL     1      21.154   7.519   3.849  1.00  0.00     0.161 C 
HETATM   34  C13 UNL     1      21.715   8.254   1.559  1.00  0.00     0.152 A 
HETATM   35  C14 UNL     1      22.959   7.730   1.274  1.00  0.00     0.290 A 
HETATM   36  C16 UNL     1      21.111   9.014   0.576  1.00  0.00     0.160 A 
HETATM   37  O4  UNL     1      23.545   7.037   2.131  1.00  0.00    -0.265 OA
HETATM   38  N8  UNL     1      23.542   7.953   0.098  1.00  0.00    -0.154 N 
HETATM   39  C15 UNL     1      22.943   8.694  -0.850  1.00  0.00     0.680 A 
ATOM     40  H8  UNL     1      24.461   7.553  -0.088  1.00  0.00     0.187 HD
HETATM   41  N9  UNL     1      23.500   8.908  -1.977  1.00  0.00    -0.234 N 
HETATM   42  N10 UNL     1      21.719   9.229  -0.611  1.00  0.00    -0.174 N 
ATOM     43  H92 UNL     1      24.419   8.506  -2.157  1.00  0.00     0.174 HD
ATOM     44  H91 UNL     1      23.045   9.471  -2.697  1.00  0.00     0.174 HD
ATOM     45  H10 UNL     1      21.259   9.792  -1.326  1.00  0.00     0.186 HD
ENDBRANCH  28  29
ENDBRANCH  25  28
ENDBRANCH  24  25
ENDBRANCH   1  24
TORSDOF 8
ENDMDL
MODEL 4
REMARK VINA RESULT: -9.714248538      2.808      7.774
REMARK  8 active torsions:
REMARK  status: ('A' for Active; 'I' for Inactive)
REMARK    1  A    between atoms: C3_4  and  C4_5 
REMARK    2  A    between atoms: C5_12  and  C6_13 
REMARK    3  A    between atoms: N5_15  and  C8_16 
REMARK    4  A    between atoms: C8_16  and  O1_17 
REMARK    5  A    between atoms: O1_17  and  C9_18 
REMARK    6  A    between atoms: C9_18  and  O2_19 
REMARK    7  A    between atoms: C9_18  and  C10_21 
REMARK    8  A    between atoms: C10_21  and  N6_22 
ROOT
HETATM    1  C8  UNL     1      18.237  11.919   1.634  1.00  0.00     0.320 C 
ENDROOT
BRANCH   1   2
HETATM    2  N5  UNL     1      17.251  11.592   2.673  1.00  0.00    -0.263 N 
HETATM    3  C7  UNL     1      16.205  10.769   2.586  1.00  0.00     0.147 A 
HETATM    4  C6  UNL     1      15.532  10.745   3.785  1.00  0.00     0.097 A 
HETATM    5  N12 UNL     1      16.218  11.585   4.583  1.00  0.00    -0.282 N 
HETATM    6  N11 UNL     1      17.231  12.079   3.911  1.00  0.00    -0.238 N 
ATOM      7  H12 UNL     1      15.987  11.802   5.553  1.00  0.00     0.188 HD
ATOM      8  H11 UNL     1      17.909  12.742   4.286  1.00  0.00     0.208 HD
BRANCH   4   9
HETATM    9  C5  UNL     1      14.339   9.976   4.103  1.00  0.00     0.108 A 
HETATM   10  C4  UNL     1      13.528   9.339   3.196  1.00  0.00     0.093 A 
HETATM   11  N2  UNL     1      12.533   8.740   3.898  1.00  0.00    -0.283 N 
HETATM   12  N3  UNL     1      12.711   8.987   5.179  1.00  0.00    -0.242 N 
ATOM     13  H2  UNL     1      11.773   8.189   3.499  1.00  0.00     0.188 HD
HETATM   14  N4  UNL     1      13.806   9.738   5.312  1.00  0.00    -0.282 N 
ATOM     15  H3  UNL     1      12.115   8.661   5.940  1.00  0.00     0.208 HD
ATOM     16  H4  UNL     1      14.181  10.080   6.198  1.00  0.00     0.188 HD
BRANCH  10  17
HETATM   17  C3  UNL     1      13.636   9.270   1.755  1.00  0.00     0.028 A 
HETATM   18  C2  UNL     1      13.310  10.214   0.805  1.00  0.00     0.124 A 
HETATM   19  N1  UNL     1      13.580   9.720  -0.426  1.00  0.00    -0.307 N 
HETATM   20  C1  UNL     1      13.350  10.466  -1.657  1.00  0.00     0.177 C 
HETATM   21  N13 UNL     1      14.060   8.505  -0.256  1.00  0.00    -0.310 N 
HETATM   22  C17 UNL     1      14.116   8.183   1.039  1.00  0.00     0.122 A 
ATOM     23  H13 UNL     1      14.351   7.889  -1.016  1.00  0.00     0.186 HD
ENDBRANCH  10  17
ENDBRANCH   4   9
ENDBRANCH   1   2
BRANCH   1  24
HETATM   24  O1  UNL     1      18.809  10.725   1.239  1.00  0.00    -0.339 OA
BRANCH  24  25
HETATM   25  C9  UNL     1      20.172  10.808   1.025  1.00  0.00     0.277 C 
BRANCH  25  26
HETATM   26  O2  UNL     1      20.543  11.893   0.263  1.00  0.00    -0.369 OA
ATOM     27  H2  UNL     1      20.473  11.741  -0.673  1.00  0.00     0.212 HD
ENDBRANCH  25  26
BRANCH  25  28
HETATM   28  C10 UNL     1      20.975  10.774   2.292  1.00  0.00     0.196 C 
BRANCH  28  29
HETATM   29  N6  UNL     1      21.126   9.392   2.706  1.00  0.00    -0.278 N 
HETATM   30  C11 UNL     1      22.177   8.601   2.389  1.00  0.00     0.331 A 
HETATM   31  O3  UNL     1      23.150   8.986   1.691  1.00  0.00    -0.246 OA
HETATM   32  N7  UNL     1      22.006   7.377   2.929  1.00  0.00    -0.296 N 
HETATM   33  C12 UNL     1      22.917   6.286   2.801  1.00  0.00     0.161 C 
HETATM   34  C13 UNL     1      20.853   7.394   3.585  1.00  0.00     0.152 A 
HETATM   35  C14 UNL     1      20.161   6.454   4.321  1.00  0.00     0.290 A 
HETATM   36  C16 UNL     1      20.281   8.645   3.461  1.00  0.00     0.160 A 
HETATM   37  O4  UNL     1      20.638   5.309   4.461  1.00  0.00    -0.265 OA
HETATM   38  N8  UNL     1      18.992   6.753   4.884  1.00  0.00    -0.154 N 
HETATM   39  C15 UNL     1      18.446   7.974   4.756  1.00  0.00     0.680 A 
ATOM     40  H8  UNL     1      18.501   6.040   5.424  1.00  0.00     0.187 HD
HETATM   41  N9  UNL     1      17.326   8.261   5.295  1.00  0.00    -0.234 N 
HETATM   42  N10 UNL     1      19.094   8.928   4.040  1.00  0.00    -0.174 N 
ATOM     43  H92 UNL     1      16.840   7.545   5.833  1.00  0.00     0.174 HD
ATOM     44  H91 UNL     1      16.912   9.189   5.198  1.00  0.00     0.174 HD
ATOM     45  H10 UNL     1      18.685   9.857   3.940  1.00  0.00     0.186 HD
ENDBRANCH  28  29
ENDBRANCH  25  28
ENDBRANCH  24  25
ENDBRANCH   1  24
TORSDOF 8
ENDMDL
MODEL 5
REMARK VINA RESULT: -9.693827235      1.613      2.063
REMARK  8 active torsions:
REMARK  status: ('A' for Active; 'I' for Inactive)
REMARK    1  A    between atoms: C3_4  and  C4_5 
REMARK    2  A    between atoms: C5_12  and  C6_13 
REMARK    3  A    between atoms: N5_15  and  C8_16 
REMARK    4  A    between atoms: C8_16  and  O1_17 
REMARK    5  A    between atoms: O1_17  and  C9_18 
REMARK    6  A    between atoms: C9_18  and  O2_19 
REMARK    7  A    between atoms: C9_18  and  C10_21 
REMARK    8  A    between atoms: C10_21  and  N6_22 
ROOT
HETATM    1  C8  UNL     1      20.300   9.742  -0.218  1.00  0.00     0.320 C 
ENDROOT
BRANCH   1   2
HETATM    2  N5  UNL     1      20.371   9.064   1.084  1.00  0.00    -0.263 N 
HETATM    3  C7  UNL     1      21.425   8.475   1.650  1.00  0.00     0.147 A 
HETATM    4  C6  UNL     1      21.068   7.959   2.873  1.00  0.00     0.097 A 
HETATM    5  N12 UNL     1      19.763   8.264   3.009  1.00  0.00    -0.282 N 
HETATM    6  N11 UNL     1      19.365   8.917   1.943  1.00  0.00    -0.238 N 
ATOM      7  H12 UNL     1      19.179   8.026   3.811  1.00  0.00     0.188 HD
ATOM      8  H11 UNL     1      18.418   9.263   1.794  1.00  0.00     0.208 HD
BRANCH   4   9
HETATM    9  C5  UNL     1      21.925   7.241   3.804  1.00  0.00     0.108 A 
HETATM   10  C4  UNL     1      21.772   5.932   4.189  1.00  0.00     0.093 A 
HETATM   11  N2  UNL     1      22.773   5.650   5.061  1.00  0.00    -0.283 N 
HETATM   12  N3  UNL     1      23.516   6.727   5.214  1.00  0.00    -0.242 N 
ATOM     13  H2  UNL     1      22.925   4.752   5.521  1.00  0.00     0.188 HD
HETATM   14  N4  UNL     1      23.006   7.698   4.454  1.00  0.00    -0.282 N 
ATOM     15  H3  UNL     1      24.339   6.805   5.811  1.00  0.00     0.208 HD
ATOM     16  H4  UNL     1      23.382   8.644   4.379  1.00  0.00     0.188 HD
BRANCH  10  17
HETATM   17  C3  UNL     1      20.768   4.968   3.795  1.00  0.00     0.028 A 
HETATM   18  C2  UNL     1      20.852   3.935   2.885  1.00  0.00     0.124 A 
HETATM   19  N1  UNL     1      19.666   3.285   2.838  1.00  0.00    -0.307 N 
HETATM   20  C1  UNL     1      19.415   2.137   1.974  1.00  0.00     0.177 C 
HETATM   21  N13 UNL     1      18.861   3.889   3.688  1.00  0.00    -0.310 N 
HETATM   22  C17 UNL     1      19.474   4.910   4.293  1.00  0.00     0.122 A 
ATOM     23  H13 UNL     1      17.894   3.611   3.862  1.00  0.00     0.186 HD
ENDBRANCH  10  17
ENDBRANCH   4   9
ENDBRANCH   1   2
BRANCH   1  24
HETATM   24  O1  UNL     1      20.260  11.098   0.041  1.00  0.00    -0.339 OA
BRANCH  24  25
HETATM   25  C9  UNL     1      19.017  11.665  -0.169  1.00  0.00     0.277 C 
BRANCH  25  26
HETATM   26  O2  UNL     1      19.034  13.042  -0.166  1.00  0.00    -0.369 OA
ATOM     27  H2  UNL     1      18.531  13.426   0.543  1.00  0.00     0.212 HD
ENDBRANCH  25  26
BRANCH  25  28
HETATM   28  C10 UNL     1      18.337  11.165  -1.411  1.00  0.00     0.196 C 
BRANCH  28  29
HETATM   29  N6  UNL     1      16.975  10.799  -1.075  1.00  0.00    -0.278 N 
HETATM   30  C11 UNL     1      16.491  10.688   0.184  1.00  0.00     0.331 A 
HETATM   31  O3  UNL     1      17.184  10.894   1.213  1.00  0.00    -0.246 OA
HETATM   32  N7  UNL     1      15.192  10.333   0.144  1.00  0.00    -0.296 N 
HETATM   33  C12 UNL     1      14.360  10.126   1.285  1.00  0.00     0.161 C 
HETATM   34  C13 UNL     1      14.853  10.220  -1.133  1.00  0.00     0.152 A 
HETATM   35  C14 UNL     1      13.682   9.889  -1.784  1.00  0.00     0.290 A 
HETATM   36  C16 UNL     1      15.952  10.507  -1.919  1.00  0.00     0.160 A 
HETATM   37  O4  UNL     1      12.662   9.622  -1.116  1.00  0.00    -0.265 OA
HETATM   38  N8  UNL     1      13.626   9.852  -3.113  1.00  0.00    -0.154 N 
HETATM   39  C15 UNL     1      14.702  10.133  -3.867  1.00  0.00     0.680 A 
ATOM     40  H8  UNL     1      12.748   9.605  -3.569  1.00  0.00     0.187 HD
HETATM   41  N9  UNL     1      14.650  10.097  -5.140  1.00  0.00    -0.234 N 
HETATM   42  N10 UNL     1      15.874  10.463  -3.267  1.00  0.00    -0.174 N 
ATOM     43  H92 UNL     1      13.770   9.850  -5.591  1.00  0.00     0.174 HD
ATOM     44  H91 UNL     1      15.468  10.311  -5.712  1.00  0.00     0.174 HD
ATOM     45  H10 UNL     1      16.695  10.677  -3.833  1.00  0.00     0.186 HD
ENDBRANCH  28  29
ENDBRANCH  25  28
ENDBRANCH  24  25
ENDBRANCH   1  24
TORSDOF 8
ENDMDL
