MODEL 1
REMARK VINA RESULT: -9.757045855      0.000      0.000
REMARK  8 active torsions:
REMARK  status: ('A' for Active; 'I' for Inactive)
REMARK    1  A    between atoms: N1_1  and  C1_4 
REMARK    2  A    between atoms: C3_8  and  C4_9 
REMARK    3  A    between atoms: C5_14  and  C6_15 
REMARK    4  A    between atoms: C6_15  and  N5_16 
REMARK    5  A    between atoms: C10_21  and  S1_22 
REMARK    6  A    between atoms: S1_22  and  C11_25 
REMARK    7  A    between atoms: C11_25  and  N6_26 
REMARK    8  A    between atoms: N6_26  and  C12_28 
ROOT
HETATM    1  N5  UNL     1      14.863  10.615   3.689  1.00  0.00    -0.344 N 
HETATM    2  C7  UNL     1      14.749  10.758   5.079  1.00  0.00     0.091 C 
HETATM    3  C8  UNL     1      15.724   9.867   5.826  1.00  0.00     0.212 C 
HETATM    4  O1  UNL     1      15.897   8.742   5.038  1.00  0.00    -0.383 OA
HETATM    5  C9  UNL     1      16.581   8.982   3.881  1.00  0.00     0.209 C 
HETATM    6  C10 UNL     1      16.164  10.286   3.175  1.00  0.00     0.236 C 
ENDROOT
BRANCH   1   7
HETATM    7  C6  UNL     1      13.746  10.257   2.932  1.00  0.00     0.149 C 
BRANCH   7   8
HETATM    8  C5  UNL     1      14.024   9.722   1.575  1.00  0.00     0.180 A 
HETATM    9  N4  UNL     1      14.103   8.426   1.267  1.00  0.00    -0.277 N 
HETATM   10  N3  UNL     1      14.360   8.348  -0.021  1.00  0.00    -0.276 N 
ATOM     11  H4  UNL     1      13.985   7.642   1.910  1.00  0.00     0.189 HD
HETATM   12  C4  UNL     1      14.447   9.582  -0.540  1.00  0.00     0.193 A 
ATOM     13  H3  UNL     1      14.476   7.481  -0.546  1.00  0.00     0.189 HD
HETATM   14  O5  UNL     1      14.235  10.380   0.471  1.00  0.00    -0.271 OA
BRANCH  12  15
HETATM   15  C3  UNL     1      14.723   9.917  -1.949  1.00  0.00     0.101 A 
HETATM   16  N2  UNL     1      13.861   9.629  -2.926  1.00  0.00    -0.358 N 
HETATM   17  C2  UNL     1      14.154   9.954  -4.195  1.00  0.00     0.136 A 
ATOM     18  H2  UNL     1      12.980   9.163  -2.709  1.00  0.00     0.165 HD
HETATM   19  C1  UNL     1      15.328  10.586  -4.560  1.00  0.00     0.114 A 
HETATM   20  N10 UNL     1      16.173  10.859  -3.542  1.00  0.00    -0.349 N 
HETATM   21  C15 UNL     1      15.901  10.544  -2.269  1.00  0.00     0.123 A 
ATOM     22  H10 UNL     1      17.056  11.325  -3.752  1.00  0.00     0.167 HD
BRANCH  19  23
HETATM   23  N1  UNL     1      15.605  10.894  -5.782  1.00  0.00    -0.384 N 
ATOM     24  H12 UNL     1      15.507  10.225  -6.546  1.00  0.00     0.157 HD
ATOM     25  H11 UNL     1      15.936  11.819  -6.057  1.00  0.00     0.157 HD
ENDBRANCH  19  23
ENDBRANCH  12  15
ENDBRANCH   7   8
ENDBRANCH   1   7
BRANCH   6  26
HETATM   26  S1  UNL     1      17.328  11.722   3.256  1.00  0.00     0.184 S 
HETATM   27  O2  UNL     1      16.479  13.519   3.163  1.00  0.00    -0.224 OA
HETATM   28  O3  UNL     1      17.061  12.078   1.404  1.00  0.00    -0.224 OA
BRANCH  26  29
HETATM   29  C11 UNL     1      19.163  11.698   3.014  1.00  0.00     0.264 C 
BRANCH  29  30
HETATM   30  N6  UNL     1      19.802  10.394   2.831  1.00  0.00    -0.357 N 
ATOM     31  H6  UNL     1      20.046   9.831   3.646  1.00  0.00     0.162 HD
BRANCH  30  32
HETATM   32  C12 UNL     1      20.058   9.955   1.654  1.00  0.00     0.186 A 
HETATM   33  N7  UNL     1      19.097   9.546   0.815  1.00  0.00    -0.280 N 
HETATM   34  N8  UNL     1      19.368   9.090  -0.407  1.00  0.00    -0.294 N 
ATOM     35  H7  UNL     1      18.124   9.585   1.122  1.00  0.00     0.188 HD
HETATM   36  C13 UNL     1      20.636   9.026  -0.841  1.00  0.00     0.200 A 
ATOM     37  H8  UNL     1      18.608   8.787  -1.016  1.00  0.00     0.187 HD
HETATM   38  N9  UNL     1      21.621   9.425  -0.035  1.00  0.00    -0.315 N 
HETATM   39  C14 UNL     1      21.361   9.890   1.208  1.00  0.00     0.291 A 
ATOM     40  H9  UNL     1      22.587   9.378  -0.362  1.00  0.00     0.170 HD
HETATM   41  O4  UNL     1      22.323  10.264   1.957  1.00  0.00    -0.264 OA
ENDBRANCH  30  32
ENDBRANCH  29  30
ENDBRANCH  26  29
ENDBRANCH   6  26
TORSDOF 8
ENDMDL
MODEL 2
REMARK VINA RESULT: -9.490226572      2.711      7.806
REMARK  8 active torsions:
REMARK  status: ('A' for Active; 'I' for Inactive)
REMARK    1  A    between atoms: N1_1  and  C1_4 
REMARK    2  A    between atoms: C3_8  and  C4_9 
REMARK    3  A    between atoms: C5_14  and  C6_15 
REMARK    4  A    between atoms: C6_15  and  N5_16 
REMARK    5  A    between atoms: C10_21  and  S1_22 
REMARK    6  A    between atoms: S1_22  and  C11_25 
REMARK    7  A    between atoms: C11_25  and  N6_26 
REMARK    8  A    between atoms: N6_26  and  C12_28 
ROOT
HETATM    1  N5  UNL     1      18.010   9.820   2.106  1.00  0.00    -0.344 N 
HETATM    2  C7  UNL     1      16.616   9.664   2.098  1.00  0.00     0.091 C 
HETATM    3  C8  UNL     1      15.896  10.994   1.975  1.00  0.00     0.212 C 
HETATM    4  O1  UNL     1      16.704  11.928   2.600  1.00  0.00    -0.383 OA
HETATM    5  C9  UNL     1      17.864  12.187   1.929  1.00  0.00     0.209 C 
HETATM    6  C10 UNL     1      18.544  10.926   1.361  1.00  0.00     0.236 C 
ENDROOT
BRANCH   1   7
HETATM    7  C6  UNL     1      18.760   9.320   3.172  1.00  0.00     0.149 C 
BRANCH   7   8
HETATM    8  C5  UNL     1      18.017   9.080   4.434  1.00  0.00     0.180 A 
HETATM    9  N4  UNL     1      18.111   7.976   5.178  1.00  0.00    -0.277 N 
HETATM   10  N3  UNL     1      17.310   8.134   6.210  1.00  0.00    -0.276 N 
ATOM     11  H4  UNL     1      18.695   7.163   4.983  1.00  0.00     0.189 HD
HETATM   12  C4  UNL     1      16.704   9.328   6.133  1.00  0.00     0.193 A 
ATOM     13  H3  UNL     1      17.171   7.451   6.956  1.00  0.00     0.189 HD
HETATM   14  O5  UNL     1      17.168   9.863   5.037  1.00  0.00    -0.271 OA
BRANCH  12  15
HETATM   15  C3  UNL     1      15.733   9.876   7.098  1.00  0.00     0.101 A 
HETATM   16  N2  UNL     1      15.944   9.833   8.416  1.00  0.00    -0.358 N 
HETATM   17  C2  UNL     1      15.033  10.345   9.258  1.00  0.00     0.136 A 
ATOM     18  H2  UNL     1      16.797   9.411   8.782  1.00  0.00     0.165 HD
HETATM   19  C1  UNL     1      13.856  10.930   8.829  1.00  0.00     0.114 A 
HETATM   20  N10 UNL     1      13.681  10.954   7.490  1.00  0.00    -0.349 N 
HETATM   21  C15 UNL     1      14.577  10.449   6.632  1.00  0.00     0.123 A 
ATOM     22  H10 UNL     1      12.830  11.374   7.116  1.00  0.00     0.167 HD
BRANCH  19  23
HETATM   23  N1  UNL     1      12.983  11.420   9.644  1.00  0.00    -0.384 N 
ATOM     24  H12 UNL     1      13.223  11.691  10.598  1.00  0.00     0.157 HD
ATOM     25  H11 UNL     1      12.007  11.566   9.385  1.00  0.00     0.157 HD
ENDBRANCH  19  23
ENDBRANCH  12  15
ENDBRANCH   7   8
ENDBRANCH   1   7
BRANCH   6  26
HETATM   26  S1  UNL     1      18.452  10.645  -0.466  1.00  0.00     0.184 S 
HETATM   27  O2  UNL     1      20.070   9.831  -1.289  1.00  0.00    -0.224 OA
HETATM   28  O3  UNL     1      19.660  12.085  -0.776  1.00  0.00    -0.224 OA
BRANCH  26  29
HETATM   29  C11 UNL     1      17.236  11.373  -1.657  1.00  0.00     0.264 C 
BRANCH  29  30
HETATM   30  N6  UNL     1      15.846  10.929  -1.558  1.00  0.00    -0.357 N 
ATOM     31  H6  UNL     1      15.396  10.874  -0.644  1.00  0.00     0.162 HD
BRANCH  30  32
HETATM   32  C12 UNL     1      15.189  10.607  -2.611  1.00  0.00     0.186 A 
HETATM   33  N7  UNL     1      15.715  10.696  -3.841  1.00  0.00    -0.280 N 
HETATM   34  N8  UNL     1      15.028  10.362  -4.932  1.00  0.00    -0.294 N 
ATOM     35  H7  UNL     1      16.673  11.032  -3.944  1.00  0.00     0.188 HD
HETATM   36  C13 UNL     1      13.766   9.917  -4.830  1.00  0.00     0.200 A 
ATOM     37  H8  UNL     1      15.464  10.445  -5.851  1.00  0.00     0.187 HD
HETATM   38  N9  UNL     1      13.208   9.815  -3.623  1.00  0.00    -0.315 N 
HETATM   39  C14 UNL     1      13.893  10.150  -2.505  1.00  0.00     0.291 A 
ATOM     40  H9  UNL     1      12.249   9.477  -3.542  1.00  0.00     0.170 HD
HETATM   41  O4  UNL     1      13.333  10.042  -1.365  1.00  0.00    -0.264 OA
ENDBRANCH  30  32
ENDBRANCH  29  30
ENDBRANCH  26  29
ENDBRANCH   6  26
TORSDOF 8
ENDMDL
MODEL 3
REMARK VINA RESULT: -9.373523494      2.190      7.706
REMARK  8 active torsions:
REMARK  status: ('A' for Active; 'I' for Inactive)
REMARK    1  A    between atoms: N1_1  and  C1_4 
REMARK    2  A    between atoms: C3_8  and  C4_9 
REMARK    3  A    between atoms: C5_14  and  C6_15 
REMARK    4  A    between atoms: C6_15  and  N5_16 
REMARK    5  A    between atoms: C10_21  and  S1_22 
REMARK    6  A    between atoms: S1_22  and  C11_25 
REMARK    7  A    between atoms: C11_25  and  N6_26 
REMARK    8  A    between atoms: N6_26  and  C12_28 
ROOT
HETATM    1  N5  UNL     1      19.521  10.096   1.866  1.00  0.00    -0.344 N 
HETATM    2  C7  UNL     1      20.445  11.078   2.251  1.00  0.00     0.091 C 
HETATM    3  C8  UNL     1      21.628  11.150   1.304  1.00  0.00     0.212 C 
HETATM    4  O1  UNL     1      21.814   9.865   0.822  1.00  0.00    -0.383 OA
HETATM    5  C9  UNL     1      20.822   9.445  -0.016  1.00  0.00     0.209 C 
HETATM    6  C10 UNL     1      19.407   9.828   0.458  1.00  0.00     0.236 C 
ENDROOT
BRANCH   1   7
HETATM    7  C6  UNL     1      19.169   9.082   2.759  1.00  0.00     0.149 C 
BRANCH   7   8
HETATM    8  C5  UNL     1      17.858   9.241   3.437  1.00  0.00     0.180 A 
HETATM    9  N4  UNL     1      16.670   9.115   2.842  1.00  0.00    -0.277 N 
HETATM   10  N3  UNL     1      15.751   9.323   3.761  1.00  0.00    -0.276 N 
ATOM     11  H4  UNL     1      16.505   8.898   1.859  1.00  0.00     0.189 HD
HETATM   12  C4  UNL     1      16.340   9.581   4.939  1.00  0.00     0.193 A 
ATOM     13  H3  UNL     1      14.744   9.293   3.603  1.00  0.00     0.189 HD
HETATM   14  O5  UNL     1      17.620   9.518   4.687  1.00  0.00    -0.271 OA
BRANCH  12  15
HETATM   15  C3  UNL     1      15.654   9.866   6.212  1.00  0.00     0.101 A 
HETATM   16  N2  UNL     1      16.190   9.545   7.391  1.00  0.00    -0.358 N 
HETATM   17  C2  UNL     1      15.530   9.824   8.526  1.00  0.00     0.136 A 
ATOM     18  H2  UNL     1      17.100   9.087   7.431  1.00  0.00     0.165 HD
HETATM   19  C1  UNL     1      14.293  10.441   8.545  1.00  0.00     0.114 A 
HETATM   20  N10 UNL     1      13.786  10.750   7.332  1.00  0.00    -0.349 N 
HETATM   21  C15 UNL     1      14.427  10.480   6.188  1.00  0.00     0.123 A 
ATOM     22  H10 UNL     1      12.875  11.207   7.285  1.00  0.00     0.167 HD
BRANCH  19  23
HETATM   23  N1  UNL     1      13.662  10.707   9.640  1.00  0.00    -0.384 N 
ATOM     24  H12 UNL     1      13.516  11.663   9.964  1.00  0.00     0.157 HD
ATOM     25  H11 UNL     1      13.273   9.982  10.243  1.00  0.00     0.157 HD
ENDBRANCH  19  23
ENDBRANCH  12  15
ENDBRANCH   7   8
ENDBRANCH   1   7
BRANCH   6  26
HETATM   26  S1  UNL     1      18.534  11.189  -0.440  1.00  0.00     0.184 S 
HETATM   27  O2  UNL     1      18.295  12.877   0.585  1.00  0.00    -0.224 OA
HETATM   28  O3  UNL     1      16.978  10.935   0.628  1.00  0.00    -0.224 OA
BRANCH  26  29
HETATM   29  C11 UNL     1      17.526  11.051  -1.988  1.00  0.00     0.264 C 
BRANCH  29  30
HETATM   30  N6  UNL     1      16.070  11.087  -1.850  1.00  0.00    -0.357 N 
ATOM     31  H6  UNL     1      15.652  11.424  -0.983  1.00  0.00     0.162 HD
BRANCH  30  32
HETATM   32  C12 UNL     1      15.317  10.698  -2.812  1.00  0.00     0.186 A 
HETATM   33  N7  UNL     1      15.723  10.700  -4.089  1.00  0.00    -0.280 N 
HETATM   34  N8  UNL     1      14.935  10.295  -5.085  1.00  0.00    -0.294 N 
ATOM     35  H7  UNL     1      16.666  11.022  -4.307  1.00  0.00     0.188 HD
HETATM   36  C13 UNL     1      13.690   9.865  -4.832  1.00  0.00     0.200 A 
ATOM     37  H8  UNL     1      15.281  10.312  -6.044  1.00  0.00     0.187 HD
HETATM   38  N9  UNL     1      13.249   9.848  -3.574  1.00  0.00    -0.315 N 
HETATM   39  C14 UNL     1      14.037  10.256  -2.552  1.00  0.00     0.291 A 
ATOM     40  H9  UNL     1      12.302   9.522  -3.378  1.00  0.00     0.170 HD
HETATM   41  O4  UNL     1      13.588  10.229  -1.359  1.00  0.00    -0.264 OA
ENDBRANCH  30  32
ENDBRANCH  29  30
ENDBRANCH  26  29
ENDBRANCH   6  26
TORSDOF 8
ENDMDL
MODEL 4
REMARK VINA RESULT: -9.344076751      1.648      1.778
REMARK  8 active torsions:
REMARK  status: ('A' for Active; 'I' for Inactive)
REMARK    1  A    between atoms: N1_1  and  C1_4 
REMARK    2  A    between atoms: C3_8  and  C4_9 
REMARK    3  A    between atoms: C5_14  and  C6_15 
REMARK    4  A    between atoms: C6_15  and  N5_16 
REMARK    5  A    between atoms: C10_21  and  S1_22 
REMARK    6  A    between atoms: S1_22  and  C11_25 
REMARK    7  A    between atoms: C11_25  and  N6_26 
REMARK    8  A    between atoms: N6_26  and  C12_28 
ROOT
HETATM    1  N5  UNL     1      14.707  10.057   3.730  1.00  0.00    -0.344 N 
HETATM    2  C7  UNL     1      14.239  10.451   4.992  1.00  0.00     0.091 C 
HETATM    3  C8  UNL     1      15.131   9.949   6.112  1.00  0.00     0.212 C 
HETATM    4  O1  UNL     1      15.660   8.748   5.672  1.00  0.00    -0.383 OA
HETATM    5  C9  UNL     1      16.558   8.885   4.653  1.00  0.00     0.209 C 
HETATM    6  C10 UNL     1      16.128   9.906   3.582  1.00  0.00     0.236 C 
ENDROOT
BRANCH   1   7
HETATM    7  C6  UNL     1      13.875   9.332   2.874  1.00  0.00     0.149 C 
BRANCH   7   8
HETATM    8  C5  UNL     1      13.659   9.918   1.527  1.00  0.00     0.180 A 
HETATM    9  N4  UNL     1      12.730  10.829   1.230  1.00  0.00    -0.277 N 
HETATM   10  N3  UNL     1      12.849  11.101  -0.052  1.00  0.00    -0.276 N 
ATOM     11  H4  UNL     1      12.055  11.238   1.876  1.00  0.00     0.189 HD
HETATM   12  C4  UNL     1      13.845  10.372  -0.578  1.00  0.00     0.193 A 
ATOM     13  H3  UNL     1      12.271  11.765  -0.568  1.00  0.00     0.189 HD
HETATM   14  O5  UNL     1      14.304   9.671   0.422  1.00  0.00    -0.271 OA
BRANCH  12  15
HETATM   15  C3  UNL     1      14.289  10.391  -1.984  1.00  0.00     0.101 A 
HETATM   16  N2  UNL     1      13.539   9.895  -2.970  1.00  0.00    -0.358 N 
HETATM   17  C2  UNL     1      13.984   9.934  -4.235  1.00  0.00     0.136 A 
ATOM     18  H2  UNL     1      12.627   9.488  -2.762  1.00  0.00     0.165 HD
HETATM   19  C1  UNL     1      15.208  10.471  -4.587  1.00  0.00     0.114 A 
HETATM   20  N10 UNL     1      15.937  10.962  -3.561  1.00  0.00    -0.349 N 
HETATM   21  C15 UNL     1      15.512  10.933  -2.291  1.00  0.00     0.123 A 
ATOM     22  H10 UNL     1      16.850  11.370  -3.762  1.00  0.00     0.167 HD
BRANCH  19  23
HETATM   23  N1  UNL     1      15.632  10.505  -5.807  1.00  0.00    -0.384 N 
ATOM     24  H12 UNL     1      15.763  11.382  -6.311  1.00  0.00     0.157 HD
ATOM     25  H11 UNL     1      15.859   9.663  -6.335  1.00  0.00     0.157 HD
ENDBRANCH  19  23
ENDBRANCH  12  15
ENDBRANCH   7   8
ENDBRANCH   1   7
BRANCH   6  26
HETATM   26  S1  UNL     1      17.001  11.536   3.543  1.00  0.00     0.184 S 
HETATM   27  O2  UNL     1      15.823  13.139   3.519  1.00  0.00    -0.224 OA
HETATM   28  O3  UNL     1      16.504  11.791   1.722  1.00  0.00    -0.224 OA
BRANCH  26  29
HETATM   29  C11 UNL     1      18.778  11.851   3.130  1.00  0.00     0.264 C 
BRANCH  29  30
HETATM   30  N6  UNL     1      19.072  12.446   1.826  1.00  0.00    -0.357 N 
ATOM     31  H6  UNL     1      19.281  13.442   1.759  1.00  0.00     0.162 HD
BRANCH  30  32
HETATM   32  C12 UNL     1      19.070  11.724   0.766  1.00  0.00     0.186 A 
HETATM   33  N7  UNL     1      19.113  10.384   0.809  1.00  0.00    -0.280 N 
HETATM   34  N8  UNL     1      19.111   9.639  -0.295  1.00  0.00    -0.294 N 
ATOM     35  H7  UNL     1      19.149   9.921   1.717  1.00  0.00     0.188 HD
HETATM   36  C13 UNL     1      19.064  10.218  -1.504  1.00  0.00     0.200 A 
ATOM     37  H8  UNL     1      19.146   8.622  -0.220  1.00  0.00     0.187 HD
HETATM   38  N9  UNL     1      19.020  11.548  -1.588  1.00  0.00    -0.315 N 
HETATM   39  C14 UNL     1      19.021  12.319  -0.476  1.00  0.00     0.291 A 
ATOM     40  H9  UNL     1      18.984  11.991  -2.507  1.00  0.00     0.170 HD
HETATM   41  O4  UNL     1      18.978  13.588  -0.588  1.00  0.00    -0.264 OA
ENDBRANCH  30  32
ENDBRANCH  29  30
ENDBRANCH  26  29
ENDBRANCH   6  26
TORSDOF 8
ENDMDL
MODEL 5
REMARK VINA RESULT: -9.317207030      3.116      8.007
REMARK  8 active torsions:
REMARK  status: ('A' for Active; 'I' for Inactive)
REMARK    1  A    between atoms: N1_1  and  C1_4 
REMARK    2  A    between atoms: C3_8  and  C4_9 
REMARK    3  A    between atoms: C5_14  and  C6_15 
REMARK    4  A    between atoms: C6_15  and  N5_16 
REMARK    5  A    between atoms: C10_21  and  S1_22 
REMARK    6  A    between atoms: S1_22  and  C11_25 
REMARK    7  A    between atoms: C11_25  and  N6_26 
REMARK    8  A    between atoms: N6_26  and  C12_28 
ROOT
HETATM    1  N5  UNL     1      17.327   9.815   3.306  1.00  0.00    -0.344 N 
HETATM    2  C7  UNL     1      15.994   9.474   3.036  1.00  0.00     0.091 C 
HETATM    3  C8  UNL     1      15.090  10.691   3.000  1.00  0.00     0.212 C 
HETATM    4  O1  UNL     1      15.634  11.599   3.894  1.00  0.00    -0.383 OA
HETATM    5  C9  UNL     1      16.820  12.132   3.479  1.00  0.00     0.209 C 
HETATM    6  C10 UNL     1      17.774  11.101   2.845  1.00  0.00     0.236 C 
ENDROOT
BRANCH   1   7
HETATM    7  C6  UNL     1      17.987   9.239   4.393  1.00  0.00     0.149 C 
BRANCH   7   8
HETATM    8  C5  UNL     1      17.208   9.150   5.653  1.00  0.00     0.180 A 
HETATM    9  N4  UNL     1      17.094   8.052   6.404  1.00  0.00    -0.277 N 
HETATM   10  N3  UNL     1      16.332   8.363   7.432  1.00  0.00    -0.276 N 
ATOM     11  H4  UNL     1      17.518   7.143   6.217  1.00  0.00     0.189 HD
HETATM   12  C4  UNL     1      15.958   9.648   7.345  1.00  0.00     0.193 A 
ATOM     13  H3  UNL     1      16.066   7.723   8.181  1.00  0.00     0.189 HD
HETATM   14  O5  UNL     1      16.517  10.080   6.248  1.00  0.00    -0.271 OA
BRANCH  12  15
HETATM   15  C3  UNL     1      15.103  10.373   8.303  1.00  0.00     0.101 A 
HETATM   16  N2  UNL     1      13.843  10.705   8.015  1.00  0.00    -0.358 N 
HETATM   17  C2  UNL     1      13.100  11.364   8.917  1.00  0.00     0.136 A 
ATOM     18  H2  UNL     1      13.444  10.456   7.109  1.00  0.00     0.165 HD
HETATM   19  C1  UNL     1      13.578  11.731  10.162  1.00  0.00     0.114 A 
HETATM   20  N10 UNL     1      14.857  11.378  10.413  1.00  0.00    -0.349 N 
HETATM   21  C15 UNL     1      15.615  10.719   9.527  1.00  0.00     0.123 A 
ATOM     22  H10 UNL     1      15.262  11.623  11.317  1.00  0.00     0.167 HD
BRANCH  19  23
HETATM   23  N1  UNL     1      12.859  12.367  11.026  1.00  0.00    -0.384 N 
ATOM     24  H12 UNL     1      12.071  11.929  11.503  1.00  0.00     0.157 HD
ATOM     25  H11 UNL     1      13.034  13.339  11.282  1.00  0.00     0.157 HD
ENDBRANCH  19  23
ENDBRANCH  12  15
ENDBRANCH   7   8
ENDBRANCH   1   7
BRANCH   6  26
HETATM   26  S1  UNL     1      17.996  11.145   1.009  1.00  0.00     0.184 S 
HETATM   27  O2  UNL     1      19.872  11.332   0.377  1.00  0.00    -0.224 OA
HETATM   28  O3  UNL     1      18.384  13.009   1.073  1.00  0.00    -0.224 OA
BRANCH  26  29
HETATM   29  C11 UNL     1      16.693  11.433  -0.275  1.00  0.00     0.264 C 
BRANCH  29  30
HETATM   30  N6  UNL     1      16.015  10.259  -0.823  1.00  0.00    -0.357 N 
ATOM     31  H6  UNL     1      15.909   9.422  -0.250  1.00  0.00     0.162 HD
BRANCH  30  32
HETATM   32  C12 UNL     1      15.552  10.274  -2.019  1.00  0.00     0.186 A 
HETATM   33  N7  UNL     1      16.281  10.684  -3.067  1.00  0.00    -0.280 N 
HETATM   34  N8  UNL     1      15.796  10.699  -4.307  1.00  0.00    -0.294 N 
ATOM     35  H7  UNL     1      17.240  10.996  -2.908  1.00  0.00     0.188 HD
HETATM   36  C13 UNL     1      14.539  10.296  -4.548  1.00  0.00     0.200 A 
ATOM     37  H8  UNL     1      16.383  11.020  -5.078  1.00  0.00     0.187 HD
HETATM   38  N9  UNL     1      13.782   9.881  -3.532  1.00  0.00    -0.315 N 
HETATM   39  C14 UNL     1      14.261   9.860  -2.267  1.00  0.00     0.291 A 
ATOM     40  H9  UNL     1      12.826   9.574  -3.712  1.00  0.00     0.170 HD
HETATM   41  O4  UNL     1      13.514   9.458  -1.315  1.00  0.00    -0.264 OA
ENDBRANCH  30  32
ENDBRANCH  29  30
ENDBRANCH  26  29
ENDBRANCH   6  26
TORSDOF 8
ENDMDL
