MODEL 1
REMARK VINA RESULT: -8.092054695      0.000      0.000
REMARK  11 active torsions:
REMARK  status: ('A' for Active; 'I' for Inactive)
REMARK    1  A    between atoms: O1_2  and  N1_3 
REMARK    2  A    between atoms: N1_3  and  C2_5 
REMARK    3  A    between atoms: C3_6  and  N2_7 
REMARK    4  A    between atoms: C5_13  and  N4_14 
REMARK    5  A    between atoms: C12_26  and  N8_27 
REMARK    6  A    between atoms: N10_33  and  C14_34 
REMARK    7  A    between atoms: C14_34  and  C15_35 
REMARK    8  A    between atoms: C15_35  and  C16_36 
REMARK    9  A    between atoms: C15_35  and  O4_40 
REMARK   10  A    between atoms: C16_36  and  C17_37 
REMARK   11  A    between atoms: C17_37  and  O3_38 
ROOT
HETATM    1  N4  UNL     1      20.171   7.384   4.392  1.00  0.00    -0.353 N 
HETATM    2  C6  UNL     1      20.052   5.968   4.126  1.00  0.00     0.227 C 
HETATM    3  C7  UNL     1      21.431   5.381   3.944  1.00  0.00     0.238 C 
HETATM    4  O2  UNL     1      21.531   4.368   3.235  1.00  0.00    -0.272 OA
HETATM    5  N5  UNL     1      22.563   5.948   4.550  1.00  0.00    -0.336 N 
HETATM    6  C8  UNL     1      23.789   5.171   4.774  1.00  0.00     0.154 C 
HETATM    7  C9  UNL     1      22.551   7.319   4.969  1.00  0.00     0.212 C 
HETATM    8  C10 UNL     1      23.131   8.227   3.972  1.00  0.00     0.086 C 
HETATM    9  N6  UNL     1      23.583   8.953   3.205  1.00  0.00    -0.195 NA
HETATM   10  C11 UNL     1      21.176   7.770   5.365  1.00  0.00     0.165 C 
ENDROOT
BRANCH   1  11
HETATM   11  C5  UNL     1      19.334   8.295   3.702  1.00  0.00     0.150 A 
HETATM   12  C4  UNL     1      18.134   8.754   4.188  1.00  0.00     0.124 A 
HETATM   13  N3  UNL     1      17.748   8.383   5.418  1.00  0.00    -0.334 N 
HETATM   14  C13 UNL     1      17.341   9.636   3.423  1.00  0.00     0.155 A 
HETATM   15  C3  UNL     1      16.592   8.861   5.926  1.00  0.00     0.146 A 
ATOM     16  H3  UNL     1      18.325   7.744   5.966  1.00  0.00     0.168 HD
HETATM   17  C2  UNL     1      15.802   9.716   5.211  1.00  0.00     0.173 A 
HETATM   18  N10 UNL     1      16.203  10.088   3.950  1.00  0.00    -0.310 N 
HETATM   19  N9  UNL     1      17.781  10.025   2.220  1.00  0.00    -0.174 N 
HETATM   20  C12 UNL     1      18.951   9.581   1.745  1.00  0.00     0.679 A 
ATOM     21  H9  UNL     1      17.219  10.665   1.659  1.00  0.00     0.186 HD
HETATM   22  N7  UNL     1      19.696   8.742   2.469  1.00  0.00    -0.175 N 
ATOM     23  H7  UNL     1      20.582   8.421   2.077  1.00  0.00     0.186 HD
BRANCH  15  24
HETATM   24  N2  UNL     1      16.248   8.483   7.123  1.00  0.00    -0.382 N 
ATOM     25  H22 UNL     1      15.819   9.174   7.739  1.00  0.00     0.157 HD
ATOM     26  H21 UNL     1      16.404   7.524   7.431  1.00  0.00     0.157 HD
ENDBRANCH  15  24
BRANCH  17  27
HETATM   27  N1  UNL     1      14.711  10.194   5.698  1.00  0.00    -0.248 N 
ATOM     28  H1  UNL     1      13.826   9.997   5.230  1.00  0.00     0.196 HD
BRANCH  27  29
HETATM   29  O1  UNL     1      14.715  10.962   6.836  1.00  0.00    -0.284 OA
HETATM   30  C1  UNL     1      13.760  10.797   7.871  1.00  0.00     0.237 C 
ENDBRANCH  27  29
ENDBRANCH  17  27
BRANCH  18  31
HETATM   31  C14 UNL     1      15.299  11.004   3.282  1.00  0.00     0.164 C 
BRANCH  31  32
HETATM   32  C15 UNL     1      14.584  10.464   2.097  1.00  0.00     0.141 C 
BRANCH  32  33
HETATM   33  C16 UNL     1      14.099   9.087   1.991  1.00  0.00     0.059 C 
BRANCH  33  34
HETATM   34  C17 UNL     1      12.726   8.728   2.397  1.00  0.00     0.166 C 
BRANCH  34  35
HETATM   35  O3  UNL     1      12.582   9.170   3.746  1.00  0.00    -0.401 OA
ATOM     36  H3  UNL     1      11.651   9.299   3.884  1.00  0.00     0.209 HD
ENDBRANCH  34  35
ENDBRANCH  33  34
ENDBRANCH  32  33
BRANCH  32  37
HETATM   37  O4  UNL     1      15.273  10.840   0.905  1.00  0.00    -0.389 OA
HETATM   38  C18 UNL     1      15.007  10.046  -0.166  1.00  0.00     0.202 C 
ENDBRANCH  32  37
ENDBRANCH  31  32
ENDBRANCH  18  31
BRANCH  20  39
HETATM   39  N8  UNL     1      19.384   9.960   0.563  1.00  0.00    -0.234 N 
ATOM     40  H82 UNL     1      20.304   9.674   0.229  1.00  0.00     0.174 HD
ATOM     41  H81 UNL     1      18.785  10.548  -0.017  1.00  0.00     0.174 HD
ENDBRANCH  20  39
ENDBRANCH   1  11
TORSDOF 11
ENDMDL
MODEL 2
REMARK VINA RESULT: -7.971654041      1.685      2.447
REMARK  11 active torsions:
REMARK  status: ('A' for Active; 'I' for Inactive)
REMARK    1  A    between atoms: O1_2  and  N1_3 
REMARK    2  A    between atoms: N1_3  and  C2_5 
REMARK    3  A    between atoms: C3_6  and  N2_7 
REMARK    4  A    between atoms: C5_13  and  N4_14 
REMARK    5  A    between atoms: C12_26  and  N8_27 
REMARK    6  A    between atoms: N10_33  and  C14_34 
REMARK    7  A    between atoms: C14_34  and  C15_35 
REMARK    8  A    between atoms: C15_35  and  C16_36 
REMARK    9  A    between atoms: C15_35  and  O4_40 
REMARK   10  A    between atoms: C16_36  and  C17_37 
REMARK   11  A    between atoms: C17_37  and  O3_38 
ROOT
HETATM    1  N4  UNL     1      22.003   8.220   2.766  1.00  0.00    -0.353 N 
HETATM    2  C6  UNL     1      23.066   8.576   3.678  1.00  0.00     0.227 C 
HETATM    3  C7  UNL     1      23.281   7.444   4.654  1.00  0.00     0.238 C 
HETATM    4  O2  UNL     1      23.743   7.731   5.769  1.00  0.00    -0.272 OA
HETATM    5  N5  UNL     1      22.974   6.114   4.324  1.00  0.00    -0.336 N 
HETATM    6  C8  UNL     1      23.583   4.983   5.037  1.00  0.00     0.154 C 
HETATM    7  C9  UNL     1      22.047   5.824   3.270  1.00  0.00     0.212 C 
HETATM    8  C10 UNL     1      20.682   5.590   3.758  1.00  0.00     0.086 C 
HETATM    9  N6  UNL     1      19.608   5.403   4.121  1.00  0.00    -0.195 NA
HETATM   10  C11 UNL     1      22.059   6.882   2.207  1.00  0.00     0.165 C 
ENDROOT
BRANCH   1  11
HETATM   11  C5  UNL     1      20.985   9.164   2.481  1.00  0.00     0.150 A 
HETATM   12  C4  UNL     1      19.814   9.268   3.190  1.00  0.00     0.124 A 
HETATM   13  N3  UNL     1      19.635   8.485   4.264  1.00  0.00    -0.334 N 
HETATM   14  C13 UNL     1      18.834  10.214   2.821  1.00  0.00     0.155 A 
HETATM   15  C3  UNL     1      18.508   8.607   4.997  1.00  0.00     0.146 A 
ATOM     16  H3  UNL     1      20.347   7.802   4.526  1.00  0.00     0.168 HD
HETATM   17  C2  UNL     1      17.540   9.512   4.666  1.00  0.00     0.173 A 
HETATM   18  N10 UNL     1      17.729  10.308   3.562  1.00  0.00    -0.310 N 
HETATM   19  N9  UNL     1      19.067  11.013   1.772  1.00  0.00    -0.174 N 
HETATM   20  C12 UNL     1      20.208  10.915   1.081  1.00  0.00     0.679 A 
ATOM     21  H9  UNL     1      18.368  11.703   1.498  1.00  0.00     0.186 HD
HETATM   22  N7  UNL     1      21.132  10.016   1.429  1.00  0.00    -0.175 N 
ATOM     23  H7  UNL     1      21.990   9.966   0.880  1.00  0.00     0.186 HD
BRANCH  15  24
HETATM   24  N2  UNL     1      18.367   7.834   6.035  1.00  0.00    -0.382 N 
ATOM     25  H22 UNL     1      18.527   8.236   6.958  1.00  0.00     0.157 HD
ATOM     26  H21 UNL     1      18.102   6.855   5.922  1.00  0.00     0.157 HD
ENDBRANCH  15  24
BRANCH  17  27
HETATM   27  N1  UNL     1      16.473   9.649   5.374  1.00  0.00    -0.248 N 
ATOM     28  H1  UNL     1      16.287  10.542   5.830  1.00  0.00     0.196 HD
BRANCH  27  29
HETATM   29  O1  UNL     1      15.582   8.616   5.525  1.00  0.00    -0.284 OA
HETATM   30  C1  UNL     1      14.791   8.456   6.691  1.00  0.00     0.237 C 
ENDBRANCH  27  29
ENDBRANCH  17  27
BRANCH  18  31
HETATM   31  C14 UNL     1      16.648  11.239   3.303  1.00  0.00     0.164 C 
BRANCH  31  32
HETATM   32  C15 UNL     1      15.712  10.863   2.213  1.00  0.00     0.141 C 
BRANCH  32  33
HETATM   33  C16 UNL     1      15.084   9.547   2.090  1.00  0.00     0.059 C 
BRANCH  33  34
HETATM   34  C17 UNL     1      13.734   9.293   2.628  1.00  0.00     0.166 C 
BRANCH  34  35
HETATM   35  O3  UNL     1      13.643  10.035   3.843  1.00  0.00    -0.401 OA
ATOM     36  H3  UNL     1      12.748   9.939   4.146  1.00  0.00     0.209 HD
ENDBRANCH  34  35
ENDBRANCH  33  34
ENDBRANCH  32  33
BRANCH  32  37
HETATM   37  O4  UNL     1      16.245  11.278   0.956  1.00  0.00    -0.389 OA
HETATM   38  C18 UNL     1      15.835  10.525  -0.099  1.00  0.00     0.202 C 
ENDBRANCH  32  37
ENDBRANCH  31  32
ENDBRANCH  18  31
BRANCH  20  39
HETATM   39  N8  UNL     1      20.439  11.699   0.050  1.00  0.00    -0.234 N 
ATOM     40  H82 UNL     1      21.392  11.959  -0.204  1.00  0.00     0.174 HD
ATOM     41  H81 UNL     1      19.648  12.046  -0.493  1.00  0.00     0.174 HD
ENDBRANCH  20  39
ENDBRANCH   1  11
TORSDOF 11
ENDMDL
MODEL 3
REMARK VINA RESULT: -7.936397340      1.607      2.754
REMARK  11 active torsions:
REMARK  status: ('A' for Active; 'I' for Inactive)
REMARK    1  A    between atoms: O1_2  and  N1_3 
REMARK    2  A    between atoms: N1_3  and  C2_5 
REMARK    3  A    between atoms: C3_6  and  N2_7 
REMARK    4  A    between atoms: C5_13  and  N4_14 
REMARK    5  A    between atoms: C12_26  and  N8_27 
REMARK    6  A    between atoms: N10_33  and  C14_34 
REMARK    7  A    between atoms: C14_34  and  C15_35 
REMARK    8  A    between atoms: C15_35  and  C16_36 
REMARK    9  A    between atoms: C15_35  and  O4_40 
REMARK   10  A    between atoms: C16_36  and  C17_37 
REMARK   11  A    between atoms: C17_37  and  O3_38 
ROOT
HETATM    1  N4  UNL     1      21.782   8.028   2.625  1.00  0.00    -0.353 N 
HETATM    2  C6  UNL     1      22.799   8.615   3.467  1.00  0.00     0.227 C 
HETATM    3  C7  UNL     1      23.168   7.635   4.556  1.00  0.00     0.238 C 
HETATM    4  O2  UNL     1      23.600   8.101   5.621  1.00  0.00    -0.272 OA
HETATM    5  N5  UNL     1      23.033   6.249   4.380  1.00  0.00    -0.336 N 
HETATM    6  C8  UNL     1      23.789   5.290   5.197  1.00  0.00     0.154 C 
HETATM    7  C9  UNL     1      22.141   5.727   3.387  1.00  0.00     0.212 C 
HETATM    8  C10 UNL     1      20.822   5.377   3.929  1.00  0.00     0.086 C 
HETATM    9  N6  UNL     1      19.786   5.095   4.336  1.00  0.00    -0.195 NA
HETATM   10  C11 UNL     1      22.006   6.654   2.214  1.00  0.00     0.165 C 
ENDROOT
BRANCH   1  11
HETATM   11  C5  UNL     1      20.648   8.796   2.263  1.00  0.00     0.150 A 
HETATM   12  C4  UNL     1      19.494   8.857   3.004  1.00  0.00     0.124 A 
HETATM   13  N3  UNL     1      19.444   8.214   4.180  1.00  0.00    -0.334 N 
HETATM   14  C13 UNL     1      18.395   9.620   2.557  1.00  0.00     0.155 A 
HETATM   15  C3  UNL     1      18.331   8.300   4.940  1.00  0.00     0.146 A 
ATOM     16  H3  UNL     1      20.241   7.661   4.497  1.00  0.00     0.168 HD
HETATM   17  C2  UNL     1      17.250   9.031   4.535  1.00  0.00     0.173 A 
HETATM   18  N10 UNL     1      17.308   9.684   3.328  1.00  0.00    -0.310 N 
HETATM   19  N9  UNL     1      18.497  10.290   1.402  1.00  0.00    -0.174 N 
HETATM   20  C12 UNL     1      19.622  10.234   0.680  1.00  0.00     0.679 A 
ATOM     21  H9  UNL     1      17.711  10.848   1.070  1.00  0.00     0.186 HD
HETATM   22  N7  UNL     1      20.659   9.507   1.103  1.00  0.00    -0.175 N 
ATOM     23  H7  UNL     1      21.501   9.484   0.527  1.00  0.00     0.186 HD
BRANCH  15  24
HETATM   24  N2  UNL     1      18.316   7.666   6.077  1.00  0.00    -0.382 N 
ATOM     25  H22 UNL     1      18.343   8.217   6.934  1.00  0.00     0.157 HD
ATOM     26  H21 UNL     1      18.277   6.647   6.103  1.00  0.00     0.157 HD
ENDBRANCH  15  24
BRANCH  17  27
HETATM   27  N1  UNL     1      16.195   9.136   5.266  1.00  0.00    -0.248 N 
ATOM     28  H1  UNL     1      15.309   8.768   4.920  1.00  0.00     0.196 HD
BRANCH  27  29
HETATM   29  O1  UNL     1      16.240   9.736   6.500  1.00  0.00    -0.284 OA
HETATM   30  C1  UNL     1      15.471   9.278   7.599  1.00  0.00     0.237 C 
ENDBRANCH  27  29
ENDBRANCH  17  27
BRANCH  18  31
HETATM   31  C14 UNL     1      16.114  10.436   2.997  1.00  0.00     0.164 C 
BRANCH  31  32
HETATM   32  C15 UNL     1      15.159   9.770   2.073  1.00  0.00     0.141 C 
BRANCH  32  33
HETATM   33  C16 UNL     1      14.668  10.370   0.832  1.00  0.00     0.059 C 
BRANCH  33  34
HETATM   34  C17 UNL     1      15.441  10.272  -0.421  1.00  0.00     0.166 C 
BRANCH  34  35
HETATM   35  O3  UNL     1      16.420  11.308  -0.367  1.00  0.00    -0.401 OA
ATOM     36  H3  UNL     1      16.969  11.114   0.383  1.00  0.00     0.209 HD
ENDBRANCH  34  35
ENDBRANCH  33  34
ENDBRANCH  32  33
BRANCH  32  37
HETATM   37  O4  UNL     1      14.077   9.213   2.818  1.00  0.00    -0.389 OA
HETATM   38  C18 UNL     1      13.142   8.586   2.056  1.00  0.00     0.202 C 
ENDBRANCH  32  37
ENDBRANCH  31  32
ENDBRANCH  18  31
BRANCH  20  39
HETATM   39  N8  UNL     1      19.724  10.890  -0.455  1.00  0.00    -0.234 N 
ATOM     40  H82 UNL     1      20.241  11.769  -0.504  1.00  0.00     0.174 HD
ATOM     41  H81 UNL     1      19.277  10.508  -1.289  1.00  0.00     0.174 HD
ENDBRANCH  20  39
ENDBRANCH   1  11
TORSDOF 11
ENDMDL
MODEL 4
REMARK VINA RESULT: -7.890280475      0.532      1.438
REMARK  11 active torsions:
REMARK  status: ('A' for Active; 'I' for Inactive)
REMARK    1  A    between atoms: O1_2  and  N1_3 
REMARK    2  A    between atoms: N1_3  and  C2_5 
REMARK    3  A    between atoms: C3_6  and  N2_7 
REMARK    4  A    between atoms: C5_13  and  N4_14 
REMARK    5  A    between atoms: C12_26  and  N8_27 
REMARK    6  A    between atoms: N10_33  and  C14_34 
REMARK    7  A    between atoms: C14_34  and  C15_35 
REMARK    8  A    between atoms: C15_35  and  C16_36 
REMARK    9  A    between atoms: C15_35  and  O4_40 
REMARK   10  A    between atoms: C16_36  and  C17_37 
REMARK   11  A    between atoms: C17_37  and  O3_38 
ROOT
HETATM    1  N4  UNL     1      20.108   7.452   4.454  1.00  0.00    -0.353 N 
HETATM    2  C6  UNL     1      19.990   6.018   4.326  1.00  0.00     0.227 C 
HETATM    3  C7  UNL     1      21.354   5.431   4.053  1.00  0.00     0.238 C 
HETATM    4  O2  UNL     1      21.401   4.360   3.427  1.00  0.00    -0.272 OA
HETATM    5  N5  UNL     1      22.531   6.061   4.486  1.00  0.00    -0.336 N 
HETATM    6  C8  UNL     1      23.789   5.320   4.649  1.00  0.00     0.154 C 
HETATM    7  C9  UNL     1      22.536   7.463   4.784  1.00  0.00     0.212 C 
HETATM    8  C10 UNL     1      22.992   8.286   3.657  1.00  0.00     0.086 C 
HETATM    9  N6  UNL     1      23.349   8.946   2.788  1.00  0.00    -0.195 NA
HETATM   10  C11 UNL     1      21.200   7.933   5.280  1.00  0.00     0.165 C 
ENDROOT
BRANCH   1  11
HETATM   11  C5  UNL     1      19.187   8.290   3.779  1.00  0.00     0.150 A 
HETATM   12  C4  UNL     1      17.978   8.680   4.300  1.00  0.00     0.124 A 
HETATM   13  N3  UNL     1      17.663   8.312   5.551  1.00  0.00    -0.334 N 
HETATM   14  C13 UNL     1      17.100   9.490   3.549  1.00  0.00     0.155 A 
HETATM   15  C3  UNL     1      16.497   8.723   6.093  1.00  0.00     0.146 A 
ATOM     16  H3  UNL     1      18.301   7.724   6.089  1.00  0.00     0.168 HD
HETATM   17  C2  UNL     1      15.626   9.508   5.392  1.00  0.00     0.173 A 
HETATM   18  N10 UNL     1      15.954   9.877   4.110  1.00  0.00    -0.310 N 
HETATM   19  N9  UNL     1      17.469   9.879   2.322  1.00  0.00    -0.174 N 
HETATM   20  C12 UNL     1      18.647   9.504   1.812  1.00  0.00     0.679 A 
ATOM     21  H9  UNL     1      16.844  10.468   1.770  1.00  0.00     0.186 HD
HETATM   22  N7  UNL     1      19.473   8.733   2.524  1.00  0.00    -0.175 N 
ATOM     23  H7  UNL     1      20.364   8.462   2.105  1.00  0.00     0.186 HD
BRANCH  15  24
HETATM   24  N2  UNL     1      16.223   8.350   7.310  1.00  0.00    -0.382 N 
ATOM     25  H22 UNL     1      16.996   8.056   7.907  1.00  0.00     0.157 HD
ATOM     26  H21 UNL     1      15.262   8.355   7.651  1.00  0.00     0.157 HD
ENDBRANCH  15  24
BRANCH  17  27
HETATM   27  N1  UNL     1      14.523   9.922   5.911  1.00  0.00    -0.248 N 
ATOM     28  H1  UNL     1      13.636   9.590   5.532  1.00  0.00     0.196 HD
BRANCH  27  29
HETATM   29  O1  UNL     1      14.518  10.804   6.963  1.00  0.00    -0.284 OA
HETATM   30  C1  UNL     1      13.629  10.677   8.060  1.00  0.00     0.237 C 
ENDBRANCH  27  29
ENDBRANCH  17  27
BRANCH  18  31
HETATM   31  C14 UNL     1      14.967  10.715   3.458  1.00  0.00     0.164 C 
BRANCH  31  32
HETATM   32  C15 UNL     1      14.095  10.040   2.462  1.00  0.00     0.141 C 
BRANCH  32  33
HETATM   33  C16 UNL     1      13.760  10.603   1.153  1.00  0.00     0.059 C 
BRANCH  33  34
HETATM   34  C17 UNL     1      14.643  10.402  -0.012  1.00  0.00     0.166 C 
BRANCH  34  35
HETATM   35  O3  UNL     1      15.227   9.110   0.149  1.00  0.00    -0.401 OA
ATOM     36  H3  UNL     1      15.179   8.690  -0.702  1.00  0.00     0.209 HD
ENDBRANCH  34  35
ENDBRANCH  33  34
ENDBRANCH  32  33
BRANCH  32  37
HETATM   37  O4  UNL     1      12.920   9.548   3.105  1.00  0.00    -0.389 OA
HETATM   38  C18 UNL     1      12.217   8.648   2.368  1.00  0.00     0.202 C 
ENDBRANCH  32  37
ENDBRANCH  31  32
ENDBRANCH  18  31
BRANCH  20  39
HETATM   39  N8  UNL     1      19.010   9.884   0.607  1.00  0.00    -0.234 N 
ATOM     40  H82 UNL     1      18.718  10.788   0.236  1.00  0.00     0.174 HD
ATOM     41  H81 UNL     1      19.589   9.260   0.045  1.00  0.00     0.174 HD
ENDBRANCH  20  39
ENDBRANCH   1  11
TORSDOF 11
ENDMDL
MODEL 5
REMARK VINA RESULT: -7.862640951      1.924      2.876
REMARK  11 active torsions:
REMARK  status: ('A' for Active; 'I' for Inactive)
REMARK    1  A    between atoms: O1_2  and  N1_3 
REMARK    2  A    between atoms: N1_3  and  C2_5 
REMARK    3  A    between atoms: C3_6  and  N2_7 
REMARK    4  A    between atoms: C5_13  and  N4_14 
REMARK    5  A    between atoms: C12_26  and  N8_27 
REMARK    6  A    between atoms: N10_33  and  C14_34 
REMARK    7  A    between atoms: C14_34  and  C15_35 
REMARK    8  A    between atoms: C15_35  and  C16_36 
REMARK    9  A    between atoms: C15_35  and  O4_40 
REMARK   10  A    between atoms: C16_36  and  C17_37 
REMARK   11  A    between atoms: C17_37  and  O3_38 
ROOT
HETATM    1  N4  UNL     1      21.490   9.150   2.728  1.00  0.00    -0.353 N 
HETATM    2  C6  UNL     1      22.247  10.095   3.518  1.00  0.00     0.227 C 
HETATM    3  C7  UNL     1      22.688   9.429   4.799  1.00  0.00     0.238 C 
HETATM    4  O2  UNL     1      22.878  10.157   5.786  1.00  0.00    -0.272 OA
HETATM    5  N5  UNL     1      22.880   8.041   4.884  1.00  0.00    -0.336 N 
HETATM    6  C8  UNL     1      23.725   7.441   5.925  1.00  0.00     0.154 C 
HETATM    7  C9  UNL     1      22.249   7.162   3.943  1.00  0.00     0.212 C 
HETATM    8  C10 UNL     1      20.983   6.608   4.440  1.00  0.00     0.086 C 
HETATM    9  N6  UNL     1      19.992   6.162   4.811  1.00  0.00    -0.195 NA
HETATM   10  C11 UNL     1      22.055   7.819   2.608  1.00  0.00     0.165 C 
ENDROOT
BRANCH   1  11
HETATM   11  C5  UNL     1      20.267   9.556   2.139  1.00  0.00     0.150 A 
HETATM   12  C4  UNL     1      19.045   9.449   2.756  1.00  0.00     0.124 A 
HETATM   13  N3  UNL     1      18.994   9.001   4.019  1.00  0.00    -0.334 N 
HETATM   14  C13 UNL     1      17.868   9.846   2.087  1.00  0.00     0.155 A 
HETATM   15  C3  UNL     1      17.804   8.932   4.653  1.00  0.00     0.146 A 
ATOM     16  H3  UNL     1      19.848   8.714   4.497  1.00  0.00     0.168 HD
HETATM   17  C2  UNL     1      16.646   9.308   4.034  1.00  0.00     0.173 A 
HETATM   18  N10 UNL     1      16.707   9.762   2.738  1.00  0.00    -0.310 N 
HETATM   19  N9  UNL     1      17.962  10.334   0.844  1.00  0.00    -0.174 N 
HETATM   20  C12 UNL     1      19.151  10.442   0.242  1.00  0.00     0.679 A 
ATOM     21  H9  UNL     1      17.118  10.628   0.352  1.00  0.00     0.186 HD
HETATM   22  N7  UNL     1      20.264  10.061   0.875  1.00  0.00    -0.175 N 
ATOM     23  H7  UNL     1      21.155  10.154   0.387  1.00  0.00     0.186 HD
BRANCH  15  24
HETATM   24  N2  UNL     1      17.789   8.495   5.880  1.00  0.00    -0.382 N 
ATOM     25  H22 UNL     1      17.196   7.694   6.096  1.00  0.00     0.157 HD
ATOM     26  H21 UNL     1      18.356   8.944   6.599  1.00  0.00     0.157 HD
ENDBRANCH  15  24
BRANCH  17  27
HETATM   27  N1  UNL     1      15.511   9.266   4.640  1.00  0.00    -0.248 N 
ATOM     28  H1  UNL     1      14.812   8.585   4.346  1.00  0.00     0.196 HD
BRANCH  27  29
HETATM   29  O1  UNL     1      15.225  10.121   5.676  1.00  0.00    -0.284 OA
HETATM   30  C1  UNL     1      14.152   9.899   6.575  1.00  0.00     0.237 C 
ENDBRANCH  27  29
ENDBRANCH  17  27
BRANCH  18  31
HETATM   31  C14 UNL     1      15.425  10.143   2.177  1.00  0.00     0.164 C 
BRANCH  31  32
HETATM   32  C15 UNL     1      14.796   9.156   1.261  1.00  0.00     0.141 C 
BRANCH  32  33
HETATM   33  C16 UNL     1      14.135   9.512   0.005  1.00  0.00     0.059 C 
BRANCH  33  34
HETATM   34  C17 UNL     1      14.479   8.831  -1.258  1.00  0.00     0.166 C 
BRANCH  34  35
HETATM   35  O3  UNL     1      14.838   7.496  -0.905  1.00  0.00    -0.401 OA
ATOM     36  H3  UNL     1      15.639   7.563  -0.398  1.00  0.00     0.209 HD
ENDBRANCH  34  35
ENDBRANCH  33  34
ENDBRANCH  32  33
BRANCH  32  37
HETATM   37  O4  UNL     1      13.986   8.252   2.010  1.00  0.00    -0.389 OA
HETATM   38  C18 UNL     1      12.750   8.731   2.312  1.00  0.00     0.202 C 
ENDBRANCH  32  37
ENDBRANCH  31  32
ENDBRANCH  18  31
BRANCH  20  39
HETATM   39  N8  UNL     1      19.246  10.920  -0.979  1.00  0.00    -0.234 N 
ATOM     40  H82 UNL     1      19.322  10.293  -1.780  1.00  0.00     0.174 HD
ATOM     41  H81 UNL     1      19.243  11.931  -1.115  1.00  0.00     0.174 HD
ENDBRANCH  20  39
ENDBRANCH   1  11
TORSDOF 11
ENDMDL
