MODEL 1
REMARK VINA RESULT: -9.264130634      0.000      0.000
REMARK  11 active torsions:
REMARK  status: ('A' for Active; 'I' for Inactive)
REMARK    1  A    between atoms: C2_5  and  O2_6 
REMARK    2  A    between atoms: C3_8  and  C4_9 
REMARK    3  A    between atoms: C4_9  and  C5_10 
REMARK    4  A    between atoms: C7_15  and  N4_16 
REMARK    5  A    between atoms: N4_16  and  C8_18 
REMARK    6  A    between atoms: C8_18  and  C9_19 
REMARK    7  A    between atoms: C9_19  and  C10_20 
REMARK    8  A    between atoms: C10_20  and  O3_21 
REMARK    9  A    between atoms: C11_25  and  N6_26 
REMARK   10  A    between atoms: C13_28  and  C14_29 
REMARK   11  A    between atoms: C14_29  and  C15_30 
ROOT
HETATM    1  C5  UNL     1      18.988   8.540   3.794  1.00  0.00     0.030 A 
HETATM    2  C6  UNL     1      19.051   8.373   5.153  1.00  0.00     0.123 A 
HETATM    3  N2  UNL     1      17.842   8.639   5.648  1.00  0.00    -0.288 N 
ATOM      4  H2  UNL     1      17.594   8.596   6.636  1.00  0.00     0.187 HD
HETATM    5  N3  UNL     1      17.014   8.966   4.678  1.00  0.00    -0.068 N 
HETATM    6  C7  UNL     1      15.698   9.314   4.688  1.00  0.00     0.715 A 
HETATM    7  N5  UNL     1      15.128   9.594   3.516  1.00  0.00    -0.021 N 
ATOM      8  H5  UNL     1      14.143   9.858   3.502  1.00  0.00     0.203 HD
HETATM    9  C11 UNL     1      15.799   9.545   2.346  1.00  0.00     0.696 A 
HETATM   10  N11 UNL     1      17.076   9.205   2.359  1.00  0.00    -0.173 N 
ATOM     11  H11 UNL     1      17.597   9.164   1.484  1.00  0.00     0.186 HD
HETATM   12  C17 UNL     1      17.695   8.913   3.523  1.00  0.00     0.172 A 
ENDROOT
BRANCH   9  13
HETATM   13  N6  UNL     1      15.140   9.855   1.125  1.00  0.00    -0.216 N 
HETATM   14  C12 UNL     1      13.811   9.560   0.584  1.00  0.00     0.148 C 
HETATM   15  C13 UNL     1      14.402   9.783  -0.792  1.00  0.00     0.030 C 
HETATM   16  C16 UNL     1      15.478  10.570  -0.077  1.00  0.00     0.148 C 
BRANCH  15  17
HETATM   17  C14 UNL     1      13.479  10.573  -1.661  1.00  0.00     0.086 C 
BRANCH  17  18
HETATM   18  C15 UNL     1      13.706  10.131  -3.081  1.00  0.00     0.107 A 
HETATM   19  N7  UNL     1      14.871  10.034  -3.742  1.00  0.00    -0.274 N 
HETATM   20  N8  UNL     1      14.666   9.608  -4.975  1.00  0.00    -0.007 NA
ATOM     21  H7  UNL     1      15.785  10.257  -3.348  1.00  0.00     0.185 HD
HETATM   22  N9  UNL     1      13.360   9.437  -5.087  1.00  0.00    -0.007 NA
HETATM   23  N10 UNL     1      12.756   9.747  -3.952  1.00  0.00    -0.274 N 
ATOM     24  H10 UNL     1      11.753   9.703  -3.771  1.00  0.00     0.185 HD
ENDBRANCH  17  18
ENDBRANCH  15  17
ENDBRANCH   9  13
BRANCH   6  25
HETATM   25  N4  UNL     1      15.093   9.350   5.807  1.00  0.00    -0.224 N 
ATOM     26  H4  UNL     1      15.551   9.858   6.565  1.00  0.00     0.177 HD
BRANCH  25  27
HETATM   27  C8  UNL     1      13.833   8.745   6.099  1.00  0.00     0.140 C 
BRANCH  27  28
HETATM   28  C9  UNL     1      14.034   7.745   7.234  1.00  0.00     0.046 C 
BRANCH  28  29
HETATM   29  C10 UNL     1      15.119   8.297   8.134  1.00  0.00     0.165 C 
BRANCH  29  30
HETATM   30  O3  UNL     1      16.339   7.693   7.879  1.00  0.00    -0.401 OA
ATOM     31  H3  UNL     1      16.512   6.991   8.496  1.00  0.00     0.209 HD
ENDBRANCH  29  30
ENDBRANCH  28  29
ENDBRANCH  27  28
ENDBRANCH  25  27
ENDBRANCH   6  25
BRANCH   1  32
HETATM   32  C4  UNL     1      19.979   8.371   2.939  1.00  0.00     0.051 C 
BRANCH  32  33
HETATM   33  C3  UNL     1      20.542   9.511   2.254  1.00  0.00     0.088 A 
HETATM   34  C2  UNL     1      20.271   9.856   0.953  1.00  0.00     0.171 A 
HETATM   35  N1  UNL     1      20.962  10.965   0.642  1.00  0.00    -0.287 N 
HETATM   36  C1  UNL     1      21.659  11.314   1.732  1.00  0.00     0.326 A 
ATOM     37  H1  UNL     1      20.957  11.451  -0.255  1.00  0.00     0.172 HD
HETATM   38  O1  UNL     1      22.431  12.323   1.808  1.00  0.00    -0.247 OA
HETATM   39  N12 UNL     1      21.405  10.434   2.711  1.00  0.00    -0.305 N 
ATOM     40  H12 UNL     1      21.803  10.460   3.650  1.00  0.00     0.171 HD
BRANCH  34  41
HETATM   41  O2  UNL     1      19.404   9.143   0.105  1.00  0.00    -0.344 OA
ATOM     42  H2  UNL     1      18.523   9.395  -0.145  1.00  0.00     0.219 HD
ENDBRANCH  34  41
ENDBRANCH  32  33
ENDBRANCH   1  32
TORSDOF 11
ENDMDL
MODEL 2
REMARK VINA RESULT: -9.178750525      1.011      1.330
REMARK  11 active torsions:
REMARK  status: ('A' for Active; 'I' for Inactive)
REMARK    1  A    between atoms: C2_5  and  O2_6 
REMARK    2  A    between atoms: C3_8  and  C4_9 
REMARK    3  A    between atoms: C4_9  and  C5_10 
REMARK    4  A    between atoms: C7_15  and  N4_16 
REMARK    5  A    between atoms: N4_16  and  C8_18 
REMARK    6  A    between atoms: C8_18  and  C9_19 
REMARK    7  A    between atoms: C9_19  and  C10_20 
REMARK    8  A    between atoms: C10_20  and  O3_21 
REMARK    9  A    between atoms: C11_25  and  N6_26 
REMARK   10  A    between atoms: C13_28  and  C14_29 
REMARK   11  A    between atoms: C14_29  and  C15_30 
ROOT
HETATM    1  C5  UNL     1      18.737   8.671   3.871  1.00  0.00     0.030 A 
HETATM    2  C6  UNL     1      18.776   8.464   5.225  1.00  0.00     0.123 A 
HETATM    3  N2  UNL     1      17.537   8.617   5.692  1.00  0.00    -0.288 N 
ATOM      4  H2  UNL     1      17.266   8.522   6.671  1.00  0.00     0.187 HD
HETATM    5  N3  UNL     1      16.711   8.910   4.709  1.00  0.00    -0.068 N 
HETATM    6  C7  UNL     1      15.372   9.153   4.692  1.00  0.00     0.715 A 
HETATM    7  N5  UNL     1      14.814   9.427   3.512  1.00  0.00    -0.021 N 
ATOM      8  H5  UNL     1      13.812   9.612   3.478  1.00  0.00     0.203 HD
HETATM    9  C11 UNL     1      15.517   9.470   2.362  1.00  0.00     0.696 A 
HETATM   10  N11 UNL     1      16.817   9.232   2.402  1.00  0.00    -0.173 N 
ATOM     11  H11 UNL     1      17.363   9.261   1.541  1.00  0.00     0.186 HD
HETATM   12  C17 UNL     1      17.426   8.950   3.574  1.00  0.00     0.172 A 
ENDROOT
BRANCH   9  13
HETATM   13  N6  UNL     1      14.868   9.767   1.132  1.00  0.00    -0.216 N 
HETATM   14  C12 UNL     1      13.561   9.431   0.565  1.00  0.00     0.148 C 
HETATM   15  C13 UNL     1      14.167   9.687  -0.798  1.00  0.00     0.030 C 
HETATM   16  C16 UNL     1      15.202  10.505  -0.058  1.00  0.00     0.148 C 
BRANCH  15  17
HETATM   17  C14 UNL     1      13.231  10.452  -1.676  1.00  0.00     0.086 C 
BRANCH  17  18
HETATM   18  C15 UNL     1      13.522  10.057  -3.099  1.00  0.00     0.107 A 
HETATM   19  N7  UNL     1      14.713  10.013  -3.720  1.00  0.00    -0.274 N 
HETATM   20  N8  UNL     1      14.564   9.617  -4.970  1.00  0.00    -0.007 NA
ATOM     21  H7  UNL     1      15.605  10.252  -3.286  1.00  0.00     0.185 HD
HETATM   22  N9  UNL     1      13.269   9.411  -5.134  1.00  0.00    -0.007 NA
HETATM   23  N10 UNL     1      12.616   9.670  -4.014  1.00  0.00    -0.274 N 
ATOM     24  H10 UNL     1      11.609   9.592  -3.871  1.00  0.00     0.185 HD
ENDBRANCH  17  18
ENDBRANCH  15  17
ENDBRANCH   9  13
BRANCH   6  25
HETATM   25  N4  UNL     1      14.737   9.104   5.793  1.00  0.00    -0.224 N 
ATOM     26  H4  UNL     1      14.374   8.194   6.080  1.00  0.00     0.177 HD
BRANCH  25  27
HETATM   27  C8  UNL     1      14.485  10.207   6.664  1.00  0.00     0.140 C 
BRANCH  27  28
HETATM   28  C9  UNL     1      14.997   9.845   8.055  1.00  0.00     0.046 C 
BRANCH  28  29
HETATM   29  C10 UNL     1      14.923   8.338   8.185  1.00  0.00     0.165 C 
BRANCH  29  30
HETATM   30  O3  UNL     1      16.168   7.757   8.012  1.00  0.00    -0.401 OA
ATOM     31  H3  UNL     1      16.090   6.845   7.758  1.00  0.00     0.209 HD
ENDBRANCH  29  30
ENDBRANCH  28  29
ENDBRANCH  27  28
ENDBRANCH  25  27
ENDBRANCH   6  25
BRANCH   1  32
HETATM   32  C4  UNL     1      19.761   8.610   3.040  1.00  0.00     0.051 C 
BRANCH  32  33
HETATM   33  C3  UNL     1      20.210   9.803   2.361  1.00  0.00     0.088 A 
HETATM   34  C2  UNL     1      21.113  10.702   2.871  1.00  0.00     0.171 A 
HETATM   35  N1  UNL     1      21.301  11.688   1.978  1.00  0.00    -0.287 N 
HETATM   36  C1  UNL     1      20.524  11.413   0.920  1.00  0.00     0.326 A 
ATOM     37  H1  UNL     1      21.917  12.493   2.085  1.00  0.00     0.172 HD
HETATM   38  O1  UNL     1      20.444  12.133  -0.127  1.00  0.00    -0.247 OA
HETATM   39  N12 UNL     1      19.863  10.270   1.150  1.00  0.00    -0.305 N 
ATOM     40  H12 UNL     1      19.203   9.828   0.510  1.00  0.00     0.171 HD
BRANCH  34  41
HETATM   41  O2  UNL     1      21.729  10.583   4.130  1.00  0.00    -0.344 OA
ATOM     42  H2  UNL     1      21.457  10.017   4.842  1.00  0.00     0.219 HD
ENDBRANCH  34  41
ENDBRANCH  32  33
ENDBRANCH   1  32
TORSDOF 11
ENDMDL
MODEL 3
REMARK VINA RESULT: -9.015972229      2.552      5.811
REMARK  11 active torsions:
REMARK  status: ('A' for Active; 'I' for Inactive)
REMARK    1  A    between atoms: C2_5  and  O2_6 
REMARK    2  A    between atoms: C3_8  and  C4_9 
REMARK    3  A    between atoms: C4_9  and  C5_10 
REMARK    4  A    between atoms: C7_15  and  N4_16 
REMARK    5  A    between atoms: N4_16  and  C8_18 
REMARK    6  A    between atoms: C8_18  and  C9_19 
REMARK    7  A    between atoms: C9_19  and  C10_20 
REMARK    8  A    between atoms: C10_20  and  O3_21 
REMARK    9  A    between atoms: C11_25  and  N6_26 
REMARK   10  A    between atoms: C13_28  and  C14_29 
REMARK   11  A    between atoms: C14_29  and  C15_30 
ROOT
HETATM    1  C5  UNL     1      15.300   9.928   6.065  1.00  0.00     0.030 A 
HETATM    2  C6  UNL     1      16.292   9.387   6.841  1.00  0.00     0.123 A 
HETATM    3  N2  UNL     1      17.183   8.826   6.024  1.00  0.00    -0.288 N 
ATOM      4  H2  UNL     1      18.031   8.346   6.326  1.00  0.00     0.187 HD
HETATM    5  N3  UNL     1      16.813   8.981   4.770  1.00  0.00    -0.068 N 
HETATM    6  C7  UNL     1      17.387   8.589   3.599  1.00  0.00     0.715 A 
HETATM    7  N5  UNL     1      16.753   8.904   2.469  1.00  0.00    -0.021 N 
ATOM      8  H5  UNL     1      17.167   8.618   1.582  1.00  0.00     0.203 HD
HETATM    9  C11 UNL     1      15.588   9.583   2.449  1.00  0.00     0.696 A 
HETATM   10  N11 UNL     1      15.048   9.955   3.596  1.00  0.00    -0.173 N 
ATOM     11  H11 UNL     1      14.167  10.469   3.598  1.00  0.00     0.186 HD
HETATM   12  C17 UNL     1      15.654   9.658   4.766  1.00  0.00     0.172 A 
ENDROOT
BRANCH   9  13
HETATM   13  N6  UNL     1      14.957   9.892   1.212  1.00  0.00    -0.216 N 
HETATM   14  C12 UNL     1      13.603   9.699   0.686  1.00  0.00     0.148 C 
HETATM   15  C13 UNL     1      14.208   9.793  -0.699  1.00  0.00     0.030 C 
HETATM   16  C16 UNL     1      15.357  10.509  -0.025  1.00  0.00     0.148 C 
BRANCH  15  17
HETATM   17  C14 UNL     1      13.361  10.623  -1.608  1.00  0.00     0.086 C 
BRANCH  17  18
HETATM   18  C15 UNL     1      13.618  10.156  -3.015  1.00  0.00     0.107 A 
HETATM   19  N7  UNL     1      14.791  10.093  -3.666  1.00  0.00    -0.274 N 
HETATM   20  N8  UNL     1      14.613   9.629  -4.890  1.00  0.00    -0.007 NA
ATOM     21  H7  UNL     1      15.691  10.365  -3.272  1.00  0.00     0.185 HD
HETATM   22  N9  UNL     1      13.317   9.399  -5.005  1.00  0.00    -0.007 NA
HETATM   23  N10 UNL     1      12.692   9.710  -3.883  1.00  0.00    -0.274 N 
ATOM     24  H10 UNL     1      11.690   9.627  -3.707  1.00  0.00     0.185 HD
ENDBRANCH  17  18
ENDBRANCH  15  17
ENDBRANCH   9  13
BRANCH   6  25
HETATM   25  N4  UNL     1      18.486   7.950   3.653  1.00  0.00    -0.224 N 
ATOM     26  H4  UNL     1      18.429   6.932   3.688  1.00  0.00     0.177 HD
BRANCH  25  27
HETATM   27  C8  UNL     1      19.791   8.528   3.668  1.00  0.00     0.140 C 
BRANCH  27  28
HETATM   28  C9  UNL     1      20.584   7.891   4.805  1.00  0.00     0.046 C 
BRANCH  28  29
HETATM   29  C10 UNL     1      19.909   6.580   5.146  1.00  0.00     0.165 C 
BRANCH  29  30
HETATM   30  O3  UNL     1      19.089   6.710   6.253  1.00  0.00    -0.401 OA
ATOM     31  H3  UNL     1      19.574   6.580   7.060  1.00  0.00     0.209 HD
ENDBRANCH  29  30
ENDBRANCH  28  29
ENDBRANCH  27  28
ENDBRANCH  25  27
ENDBRANCH   6  25
BRANCH   1  32
HETATM   32  C4  UNL     1      14.232  10.573   6.497  1.00  0.00     0.051 C 
BRANCH  32  33
HETATM   33  C3  UNL     1      13.923  10.590   7.907  1.00  0.00     0.088 A 
HETATM   34  C2  UNL     1      13.298   9.572   8.585  1.00  0.00     0.171 A 
HETATM   35  N1  UNL     1      13.170   9.921   9.876  1.00  0.00    -0.287 N 
HETATM   36  C1  UNL     1      13.706  11.142  10.009  1.00  0.00     0.326 A 
ATOM     37  H1  UNL     1      12.744   9.361  10.615  1.00  0.00     0.172 HD
HETATM   38  O1  UNL     1      13.763  11.794  11.101  1.00  0.00    -0.247 OA
HETATM   39  N12 UNL     1      14.164  11.549   8.817  1.00  0.00    -0.305 N 
ATOM     40  H12 UNL     1      14.621  12.442   8.631  1.00  0.00     0.171 HD
BRANCH  34  41
HETATM   41  O2  UNL     1      12.873   8.368   7.996  1.00  0.00    -0.344 OA
ATOM     42  H2  UNL     1      13.068   8.068   7.116  1.00  0.00     0.219 HD
ENDBRANCH  34  41
ENDBRANCH  32  33
ENDBRANCH   1  32
TORSDOF 11
ENDMDL
MODEL 4
REMARK VINA RESULT: -8.979809361      1.994      6.060
REMARK  11 active torsions:
REMARK  status: ('A' for Active; 'I' for Inactive)
REMARK    1  A    between atoms: C2_5  and  O2_6 
REMARK    2  A    between atoms: C3_8  and  C4_9 
REMARK    3  A    between atoms: C4_9  and  C5_10 
REMARK    4  A    between atoms: C7_15  and  N4_16 
REMARK    5  A    between atoms: N4_16  and  C8_18 
REMARK    6  A    between atoms: C8_18  and  C9_19 
REMARK    7  A    between atoms: C9_19  and  C10_20 
REMARK    8  A    between atoms: C10_20  and  O3_21 
REMARK    9  A    between atoms: C11_25  and  N6_26 
REMARK   10  A    between atoms: C13_28  and  C14_29 
REMARK   11  A    between atoms: C14_29  and  C15_30 
ROOT
HETATM    1  C5  UNL     1      15.441   9.906   6.067  1.00  0.00     0.030 A 
HETATM    2  C6  UNL     1      16.357   9.294   6.884  1.00  0.00     0.123 A 
HETATM    3  N2  UNL     1      17.276   8.725   6.104  1.00  0.00    -0.288 N 
ATOM      4  H2  UNL     1      18.082   8.198   6.441  1.00  0.00     0.187 HD
HETATM    5  N3  UNL     1      16.997   8.942   4.836  1.00  0.00    -0.068 N 
HETATM    6  C7  UNL     1      17.630   8.568   3.691  1.00  0.00     0.715 A 
HETATM    7  N5  UNL     1      17.086   8.952   2.535  1.00  0.00    -0.021 N 
ATOM      8  H5  UNL     1      17.545   8.681   1.666  1.00  0.00     0.203 HD
HETATM    9  C11 UNL     1      15.954   9.682   2.467  1.00  0.00     0.696 A 
HETATM   10  N11 UNL     1      15.354  10.034   3.591  1.00  0.00    -0.173 N 
ATOM     11  H11 UNL     1      14.497  10.586   3.556  1.00  0.00     0.186 HD
HETATM   12  C17 UNL     1      15.869   9.668   4.785  1.00  0.00     0.172 A 
ENDROOT
BRANCH   9  13
HETATM   13  N6  UNL     1      15.418  10.063   1.205  1.00  0.00    -0.216 N 
HETATM   14  C12 UNL     1      14.076  10.036   0.621  1.00  0.00     0.148 C 
HETATM   15  C13 UNL     1      14.746  10.053  -0.737  1.00  0.00     0.030 C 
HETATM   16  C16 UNL     1      15.944  10.624  -0.011  1.00  0.00     0.148 C 
BRANCH  15  17
HETATM   17  C14 UNL     1      14.047  10.978  -1.679  1.00  0.00     0.086 C 
BRANCH  17  18
HETATM   18  C15 UNL     1      14.113  10.361  -3.050  1.00  0.00     0.107 A 
HETATM   19  N7  UNL     1      15.197  10.165  -3.819  1.00  0.00    -0.274 N 
HETATM   20  N8  UNL     1      14.854   9.595  -4.959  1.00  0.00    -0.007 NA
ATOM     21  H7  UNL     1      16.149  10.421  -3.559  1.00  0.00     0.185 HD
HETATM   22  N9  UNL     1      13.544   9.432  -4.903  1.00  0.00    -0.007 NA
HETATM   23  N10 UNL     1      13.071   9.888  -3.756  1.00  0.00    -0.274 N 
ATOM     24  H10 UNL     1      12.095   9.883  -3.460  1.00  0.00     0.185 HD
ENDBRANCH  17  18
ENDBRANCH  15  17
ENDBRANCH   9  13
BRANCH   6  25
HETATM   25  N4  UNL     1      18.696   7.881   3.789  1.00  0.00    -0.224 N 
ATOM     26  H4  UNL     1      18.605   6.869   3.696  1.00  0.00     0.177 HD
BRANCH  25  27
HETATM   27  C8  UNL     1      20.007   8.397   4.020  1.00  0.00     0.140 C 
BRANCH  27  28
HETATM   28  C9  UNL     1      20.900   7.971   2.858  1.00  0.00     0.046 C 
BRANCH  28  29
HETATM   29  C10 UNL     1      20.888   9.095   1.844  1.00  0.00     0.165 C 
BRANCH  29  30
HETATM   30  O3  UNL     1      19.761   9.035   1.041  1.00  0.00    -0.401 OA
ATOM     31  H3  UNL     1      19.764   9.728   0.391  1.00  0.00     0.209 HD
ENDBRANCH  29  30
ENDBRANCH  28  29
ENDBRANCH  27  28
ENDBRANCH  25  27
ENDBRANCH   6  25
BRANCH   1  32
HETATM   32  C4  UNL     1      14.375  10.580   6.455  1.00  0.00     0.051 C 
BRANCH  32  33
HETATM   33  C3  UNL     1      14.009  10.608   7.851  1.00  0.00     0.088 A 
HETATM   34  C2  UNL     1      13.343   9.601   8.507  1.00  0.00     0.171 A 
HETATM   35  N1  UNL     1      13.166   9.958   9.790  1.00  0.00    -0.287 N 
HETATM   36  C1  UNL     1      13.713  11.173   9.940  1.00  0.00     0.326 A 
ATOM     37  H1  UNL     1      12.704   9.408  10.514  1.00  0.00     0.172 HD
HETATM   38  O1  UNL     1      13.735  11.829  11.031  1.00  0.00    -0.247 OA
HETATM   39  N12 UNL     1      14.225  11.568   8.767  1.00  0.00    -0.305 N 
ATOM     40  H12 UNL     1      14.701  12.454   8.595  1.00  0.00     0.171 HD
BRANCH  34  41
HETATM   41  O2  UNL     1      12.926   8.401   7.906  1.00  0.00    -0.344 OA
ATOM     42  H2  UNL     1      12.532   7.655   8.343  1.00  0.00     0.219 HD
ENDBRANCH  34  41
ENDBRANCH  32  33
ENDBRANCH   1  32
TORSDOF 11
ENDMDL
MODEL 5
REMARK VINA RESULT: -8.949114757      2.284      2.901
REMARK  11 active torsions:
REMARK  status: ('A' for Active; 'I' for Inactive)
REMARK    1  A    between atoms: C2_5  and  O2_6 
REMARK    2  A    between atoms: C3_8  and  C4_9 
REMARK    3  A    between atoms: C4_9  and  C5_10 
REMARK    4  A    between atoms: C7_15  and  N4_16 
REMARK    5  A    between atoms: N4_16  and  C8_18 
REMARK    6  A    between atoms: C8_18  and  C9_19 
REMARK    7  A    between atoms: C9_19  and  C10_20 
REMARK    8  A    between atoms: C10_20  and  O3_21 
REMARK    9  A    between atoms: C11_25  and  N6_26 
REMARK   10  A    between atoms: C13_28  and  C14_29 
REMARK   11  A    between atoms: C14_29  and  C15_30 
ROOT
HETATM    1  C5  UNL     1      19.395   8.332   4.048  1.00  0.00     0.030 A 
HETATM    2  C6  UNL     1      19.265   8.088   5.390  1.00  0.00     0.123 A 
HETATM    3  N2  UNL     1      18.036   8.457   5.751  1.00  0.00    -0.288 N 
ATOM      4  H2  UNL     1      17.660   8.389   6.697  1.00  0.00     0.187 HD
HETATM    5  N3  UNL     1      17.376   8.923   4.711  1.00  0.00    -0.068 N 
HETATM    6  C7  UNL     1      16.112   9.412   4.584  1.00  0.00     0.715 A 
HETATM    7  N5  UNL     1      15.729   9.814   3.372  1.00  0.00    -0.021 N 
ATOM      8  H5  UNL     1      14.786  10.184   3.256  1.00  0.00     0.203 HD
HETATM    9  C11 UNL     1      16.535   9.755   2.292  1.00  0.00     0.696 A 
HETATM   10  N11 UNL     1      17.759   9.277   2.438  1.00  0.00    -0.173 N 
ATOM     11  H11 UNL     1      18.382   9.226   1.632  1.00  0.00     0.186 HD
HETATM   12  C17 UNL     1      18.191   8.858   3.647  1.00  0.00     0.172 A 
ENDROOT
BRANCH   9  13
HETATM   13  N6  UNL     1      16.073  10.199   1.023  1.00  0.00    -0.216 N 
HETATM   14  C12 UNL     1      14.773  10.173   0.349  1.00  0.00     0.148 C 
HETATM   15  C13 UNL     1      15.531  10.291  -0.957  1.00  0.00     0.030 C 
HETATM   16  C16 UNL     1      16.660  10.847  -0.120  1.00  0.00     0.148 C 
BRANCH  15  17
HETATM   17  C14 UNL     1      14.867  11.254  -1.887  1.00  0.00     0.086 C 
BRANCH  17  18
HETATM   18  C15 UNL     1      14.790  10.596  -3.238  1.00  0.00     0.107 A 
HETATM   19  N7  UNL     1      15.717  10.589  -4.210  1.00  0.00    -0.274 N 
HETATM   20  N8  UNL     1      15.284   9.905  -5.253  1.00  0.00    -0.007 NA
ATOM     21  H7  UNL     1      16.626  11.048  -4.152  1.00  0.00     0.185 HD
HETATM   22  N9  UNL     1      14.075   9.479  -4.931  1.00  0.00    -0.007 NA
HETATM   23  N10 UNL     1      13.753   9.885  -3.714  1.00  0.00    -0.274 N 
ATOM     24  H10 UNL     1      12.877   9.694  -3.227  1.00  0.00     0.185 HD
ENDBRANCH  17  18
ENDBRANCH  15  17
ENDBRANCH   9  13
BRANCH   6  25
HETATM   25  N4  UNL     1      15.376   9.454   5.621  1.00  0.00    -0.224 N 
ATOM     26  H4  UNL     1      15.747   9.947   6.434  1.00  0.00     0.177 HD
BRANCH  25  27
HETATM   27  C8  UNL     1      14.077   8.875   5.751  1.00  0.00     0.140 C 
BRANCH  27  28
HETATM   28  C9  UNL     1      14.075   7.974   6.982  1.00  0.00     0.046 C 
BRANCH  28  29
HETATM   29  C10 UNL     1      15.127   8.507   7.932  1.00  0.00     0.165 C 
BRANCH  29  30
HETATM   30  O3  UNL     1      16.278   7.738   7.889  1.00  0.00    -0.401 OA
ATOM     31  H3  UNL     1      16.978   8.189   7.431  1.00  0.00     0.209 HD
ENDBRANCH  29  30
ENDBRANCH  28  29
ENDBRANCH  27  28
ENDBRANCH  25  27
ENDBRANCH   6  25
BRANCH   1  32
HETATM   32  C4  UNL     1      20.465   8.102   3.311  1.00  0.00     0.051 C 
BRANCH  32  33
HETATM   33  C3  UNL     1      21.053   6.784   3.287  1.00  0.00     0.088 A 
HETATM   34  C2  UNL     1      22.381   6.522   3.054  1.00  0.00     0.171 A 
HETATM   35  N1  UNL     1      22.580   5.195   3.105  1.00  0.00    -0.287 N 
HETATM   36  C1  UNL     1      21.393   4.628   3.365  1.00  0.00     0.326 A 
ATOM     37  H1  UNL     1      23.467   4.709   2.970  1.00  0.00     0.172 HD
HETATM   38  O1  UNL     1      21.199   3.376   3.486  1.00  0.00    -0.247 OA
HETATM   39  N12 UNL     1      20.467   5.589   3.477  1.00  0.00    -0.305 N 
ATOM     40  H12 UNL     1      19.477   5.439   3.674  1.00  0.00     0.171 HD
BRANCH  34  41
HETATM   41  O2  UNL     1      23.354   7.507   2.806  1.00  0.00    -0.344 OA
ATOM     42  H2  UNL     1      24.273   7.360   2.619  1.00  0.00     0.219 HD
ENDBRANCH  34  41
ENDBRANCH  32  33
ENDBRANCH   1  32
TORSDOF 11
ENDMDL
