MODEL 1
REMARK VINA RESULT: -9.201441811      0.000      0.000
REMARK  9 active torsions:
REMARK  status: ('A' for Active; 'I' for Inactive)
REMARK    1  A    between atoms: C2_3  and  N2_4 
REMARK    2  A    between atoms: N2_4  and  C3_6 
REMARK    3  A    between atoms: C3_6  and  C4_7 
REMARK    4  A    between atoms: N3_9  and  C6_10 
REMARK    5  A    between atoms: C6_10  and  C7_11 
REMARK    6  A    between atoms: C7_11  and  C8_12 
REMARK    7  A    between atoms: C8_12  and  N4_13 
REMARK    8  A    between atoms: N4_13  and  C9_15 
REMARK    9  A    between atoms: C12_24  and  N8_25 
ROOT
HETATM    1  C1  UNL     1      21.380   7.769   4.839  1.00  0.00     0.180 C 
HETATM    2  N1  UNL     1      20.899   6.519   4.243  1.00  0.00    -0.137 N 
HETATM    3  C2  UNL     1      21.492   5.943   3.192  1.00  0.00     0.690 A 
HETATM    4  N12 UNL     1      20.947   4.754   2.710  1.00  0.00    -0.166 N 
ATOM      5  H12 UNL     1      21.395   4.309   1.908  1.00  0.00     0.186 HD
HETATM    6  C15 UNL     1      19.883   4.169   3.233  1.00  0.00     0.206 A 
HETATM    7  C16 UNL     1      19.345   2.926   2.699  1.00  0.00     0.137 C 
HETATM    8  N13 UNL     1      18.933   1.939   2.260  1.00  0.00    -0.188 NA
HETATM    9  N14 UNL     1      19.302   4.767   4.289  1.00  0.00    -0.285 N 
ATOM     10  H14 UNL     1      18.478   4.349   4.723  1.00  0.00     0.172 HD
HETATM   11  C17 UNL     1      19.809   5.915   4.774  1.00  0.00     0.342 A 
HETATM   12  O2  UNL     1      19.270   6.492   5.775  1.00  0.00    -0.246 OA
ENDROOT
BRANCH   3  13
HETATM   13  N2  UNL     1      22.494   6.390   2.612  1.00  0.00    -0.199 N 
ATOM     14  H2  UNL     1      23.313   5.999   3.076  1.00  0.00     0.183 HD
BRANCH  13  15
HETATM   15  C3  UNL     1      22.948   7.198   1.599  1.00  0.00     0.138 C 
BRANCH  15  16
HETATM   16  C4  UNL     1      21.844   7.954   0.884  1.00  0.00     0.082 A 
HETATM   17  C5  UNL     1      21.344   9.206   1.226  1.00  0.00     0.144 A 
HETATM   18  N3  UNL     1      20.392   9.481   0.330  1.00  0.00    -0.287 N 
HETATM   19  N10 UNL     1      20.270   8.492  -0.537  1.00  0.00    -0.240 N 
HETATM   20  N11 UNL     1      21.144   7.587  -0.191  1.00  0.00    -0.284 N 
ATOM     21  H10 UNL     1      19.620   8.444  -1.322  1.00  0.00     0.208 HD
ATOM     22  H11 UNL     1      21.277   6.704  -0.684  1.00  0.00     0.188 HD
BRANCH  18  23
HETATM   23  C6  UNL     1      19.625  10.736   0.364  1.00  0.00     0.151 C 
BRANCH  23  24
HETATM   24  C7  UNL     1      18.411  10.554  -0.521  1.00  0.00     0.041 C 
BRANCH  24  25
HETATM   25  C8  UNL     1      17.187  10.873   0.291  1.00  0.00     0.123 C 
BRANCH  25  26
HETATM   26  N4  UNL     1      17.056  10.000   1.429  1.00  0.00    -0.375 N 
ATOM     27  H4  UNL     1      17.743   9.259   1.574  1.00  0.00     0.161 HD
BRANCH  26  28
HETATM   28  C9  UNL     1      16.083  10.140   2.270  1.00  0.00     0.121 A 
HETATM   29  N5  UNL     1      14.945  10.761   1.886  1.00  0.00    -0.338 N 
HETATM   30  C10 UNL     1      13.941  10.901   2.765  1.00  0.00     0.183 A 
ATOM     31  H5  UNL     1      14.851  11.120   0.936  1.00  0.00     0.168 HD
HETATM   32  N6  UNL     1      14.015  10.446   4.026  1.00  0.00    -0.337 N 
HETATM   33  C11 UNL     1      15.139   9.823   4.438  1.00  0.00     0.141 A 
ATOM     34  H6  UNL     1      13.230  10.572   4.665  1.00  0.00     0.168 HD
HETATM   35  N7  UNL     1      15.261   9.350   5.691  1.00  0.00    -0.176 N 
HETATM   36  C14 UNL     1      16.167   9.670   3.563  1.00  0.00     0.121 A 
HETATM   37  C12 UNL     1      16.373   8.730   6.103  1.00  0.00     0.680 A 
ATOM     38  H7  UNL     1      14.486   9.467   6.345  1.00  0.00     0.186 HD
HETATM   39  N9  UNL     1      17.405   8.568   5.255  1.00  0.00    -0.155 N 
HETATM   40  C13 UNL     1      17.314   9.029   3.995  1.00  0.00     0.277 A 
ATOM     41  H9  UNL     1      18.254   8.097   5.568  1.00  0.00     0.187 HD
HETATM   42  O1  UNL     1      18.245   8.906   3.159  1.00  0.00    -0.267 OA
BRANCH  37  43
HETATM   43  N8  UNL     1      16.413   8.305   7.323  1.00  0.00    -0.234 N 
ATOM     44  H82 UNL     1      16.864   8.836   8.068  1.00  0.00     0.174 HD
ATOM     45  H81 UNL     1      15.974   7.407   7.531  1.00  0.00     0.174 HD
ENDBRANCH  37  43
ENDBRANCH  26  28
ENDBRANCH  25  26
ENDBRANCH  24  25
ENDBRANCH  23  24
ENDBRANCH  18  23
ENDBRANCH  15  16
ENDBRANCH  13  15
ENDBRANCH   3  13
TORSDOF 9
ENDMDL
MODEL 2
REMARK VINA RESULT: -9.192200309      2.967      6.591
REMARK  9 active torsions:
REMARK  status: ('A' for Active; 'I' for Inactive)
REMARK    1  A    between atoms: C2_3  and  N2_4 
REMARK    2  A    between atoms: N2_4  and  C3_6 
REMARK    3  A    between atoms: C3_6  and  C4_7 
REMARK    4  A    between atoms: N3_9  and  C6_10 
REMARK    5  A    between atoms: C6_10  and  C7_11 
REMARK    6  A    between atoms: C7_11  and  C8_12 
REMARK    7  A    between atoms: C8_12  and  N4_13 
REMARK    8  A    between atoms: N4_13  and  C9_15 
REMARK    9  A    between atoms: C12_24  and  N8_25 
ROOT
HETATM    1  C1  UNL     1      14.864  10.193   1.059  1.00  0.00     0.180 C 
HETATM    2  N1  UNL     1      14.978  10.184  -0.402  1.00  0.00    -0.137 N 
HETATM    3  C2  UNL     1      16.086  10.572  -1.044  1.00  0.00     0.690 A 
HETATM    4  N12 UNL     1      16.081  10.520  -2.437  1.00  0.00    -0.166 N 
ATOM      5  H12 UNL     1      16.923  10.814  -2.933  1.00  0.00     0.186 HD
HETATM    6  C15 UNL     1      15.047  10.110  -3.153  1.00  0.00     0.206 A 
HETATM    7  C16 UNL     1      15.084  10.072  -4.608  1.00  0.00     0.137 C 
HETATM    8  N13 UNL     1      15.132  10.048  -5.763  1.00  0.00    -0.188 NA
HETATM    9  N14 UNL     1      13.944   9.726  -2.486  1.00  0.00    -0.285 N 
ATOM     10  H14 UNL     1      13.123   9.404  -3.000  1.00  0.00     0.172 HD
HETATM   11  C17 UNL     1      13.923   9.767  -1.142  1.00  0.00     0.342 A 
HETATM   12  O2  UNL     1      12.884   9.405  -0.497  1.00  0.00    -0.246 OA
ENDROOT
BRANCH   3  13
HETATM   13  N2  UNL     1      17.120  10.976  -0.489  1.00  0.00    -0.199 N 
ATOM     14  H2  UNL     1      17.206  10.473   0.394  1.00  0.00     0.183 HD
BRANCH  13  15
HETATM   15  C3  UNL     1      18.195  11.824  -0.581  1.00  0.00     0.138 C 
BRANCH  15  16
HETATM   16  C4  UNL     1      19.527  11.147  -0.320  1.00  0.00     0.082 A 
HETATM   17  C5  UNL     1      19.782   9.781  -0.360  1.00  0.00     0.144 A 
HETATM   18  N3  UNL     1      21.078   9.637  -0.072  1.00  0.00    -0.287 N 
HETATM   19  N10 UNL     1      21.639  10.814   0.143  1.00  0.00    -0.240 N 
HETATM   20  N11 UNL     1      20.698  11.706  -0.010  1.00  0.00    -0.284 N 
ATOM     21  H10 UNL     1      22.615  10.990   0.381  1.00  0.00     0.208 HD
ATOM     22  H11 UNL     1      20.842  12.710   0.096  1.00  0.00     0.188 HD
BRANCH  18  23
HETATM   23  C6  UNL     1      21.726   8.318  -0.018  1.00  0.00     0.151 C 
BRANCH  23  24
HETATM   24  C7  UNL     1      22.905   8.425   0.926  1.00  0.00     0.041 C 
BRANCH  24  25
HETATM   25  C8  UNL     1      22.551   7.712   2.200  1.00  0.00     0.123 C 
BRANCH  25  26
HETATM   26  N4  UNL     1      21.792   8.550   3.091  1.00  0.00    -0.375 N 
ATOM     27  H4  UNL     1      22.217   9.399   3.465  1.00  0.00     0.161 HD
BRANCH  26  28
HETATM   28  C9  UNL     1      20.580   8.245   3.426  1.00  0.00     0.121 A 
HETATM   29  N5  UNL     1      20.261   6.961   3.704  1.00  0.00    -0.338 N 
HETATM   30  C10 UNL     1      19.002   6.654   4.050  1.00  0.00     0.183 A 
ATOM     31  H5  UNL     1      20.972   6.232   3.652  1.00  0.00     0.168 HD
HETATM   32  N6  UNL     1      18.030   7.576   4.134  1.00  0.00    -0.337 N 
HETATM   33  C11 UNL     1      18.318   8.866   3.861  1.00  0.00     0.141 A 
ATOM     34  H6  UNL     1      17.083   7.304   4.401  1.00  0.00     0.168 HD
HETATM   35  N7  UNL     1      17.378   9.826   3.930  1.00  0.00    -0.176 N 
HETATM   36  C14 UNL     1      19.587   9.197   3.509  1.00  0.00     0.121 A 
HETATM   37  C12 UNL     1      17.661  11.106   3.661  1.00  0.00     0.680 A 
ATOM     38  H7  UNL     1      16.426   9.571   4.195  1.00  0.00     0.186 HD
HETATM   39  N9  UNL     1      18.910  11.459   3.310  1.00  0.00    -0.155 N 
HETATM   40  C13 UNL     1      19.873  10.522   3.231  1.00  0.00     0.277 A 
ATOM     41  H9  UNL     1      19.127  12.434   3.103  1.00  0.00     0.187 HD
HETATM   42  O1  UNL     1      21.057  10.793   2.908  1.00  0.00    -0.267 OA
BRANCH  37  43
HETATM   43  N8  UNL     1      16.702  11.969   3.750  1.00  0.00    -0.234 N 
ATOM     44  H82 UNL     1      15.755  11.703   4.018  1.00  0.00     0.174 HD
ATOM     45  H81 UNL     1      16.917  12.945   3.543  1.00  0.00     0.174 HD
ENDBRANCH  37  43
ENDBRANCH  26  28
ENDBRANCH  25  26
ENDBRANCH  24  25
ENDBRANCH  23  24
ENDBRANCH  18  23
ENDBRANCH  15  16
ENDBRANCH  13  15
ENDBRANCH   3  13
TORSDOF 9
ENDMDL
MODEL 3
REMARK VINA RESULT: -9.164856077      2.636      7.865
REMARK  9 active torsions:
REMARK  status: ('A' for Active; 'I' for Inactive)
REMARK    1  A    between atoms: C2_3  and  N2_4 
REMARK    2  A    between atoms: N2_4  and  C3_6 
REMARK    3  A    between atoms: C3_6  and  C4_7 
REMARK    4  A    between atoms: N3_9  and  C6_10 
REMARK    5  A    between atoms: C6_10  and  C7_11 
REMARK    6  A    between atoms: C7_11  and  C8_12 
REMARK    7  A    between atoms: C8_12  and  N4_13 
REMARK    8  A    between atoms: N4_13  and  C9_15 
REMARK    9  A    between atoms: C12_24  and  N8_25 
ROOT
HETATM    1  C1  UNL     1      13.408   9.785  -2.938  1.00  0.00     0.180 C 
HETATM    2  N1  UNL     1      14.688  10.254  -2.399  1.00  0.00    -0.137 N 
HETATM    3  C2  UNL     1      14.870  10.528  -1.101  1.00  0.00     0.690 A 
HETATM    4  N12 UNL     1      16.131  10.967  -0.702  1.00  0.00    -0.166 N 
ATOM      5  H12 UNL     1      16.277  11.177   0.286  1.00  0.00     0.186 HD
HETATM    6  C15 UNL     1      17.150  11.126  -1.529  1.00  0.00     0.206 A 
HETATM    7  C16 UNL     1      18.452  11.587  -1.070  1.00  0.00     0.137 C 
HETATM    8  N13 UNL     1      19.479  11.954  -0.686  1.00  0.00    -0.188 NA
HETATM    9  N14 UNL     1      16.944  10.845  -2.829  1.00  0.00    -0.285 N 
ATOM     10  H14 UNL     1      17.703  10.954  -3.502  1.00  0.00     0.172 HD
HETATM   11  C17 UNL     1      15.736  10.419  -3.241  1.00  0.00     0.342 A 
HETATM   12  O2  UNL     1      15.526  10.149  -4.469  1.00  0.00    -0.246 OA
ENDROOT
BRANCH   3  13
HETATM   13  N2  UNL     1      13.996  10.421  -0.226  1.00  0.00    -0.199 N 
ATOM     14  H2  UNL     1      13.576  11.342  -0.104  1.00  0.00     0.183 HD
BRANCH  13  15
HETATM   15  C3  UNL     1      13.366   9.567   0.643  1.00  0.00     0.138 C 
BRANCH  15  16
HETATM   16  C4  UNL     1      13.648   9.868   2.103  1.00  0.00     0.082 A 
HETATM   17  C5  UNL     1      13.539   8.980   3.166  1.00  0.00     0.144 A 
HETATM   18  N3  UNL     1      13.884   9.666   4.259  1.00  0.00    -0.287 N 
HETATM   19  N10 UNL     1      14.197  10.911   3.946  1.00  0.00    -0.240 N 
HETATM   20  N11 UNL     1      14.051  11.015   2.653  1.00  0.00    -0.284 N 
ATOM     21  H10 UNL     1      14.495  11.645   4.588  1.00  0.00     0.208 HD
ATOM     22  H11 UNL     1      14.224  11.872   2.127  1.00  0.00     0.188 HD
BRANCH  18  23
HETATM   23  C6  UNL     1      13.891   9.055   5.597  1.00  0.00     0.151 C 
BRANCH  23  24
HETATM   24  C7  UNL     1      14.845   9.853   6.459  1.00  0.00     0.041 C 
BRANCH  24  25
HETATM   25  C8  UNL     1      16.172   9.147   6.467  1.00  0.00     0.123 C 
BRANCH  25  26
HETATM   26  N4  UNL     1      16.835   9.236   5.192  1.00  0.00    -0.375 N 
ATOM     27  H4  UNL     1      16.418   9.797   4.448  1.00  0.00     0.161 HD
BRANCH  26  28
HETATM   28  C9  UNL     1      17.950   8.617   4.973  1.00  0.00     0.121 A 
HETATM   29  N5  UNL     1      18.452   7.783   5.911  1.00  0.00    -0.338 N 
HETATM   30  C10 UNL     1      19.608   7.146   5.676  1.00  0.00     0.183 A 
ATOM     31  H5  UNL     1      17.955   7.639   6.790  1.00  0.00     0.168 HD
HETATM   32  N6  UNL     1      20.300   7.300   4.536  1.00  0.00    -0.337 N 
HETATM   33  C11 UNL     1      19.824   8.127   3.582  1.00  0.00     0.141 A 
ATOM     34  H6  UNL     1      21.177   6.798   4.393  1.00  0.00     0.168 HD
HETATM   35  N7  UNL     1      20.481   8.315   2.423  1.00  0.00    -0.176 N 
HETATM   36  C14 UNL     1      18.654   8.782   3.800  1.00  0.00     0.121 A 
HETATM   37  C12 UNL     1      20.011   9.134   1.474  1.00  0.00     0.680 A 
ATOM     38  H7  UNL     1      21.360   7.822   2.263  1.00  0.00     0.186 HD
HETATM   39  N9  UNL     1      18.855   9.794   1.668  1.00  0.00    -0.155 N 
HETATM   40  C13 UNL     1      18.174   9.627   2.816  1.00  0.00     0.277 A 
ATOM     41  H9  UNL     1      18.497  10.419   0.946  1.00  0.00     0.187 HD
HETATM   42  O1  UNL     1      17.089  10.216   3.052  1.00  0.00    -0.267 OA
BRANCH  37  43
HETATM   43  N8  UNL     1      20.701   9.262   0.388  1.00  0.00    -0.234 N 
ATOM     44  H82 UNL     1      21.099   8.459  -0.100  1.00  0.00     0.174 HD
ATOM     45  H81 UNL     1      20.843  10.202   0.019  1.00  0.00     0.174 HD
ENDBRANCH  37  43
ENDBRANCH  26  28
ENDBRANCH  25  26
ENDBRANCH  24  25
ENDBRANCH  23  24
ENDBRANCH  18  23
ENDBRANCH  15  16
ENDBRANCH  13  15
ENDBRANCH   3  13
TORSDOF 9
ENDMDL
MODEL 4
REMARK VINA RESULT: -9.135088442      2.768      5.973
REMARK  9 active torsions:
REMARK  status: ('A' for Active; 'I' for Inactive)
REMARK    1  A    between atoms: C2_3  and  N2_4 
REMARK    2  A    between atoms: N2_4  and  C3_6 
REMARK    3  A    between atoms: C3_6  and  C4_7 
REMARK    4  A    between atoms: N3_9  and  C6_10 
REMARK    5  A    between atoms: C6_10  and  C7_11 
REMARK    6  A    between atoms: C7_11  and  C8_12 
REMARK    7  A    between atoms: C8_12  and  N4_13 
REMARK    8  A    between atoms: N4_13  and  C9_15 
REMARK    9  A    between atoms: C12_24  and  N8_25 
ROOT
HETATM    1  C1  UNL     1      20.228  10.934   3.216  1.00  0.00     0.180 C 
HETATM    2  N1  UNL     1      20.898  10.245   2.109  1.00  0.00    -0.137 N 
HETATM    3  C2  UNL     1      20.772   8.930   1.893  1.00  0.00     0.690 A 
HETATM    4  N12 UNL     1      21.455   8.383   0.808  1.00  0.00    -0.166 N 
ATOM      5  H12 UNL     1      21.363   7.381   0.637  1.00  0.00     0.186 HD
HETATM    6  C15 UNL     1      22.215   9.088  -0.013  1.00  0.00     0.206 A 
HETATM    7  C16 UNL     1      22.912   8.476  -1.135  1.00  0.00     0.137 C 
HETATM    8  N13 UNL     1      23.458   7.972  -2.021  1.00  0.00    -0.188 NA
HETATM    9  N14 UNL     1      22.328  10.407   0.225  1.00  0.00    -0.285 N 
ATOM     10  H14 UNL     1      22.905  10.988  -0.384  1.00  0.00     0.172 HD
HETATM   11  C17 UNL     1      21.679  10.961   1.265  1.00  0.00     0.342 A 
HETATM   12  O2  UNL     1      21.776  12.209   1.502  1.00  0.00    -0.246 OA
ENDROOT
BRANCH   3  13
HETATM   13  N2  UNL     1      20.091   8.161   2.588  1.00  0.00    -0.199 N 
ATOM     14  H2  UNL     1      19.292   7.870   2.025  1.00  0.00     0.183 HD
BRANCH  13  15
HETATM   15  C3  UNL     1      19.975   7.542   3.807  1.00  0.00     0.138 C 
BRANCH  15  16
HETATM   16  C4  UNL     1      18.760   7.984   4.601  1.00  0.00     0.082 A 
HETATM   17  C5  UNL     1      17.623   8.602   4.094  1.00  0.00     0.144 A 
HETATM   18  N3  UNL     1      16.816   8.808   5.140  1.00  0.00    -0.287 N 
HETATM   19  N10 UNL     1      17.374   8.361   6.251  1.00  0.00    -0.240 N 
HETATM   20  N11 UNL     1      18.535   7.872   5.911  1.00  0.00    -0.284 N 
ATOM     21  H10 UNL     1      16.975   8.393   7.189  1.00  0.00     0.208 HD
ATOM     22  H11 UNL     1      19.193   7.454   6.570  1.00  0.00     0.188 HD
BRANCH  18  23
HETATM   23  C6  UNL     1      15.500   9.450   4.998  1.00  0.00     0.151 C 
BRANCH  23  24
HETATM   24  C7  UNL     1      15.732  10.934   4.817  1.00  0.00     0.041 C 
BRANCH  24  25
HETATM   25  C8  UNL     1      14.945  11.388   3.620  1.00  0.00     0.123 C 
BRANCH  25  26
HETATM   26  N4  UNL     1      14.933  10.396   2.578  1.00  0.00    -0.375 N 
ATOM     27  H4  UNL     1      14.418   9.526   2.719  1.00  0.00     0.161 HD
BRANCH  26  28
HETATM   28  C9  UNL     1      15.564  10.587   1.465  1.00  0.00     0.121 A 
HETATM   29  N5  UNL     1      16.863  10.963   1.483  1.00  0.00    -0.338 N 
HETATM   30  C10 UNL     1      17.509  11.160   0.324  1.00  0.00     0.183 A 
ATOM     31  H5  UNL     1      17.346  11.097   2.370  1.00  0.00     0.168 HD
HETATM   32  N6  UNL     1      16.918  10.998  -0.870  1.00  0.00    -0.337 N 
HETATM   33  C11 UNL     1      15.622  10.623  -0.920  1.00  0.00     0.141 A 
ATOM     34  H6  UNL     1      17.442  11.156  -1.731  1.00  0.00     0.168 HD
HETATM   35  N7  UNL     1      14.985  10.448  -2.092  1.00  0.00    -0.176 N 
HETATM   36  C14 UNL     1      14.950  10.419   0.243  1.00  0.00     0.121 A 
HETATM   37  C12 UNL     1      13.701  10.076  -2.145  1.00  0.00     0.680 A 
ATOM     38  H7  UNL     1      15.495  10.603  -2.963  1.00  0.00     0.186 HD
HETATM   39  N9  UNL     1      13.014   9.869  -1.008  1.00  0.00    -0.155 N 
HETATM   40  C13 UNL     1      13.622  10.035   0.181  1.00  0.00     0.277 A 
ATOM     41  H9  UNL     1      12.035   9.587  -1.046  1.00  0.00     0.187 HD
HETATM   42  O1  UNL     1      13.031   9.856   1.276  1.00  0.00    -0.267 OA
BRANCH  37  43
HETATM   43  N8  UNL     1      13.161   9.929  -3.310  1.00  0.00    -0.234 N 
ATOM     44  H82 UNL     1      12.553  10.639  -3.720  1.00  0.00     0.174 HD
ATOM     45  H81 UNL     1      13.360   9.071  -3.825  1.00  0.00     0.174 HD
ENDBRANCH  37  43
ENDBRANCH  26  28
ENDBRANCH  25  26
ENDBRANCH  24  25
ENDBRANCH  23  24
ENDBRANCH  18  23
ENDBRANCH  15  16
ENDBRANCH  13  15
ENDBRANCH   3  13
TORSDOF 9
ENDMDL
MODEL 5
REMARK VINA RESULT: -9.109328319      3.242      6.257
REMARK  9 active torsions:
REMARK  status: ('A' for Active; 'I' for Inactive)
REMARK    1  A    between atoms: C2_3  and  N2_4 
REMARK    2  A    between atoms: N2_4  and  C3_6 
REMARK    3  A    between atoms: C3_6  and  C4_7 
REMARK    4  A    between atoms: N3_9  and  C6_10 
REMARK    5  A    between atoms: C6_10  and  C7_11 
REMARK    6  A    between atoms: C7_11  and  C8_12 
REMARK    7  A    between atoms: C8_12  and  N4_13 
REMARK    8  A    between atoms: N4_13  and  C9_15 
REMARK    9  A    between atoms: C12_24  and  N8_25 
ROOT
HETATM    1  C1  UNL     1      13.370   9.127   6.970  1.00  0.00     0.180 C 
HETATM    2  N1  UNL     1      14.686   9.035   6.330  1.00  0.00    -0.137 N 
HETATM    3  C2  UNL     1      14.869   9.235   5.019  1.00  0.00     0.690 A 
HETATM    4  N12 UNL     1      16.166   9.124   4.521  1.00  0.00    -0.166 N 
ATOM      5  H12 UNL     1      16.312   9.275   3.522  1.00  0.00     0.186 HD
HETATM    6  C15 UNL     1      17.217   8.832   5.268  1.00  0.00     0.206 A 
HETATM    7  C16 UNL     1      18.556   8.725   4.707  1.00  0.00     0.137 C 
HETATM    8  N13 UNL     1      19.612   8.644   4.242  1.00  0.00    -0.188 NA
HETATM    9  N14 UNL     1      17.009   8.635   6.582  1.00  0.00    -0.285 N 
ATOM     10  H14 UNL     1      17.793   8.407   7.195  1.00  0.00     0.172 HD
HETATM   11  C17 UNL     1      15.767   8.737   7.089  1.00  0.00     0.342 A 
HETATM   12  O2  UNL     1      15.555   8.553   8.332  1.00  0.00    -0.246 OA
ENDROOT
BRANCH   3  13
HETATM   13  N2  UNL     1      13.967   9.513   4.213  1.00  0.00    -0.199 N 
ATOM     14  H2  UNL     1      13.898  10.530   4.174  1.00  0.00     0.183 HD
BRANCH  13  15
HETATM   15  C3  UNL     1      13.025   9.009   3.353  1.00  0.00     0.138 C 
BRANCH  15  16
HETATM   16  C4  UNL     1      13.521   8.861   1.927  1.00  0.00     0.082 A 
HETATM   17  C5  UNL     1      13.323   9.761   0.886  1.00  0.00     0.144 A 
HETATM   18  N3  UNL     1      13.930   9.231  -0.181  1.00  0.00    -0.287 N 
HETATM   19  N10 UNL     1      14.487   8.074   0.128  1.00  0.00    -0.240 N 
HETATM   20  N11 UNL     1      14.232   7.867   1.392  1.00  0.00    -0.284 N 
ATOM     21  H10 UNL     1      15.011   7.462  -0.497  1.00  0.00     0.208 HD
ATOM     22  H11 UNL     1      14.541   7.043   1.909  1.00  0.00     0.188 HD
BRANCH  18  23
HETATM   23  C6  UNL     1      13.939   9.903  -1.489  1.00  0.00     0.151 C 
BRANCH  23  24
HETATM   24  C7  UNL     1      15.294   9.663  -2.118  1.00  0.00     0.041 C 
BRANCH  24  25
HETATM   25  C8  UNL     1      16.225  10.746  -1.650  1.00  0.00     0.123 C 
BRANCH  25  26
HETATM   26  N4  UNL     1      17.287  10.224  -0.829  1.00  0.00    -0.375 N 
ATOM     27  H4  UNL     1      17.847   9.442  -1.171  1.00  0.00     0.161 HD
BRANCH  26  28
HETATM   28  C9  UNL     1      17.542  10.728   0.335  1.00  0.00     0.121 A 
HETATM   29  N5  UNL     1      16.535  10.949   1.209  1.00  0.00    -0.338 N 
HETATM   30  C10 UNL     1      16.809  11.472   2.413  1.00  0.00     0.183 A 
ATOM     31  H5  UNL     1      15.574  10.719   0.955  1.00  0.00     0.168 HD
HETATM   32  N6  UNL     1      18.055  11.792   2.796  1.00  0.00    -0.337 N 
HETATM   33  C11 UNL     1      19.081  11.584   1.944  1.00  0.00     0.141 A 
ATOM     34  H6  UNL     1      18.225  12.188   3.721  1.00  0.00     0.168 HD
HETATM   35  N7  UNL     1      20.348  11.889   2.281  1.00  0.00    -0.176 N 
HETATM   36  C14 UNL     1      18.824  11.054   0.720  1.00  0.00     0.121 A 
HETATM   37  C12 UNL     1      21.367  11.683   1.439  1.00  0.00     0.680 A 
ATOM     38  H7  UNL     1      20.535  12.287   3.202  1.00  0.00     0.186 HD
HETATM   39  N9  UNL     1      21.138  11.160   0.221  1.00  0.00    -0.155 N 
HETATM   40  C13 UNL     1      19.883  10.845  -0.146  1.00  0.00     0.277 A 
ATOM     41  H9  UNL     1      21.914  11.004  -0.423  1.00  0.00     0.187 HD
HETATM   42  O1  UNL     1      19.609  10.354  -1.271  1.00  0.00    -0.267 OA
BRANCH  37  43
HETATM   43  N8  UNL     1      22.555  12.002   1.837  1.00  0.00    -0.234 N 
ATOM     44  H82 UNL     1      22.998  11.552   2.638  1.00  0.00     0.174 HD
ATOM     45  H81 UNL     1      23.053  12.729   1.322  1.00  0.00     0.174 HD
ENDBRANCH  37  43
ENDBRANCH  26  28
ENDBRANCH  25  26
ENDBRANCH  24  25
ENDBRANCH  23  24
ENDBRANCH  18  23
ENDBRANCH  15  16
ENDBRANCH  13  15
ENDBRANCH   3  13
TORSDOF 9
ENDMDL
