MODEL 1
REMARK VINA RESULT: -6.742434059      0.000      0.000
REMARK  4 active torsions:
REMARK  status: ('A' for Active; 'I' for Inactive)
REMARK    1  A    between atoms: N1_1  and  O1_4 
REMARK    2  A    between atoms: O1_4  and  C1_5 
REMARK    3  A    between atoms: C1_5  and  C2_6 
REMARK    4  A    between atoms: C2_6  and  N2_7 
ROOT
HETATM    1  N2  UNL     1     -31.592  10.631  22.347  1.00  0.00    -0.281 N 
HETATM    2  C3  UNL     1     -30.304  10.958  22.283  1.00  0.00     0.331 A 
HETATM    3  O2  UNL     1     -30.008  12.168  22.205  1.00  0.00    -0.246 OA
HETATM    4  N3  UNL     1     -29.299  10.066  22.298  1.00  0.00    -0.273 N 
ATOM      5  H3  UNL     1     -28.323  10.357  22.247  1.00  0.00     0.173 HD
HETATM    6  C4  UNL     1     -29.646   8.765  22.384  1.00  0.00     0.280 A 
HETATM    7  O3  UNL     1     -28.721   7.903  22.400  1.00  0.00    -0.265 OA
HETATM    8  C5  UNL     1     -30.966   8.344  22.454  1.00  0.00     0.150 A 
HETATM    9  N4  UNL     1     -31.526   7.132  22.542  1.00  0.00    -0.301 N 
ATOM     10  H4  UNL     1     -31.044   6.234  22.575  1.00  0.00     0.171 HD
HETATM   11  C6  UNL     1     -32.855   7.340  22.577  1.00  0.00     0.326 A 
HETATM   12  O4  UNL     1     -33.724   6.451  22.657  1.00  0.00    -0.247 OA
HETATM   13  N5  UNL     1     -33.107   8.664  22.511  1.00  0.00    -0.292 N 
ATOM     14  H5  UNL     1     -34.034   9.090  22.520  1.00  0.00     0.172 HD
HETATM   15  C7  UNL     1     -31.941   9.335  22.433  1.00  0.00     0.148 A 
ENDROOT
BRANCH   1  16
HETATM   16  C2  UNL     1     -32.611  11.616  22.327  1.00  0.00     0.164 C 
BRANCH  16  17
HETATM   17  C1  UNL     1     -33.209  11.890  20.980  1.00  0.00     0.220 C 
BRANCH  17  18
HETATM   18  O1  UNL     1     -34.382  11.134  20.883  1.00  0.00    -0.286 OA
BRANCH  18  19
HETATM   19  N1  UNL     1     -35.246  11.646  21.790  1.00  0.00    -0.311 N 
ATOM     20  H12 UNL     1     -35.001  12.239  22.582  1.00  0.00     0.184 HD
ATOM     21  H11 UNL     1     -36.175  11.321  21.522  1.00  0.00     0.184 HD
ENDBRANCH  18  19
ENDBRANCH  17  18
ENDBRANCH  16  17
ENDBRANCH   1  16
TORSDOF 4
ENDMDL
MODEL 2
REMARK VINA RESULT: -6.728768485      1.059      1.059
REMARK  4 active torsions:
REMARK  status: ('A' for Active; 'I' for Inactive)
REMARK    1  A    between atoms: N1_1  and  O1_4 
REMARK    2  A    between atoms: O1_4  and  C1_5 
REMARK    3  A    between atoms: C1_5  and  C2_6 
REMARK    4  A    between atoms: C2_6  and  N2_7 
ROOT
HETATM    1  N2  UNL     1     -31.929  10.913  22.336  1.00  0.00    -0.281 N 
HETATM    2  C3  UNL     1     -30.671  11.307  22.159  1.00  0.00     0.331 A 
HETATM    3  O2  UNL     1     -30.454  12.526  21.998  1.00  0.00    -0.246 OA
HETATM    4  N3  UNL     1     -29.616  10.475  22.144  1.00  0.00    -0.273 N 
ATOM      5  H3  UNL     1     -28.665  10.817  22.005  1.00  0.00     0.173 HD
HETATM    6  C4  UNL     1     -29.878   9.163  22.320  1.00  0.00     0.280 A 
HETATM    7  O3  UNL     1     -28.904   8.357  22.311  1.00  0.00    -0.265 OA
HETATM    8  C5  UNL     1     -31.162   8.674  22.511  1.00  0.00     0.150 A 
HETATM    9  N4  UNL     1     -31.640   7.439  22.701  1.00  0.00    -0.301 N 
ATOM     10  H4  UNL     1     -31.104   6.572  22.744  1.00  0.00     0.171 HD
HETATM   11  C6  UNL     1     -32.973   7.574  22.826  1.00  0.00     0.326 A 
HETATM   12  O4  UNL     1     -33.779   6.643  23.015  1.00  0.00    -0.247 OA
HETATM   13  N5  UNL     1     -33.308   8.876  22.712  1.00  0.00    -0.292 N 
ATOM     14  H5  UNL     1     -34.256   9.249  22.769  1.00  0.00     0.172 HD
HETATM   15  C7  UNL     1     -32.193   9.606  22.512  1.00  0.00     0.148 A 
ENDROOT
BRANCH   1  16
HETATM   16  C2  UNL     1     -33.004  11.837  22.343  1.00  0.00     0.164 C 
BRANCH  16  17
HETATM   17  C1  UNL     1     -33.754  11.954  21.050  1.00  0.00     0.220 C 
BRANCH  17  18
HETATM   18  O1  UNL     1     -33.519  13.237  20.546  1.00  0.00    -0.286 OA
BRANCH  18  19
HETATM   19  N1  UNL     1     -33.245  14.025  21.611  1.00  0.00    -0.311 N 
ATOM     20  H12 UNL     1     -32.326  14.380  21.873  1.00  0.00     0.184 HD
ATOM     21  H11 UNL     1     -34.132  14.188  22.088  1.00  0.00     0.184 HD
ENDBRANCH  18  19
ENDBRANCH  17  18
ENDBRANCH  16  17
ENDBRANCH   1  16
TORSDOF 4
ENDMDL
MODEL 3
REMARK VINA RESULT: -6.713753468      6.279      8.402
REMARK  4 active torsions:
REMARK  status: ('A' for Active; 'I' for Inactive)
REMARK    1  A    between atoms: N1_1  and  O1_4 
REMARK    2  A    between atoms: O1_4  and  C1_5 
REMARK    3  A    between atoms: C1_5  and  C2_6 
REMARK    4  A    between atoms: C2_6  and  N2_7 
ROOT
HETATM    1  N2  UNL     1     -25.244   5.996  22.321  1.00  0.00    -0.281 N 
HETATM    2  C3  UNL     1     -25.469   6.182  21.023  1.00  0.00     0.331 A 
HETATM    3  O2  UNL     1     -26.061   7.224  20.673  1.00  0.00    -0.246 OA
HETATM    4  N3  UNL     1     -25.099   5.318  20.063  1.00  0.00    -0.273 N 
ATOM      5  H3  UNL     1     -25.290   5.497  19.078  1.00  0.00     0.173 HD
HETATM    6  C4  UNL     1     -24.461   4.200  20.469  1.00  0.00     0.280 A 
HETATM    7  O3  UNL     1     -24.101   3.369  19.587  1.00  0.00    -0.265 OA
HETATM    8  C5  UNL     1     -24.190   3.934  21.803  1.00  0.00     0.150 A 
HETATM    9  N4  UNL     1     -23.583   2.911  22.416  1.00  0.00    -0.301 N 
ATOM     10  H4  UNL     1     -23.182   2.082  21.977  1.00  0.00     0.171 HD
HETATM   11  C6  UNL     1     -23.611   3.199  23.730  1.00  0.00     0.326 A 
HETATM   12  O4  UNL     1     -23.141   2.485  24.636  1.00  0.00    -0.247 OA
HETATM   13  N5  UNL     1     -24.227   4.384  23.921  1.00  0.00    -0.292 N 
ATOM     14  H5  UNL     1     -24.380   4.832  24.825  1.00  0.00     0.172 HD
HETATM   15  C7  UNL     1     -24.609   4.883  22.729  1.00  0.00     0.148 A 
ENDROOT
BRANCH   1  16
HETATM   16  C2  UNL     1     -25.658   6.944  23.291  1.00  0.00     0.164 C 
BRANCH  16  17
HETATM   17  C1  UNL     1     -26.963   6.640  23.964  1.00  0.00     0.220 C 
BRANCH  17  18
HETATM   18  O1  UNL     1     -27.924   7.495  23.415  1.00  0.00    -0.286 OA
BRANCH  18  19
HETATM   19  N1  UNL     1     -28.629   6.761  22.522  1.00  0.00    -0.311 N 
ATOM     20  H12 UNL     1     -28.238   6.208  21.760  1.00  0.00     0.184 HD
ATOM     21  H11 UNL     1     -29.612   6.873  22.766  1.00  0.00     0.184 HD
ENDBRANCH  18  19
ENDBRANCH  17  18
ENDBRANCH  16  17
ENDBRANCH   1  16
TORSDOF 4
ENDMDL
MODEL 4
REMARK VINA RESULT: -6.472011101      1.714      3.500
REMARK  4 active torsions:
REMARK  status: ('A' for Active; 'I' for Inactive)
REMARK    1  A    between atoms: N1_1  and  O1_4 
REMARK    2  A    between atoms: O1_4  and  C1_5 
REMARK    3  A    between atoms: C1_5  and  C2_6 
REMARK    4  A    between atoms: C2_6  and  N2_7 
ROOT
HETATM    1  N2  UNL     1     -31.663  11.141  21.631  1.00  0.00    -0.281 N 
HETATM    2  C3  UNL     1     -32.943  11.003  21.967  1.00  0.00     0.331 A 
HETATM    3  O2  UNL     1     -33.734  11.917  21.656  1.00  0.00    -0.246 OA
HETATM    4  N3  UNL     1     -33.440   9.938  22.620  1.00  0.00    -0.273 N 
ATOM      5  H3  UNL     1     -34.429   9.870  22.859  1.00  0.00     0.173 HD
HETATM    6  C4  UNL     1     -32.564   8.964  22.944  1.00  0.00     0.280 A 
HETATM    7  O3  UNL     1     -33.004   7.951  23.558  1.00  0.00    -0.265 OA
HETATM    8  C5  UNL     1     -31.215   9.034  22.630  1.00  0.00     0.150 A 
HETATM    9  N4  UNL     1     -30.190   8.202  22.850  1.00  0.00    -0.301 N 
ATOM     10  H4  UNL     1     -30.223   7.300  23.324  1.00  0.00     0.171 HD
HETATM   11  C6  UNL     1     -29.108   8.800  22.318  1.00  0.00     0.326 A 
HETATM   12  O4  UNL     1     -27.952   8.335  22.321  1.00  0.00    -0.247 OA
HETATM   13  N5  UNL     1     -29.464   9.984  21.778  1.00  0.00    -0.292 N 
ATOM     14  H5  UNL     1     -28.832  10.635  21.312  1.00  0.00     0.172 HD
HETATM   15  C7  UNL     1     -30.788  10.172  21.953  1.00  0.00     0.148 A 
ENDROOT
BRANCH   1  16
HETATM   16  C2  UNL     1     -31.194  12.287  20.942  1.00  0.00     0.164 C 
BRANCH  16  17
HETATM   17  C1  UNL     1     -30.408  13.256  21.774  1.00  0.00     0.220 C 
BRANCH  17  18
HETATM   18  O1  UNL     1     -31.324  14.112  22.394  1.00  0.00    -0.286 OA
BRANCH  18  19
HETATM   19  N1  UNL     1     -32.152  14.561  21.422  1.00  0.00    -0.311 N 
ATOM     20  H12 UNL     1     -32.003  14.465  20.418  1.00  0.00     0.184 HD
ATOM     21  H11 UNL     1     -32.939  15.005  21.893  1.00  0.00     0.184 HD
ENDBRANCH  18  19
ENDBRANCH  17  18
ENDBRANCH  16  17
ENDBRANCH   1  16
TORSDOF 4
ENDMDL
MODEL 5
REMARK VINA RESULT: -6.451195455      2.640      5.756
REMARK  4 active torsions:
REMARK  status: ('A' for Active; 'I' for Inactive)
REMARK    1  A    between atoms: N1_1  and  O1_4 
REMARK    2  A    between atoms: O1_4  and  C1_5 
REMARK    3  A    between atoms: C1_5  and  C2_6 
REMARK    4  A    between atoms: C2_6  and  N2_7 
ROOT
HETATM    1  N2  UNL     1     -27.904   8.674  22.917  1.00  0.00    -0.281 N 
HETATM    2  C3  UNL     1     -27.937   7.357  22.724  1.00  0.00     0.331 A 
HETATM    3  O2  UNL     1     -26.951   6.685  23.089  1.00  0.00    -0.246 OA
HETATM    4  N3  UNL     1     -28.967   6.705  22.160  1.00  0.00    -0.273 N 
ATOM      5  H3  UNL     1     -28.954   5.694  22.030  1.00  0.00     0.173 HD
HETATM    6  C4  UNL     1     -30.020   7.455  21.773  1.00  0.00     0.280 A 
HETATM    7  O3  UNL     1     -31.004   6.867  21.240  1.00  0.00    -0.265 OA
HETATM    8  C5  UNL     1     -30.061   8.832  21.940  1.00  0.00     0.150 A 
HETATM    9  N4  UNL     1     -30.984   9.752  21.637  1.00  0.00    -0.301 N 
ATOM     10  H4  UNL     1     -31.889   9.593  21.196  1.00  0.00     0.171 HD
HETATM   11  C6  UNL     1     -30.472  10.933  22.032  1.00  0.00     0.326 A 
HETATM   12  O4  UNL     1     -31.035  12.038  21.920  1.00  0.00    -0.247 OA
HETATM   13  N5  UNL     1     -29.250  10.738  22.571  1.00  0.00    -0.292 N 
ATOM     14  H5  UNL     1     -28.647  11.470  22.948  1.00  0.00     0.172 HD
HETATM   15  C7  UNL     1     -28.952   9.424  22.533  1.00  0.00     0.148 A 
ENDROOT
BRANCH   1  16
HETATM   16  C2  UNL     1     -26.789   9.310  23.518  1.00  0.00     0.164 C 
BRANCH  16  17
HETATM   17  C1  UNL     1     -25.791   9.890  22.560  1.00  0.00     0.220 C 
BRANCH  17  18
HETATM   18  O1  UNL     1     -24.534   9.808  23.167  1.00  0.00    -0.286 OA
BRANCH  18  19
HETATM   19  N1  UNL     1     -24.400   8.535  23.605  1.00  0.00    -0.311 N 
ATOM     20  H12 UNL     1     -24.503   8.219  24.569  1.00  0.00     0.184 HD
ATOM     21  H11 UNL     1     -24.178   7.968  22.787  1.00  0.00     0.184 HD
ENDBRANCH  18  19
ENDBRANCH  17  18
ENDBRANCH  16  17
ENDBRANCH   1  16
TORSDOF 4
ENDMDL
