MODEL 1
REMARK VINA RESULT: -7.499630655      0.000      0.000
REMARK  2 active torsions:
REMARK  status: ('A' for Active; 'I' for Inactive)
REMARK    1  A    between atoms: N5_18  and  C6_19 
REMARK    2  A    between atoms: C6_19  and  N6_20 
ROOT
HETATM    1  N1  UNL     1     -28.352   6.453  22.442  1.00  0.00    -0.383 N 
ATOM      2  H11 UNL     1     -27.468   6.889  22.701  1.00  0.00     0.157 HD
ATOM      3  H12 UNL     1     -28.446   5.441  22.349  1.00  0.00     0.157 HD
HETATM    4  C1  UNL     1     -29.346   7.201  22.246  1.00  0.00     0.133 A 
HETATM    5  N2  UNL     1     -30.537   6.612  21.897  1.00  0.00    -0.293 N 
ATOM      6  H2  UNL     1     -30.612   5.599  21.808  1.00  0.00     0.172 HD
HETATM    7  C2  UNL     1     -31.601   7.398  21.675  1.00  0.00     0.326 A 
HETATM    8  O1  UNL     1     -32.696   6.871  21.357  1.00  0.00    -0.247 OA
HETATM    9  N3  UNL     1     -31.526   8.734  21.786  1.00  0.00    -0.302 N 
ATOM     10  H3  UNL     1     -32.354   9.302  21.610  1.00  0.00     0.171 HD
HETATM   11  C3  UNL     1     -30.361   9.337  22.128  1.00  0.00     0.136 A 
HETATM   12  C4  UNL     1     -30.304  10.718  22.234  1.00  0.00     0.278 A 
HETATM   13  O2  UNL     1     -31.355  11.363  22.006  1.00  0.00    -0.265 OA
HETATM   14  N4  UNL     1     -29.137  11.235  22.569  1.00  0.00    -0.273 N 
ATOM     15  H4  UNL     1     -29.058  12.248  22.656  1.00  0.00     0.173 HD
HETATM   16  C5  UNL     1     -28.061  10.489  22.796  1.00  0.00     0.331 A 
HETATM   17  O3  UNL     1     -26.953  11.047  23.118  1.00  0.00    -0.246 OA
HETATM   18  N5  UNL     1     -28.044   9.109  22.711  1.00  0.00    -0.269 N 
HETATM   19  C7  UNL     1     -29.220   8.564  22.371  1.00  0.00     0.117 A 
ENDROOT
BRANCH  18  20
HETATM   20  C6  UNL     1     -26.815   8.424  22.988  1.00  0.00     0.364 C 
BRANCH  20  21
HETATM   21  N6  UNL     1     -26.592   8.505  24.420  1.00  0.00    -0.063 N 
ATOM     22  H63 UNL     1     -27.399   8.864  24.931  1.00  0.00     0.276 HD
ATOM     23  H62 UNL     1     -26.548   7.591  24.870  1.00  0.00     0.276 HD
ATOM     24  H61 UNL     1     -25.748   9.061  24.563  1.00  0.00     0.276 HD
ENDBRANCH  20  21
ENDBRANCH  18  20
TORSDOF 2
ENDMDL
MODEL 2
REMARK VINA RESULT: -7.389856566      1.655      3.972
REMARK  2 active torsions:
REMARK  status: ('A' for Active; 'I' for Inactive)
REMARK    1  A    between atoms: N5_18  and  C6_19 
REMARK    2  A    between atoms: C6_19  and  N6_20 
ROOT
HETATM    1  N1  UNL     1     -30.104   6.095  21.409  1.00  0.00    -0.383 N 
ATOM      2  H11 UNL     1     -31.123   6.118  21.436  1.00  0.00     0.157 HD
ATOM      3  H12 UNL     1     -29.591   5.246  21.172  1.00  0.00     0.157 HD
HETATM    4  C1  UNL     1     -29.480   7.158  21.670  1.00  0.00     0.133 A 
HETATM    5  N2  UNL     1     -28.108   7.126  21.634  1.00  0.00    -0.293 N 
ATOM      6  H2  UNL     1     -27.613   6.267  21.396  1.00  0.00     0.172 HD
HETATM    7  C2  UNL     1     -27.431   8.248  21.919  1.00  0.00     0.326 A 
HETATM    8  O1  UNL     1     -26.176   8.232  21.889  1.00  0.00    -0.247 OA
HETATM    9  N3  UNL     1     -28.063   9.390  22.237  1.00  0.00    -0.302 N 
ATOM     10  H3  UNL     1     -27.518  10.226  22.449  1.00  0.00     0.171 HD
HETATM   11  C3  UNL     1     -29.416   9.446  22.279  1.00  0.00     0.136 A 
HETATM   12  C4  UNL     1     -30.049  10.633  22.612  1.00  0.00     0.278 A 
HETATM   13  O2  UNL     1     -29.325  11.627  22.862  1.00  0.00    -0.265 OA
HETATM   14  N4  UNL     1     -31.368  10.612  22.635  1.00  0.00    -0.273 N 
ATOM     15  H4  UNL     1     -31.867  11.468  22.876  1.00  0.00     0.173 HD
HETATM   16  C5  UNL     1     -32.072   9.520  22.358  1.00  0.00     0.331 A 
HETATM   17  O3  UNL     1     -33.352   9.558  22.397  1.00  0.00    -0.246 OA
HETATM   18  N5  UNL     1     -31.510   8.302  22.018  1.00  0.00    -0.269 N 
HETATM   19  C7  UNL     1     -30.171   8.303  21.990  1.00  0.00     0.117 A 
ENDROOT
BRANCH  18  20
HETATM   20  C6  UNL     1     -32.387   7.203  21.737  1.00  0.00     0.364 C 
BRANCH  20  21
HETATM   21  N6  UNL     1     -32.946   6.764  23.003  1.00  0.00    -0.063 N 
ATOM     22  H63 UNL     1     -32.670   5.815  23.253  1.00  0.00     0.276 HD
ATOM     23  H62 UNL     1     -32.535   7.237  23.807  1.00  0.00     0.276 HD
ATOM     24  H61 UNL     1     -33.958   6.884  22.943  1.00  0.00     0.276 HD
ENDBRANCH  20  21
ENDBRANCH  18  20
TORSDOF 2
ENDMDL
MODEL 3
REMARK VINA RESULT: -7.105726219      1.489      3.402
REMARK  2 active torsions:
REMARK  status: ('A' for Active; 'I' for Inactive)
REMARK    1  A    between atoms: N5_18  and  C6_19 
REMARK    2  A    between atoms: C6_19  and  N6_20 
ROOT
HETATM    1  N1  UNL     1     -27.720  11.154  23.071  1.00  0.00    -0.383 N 
ATOM      2  H11 UNL     1     -26.954  10.526  23.315  1.00  0.00     0.157 HD
ATOM      3  H12 UNL     1     -27.644  12.164  23.182  1.00  0.00     0.157 HD
HETATM    4  C1  UNL     1     -28.777  10.646  22.611  1.00  0.00     0.133 A 
HETATM    5  N2  UNL     1     -29.809  11.491  22.282  1.00  0.00    -0.293 N 
ATOM      6  H2  UNL     1     -29.714  12.500  22.402  1.00  0.00     0.172 HD
HETATM    7  C2  UNL     1     -30.943  10.963  21.801  1.00  0.00     0.326 A 
HETATM    8  O1  UNL     1     -31.894  11.726  21.496  1.00  0.00    -0.247 OA
HETATM    9  N3  UNL     1     -31.090   9.638  21.636  1.00  0.00    -0.302 N 
ATOM     10  H3  UNL     1     -31.967   9.270  21.268  1.00  0.00     0.171 HD
HETATM   11  C3  UNL     1     -30.086   8.785  21.954  1.00  0.00     0.136 A 
HETATM   12  C4  UNL     1     -30.258   7.421  21.779  1.00  0.00     0.278 A 
HETATM   13  O2  UNL     1     -31.358   7.027  21.323  1.00  0.00    -0.265 OA
HETATM   14  N4  UNL     1     -29.240   6.651  22.112  1.00  0.00    -0.273 N 
ATOM     15  H4  UNL     1     -29.331   5.641  21.996  1.00  0.00     0.173 HD
HETATM   16  C5  UNL     1     -28.100   7.137  22.591  1.00  0.00     0.331 A 
HETATM   17  O3  UNL     1     -27.144   6.341  22.898  1.00  0.00    -0.246 OA
HETATM   18  N5  UNL     1     -27.857   8.485  22.791  1.00  0.00    -0.269 N 
HETATM   19  C7  UNL     1     -28.880   9.283  22.460  1.00  0.00     0.117 A 
ENDROOT
BRANCH  18  20
HETATM   20  C6  UNL     1     -26.579   8.876  23.310  1.00  0.00     0.364 C 
BRANCH  20  21
HETATM   21  N6  UNL     1     -26.515   8.417  24.686  1.00  0.00    -0.063 N 
ATOM     22  H63 UNL     1     -26.409   9.179  25.356  1.00  0.00     0.276 HD
ATOM     23  H62 UNL     1     -27.406   8.061  25.030  1.00  0.00     0.276 HD
ATOM     24  H61 UNL     1     -25.762   7.729  24.740  1.00  0.00     0.276 HD
ENDBRANCH  20  21
ENDBRANCH  18  20
TORSDOF 2
ENDMDL
MODEL 4
REMARK VINA RESULT: -6.923469237      1.601      2.562
REMARK  2 active torsions:
REMARK  status: ('A' for Active; 'I' for Inactive)
REMARK    1  A    between atoms: N5_18  and  C6_19 
REMARK    2  A    between atoms: C6_19  and  N6_20 
ROOT
HETATM    1  N1  UNL     1     -29.816   7.249  22.322  1.00  0.00    -0.383 N 
ATOM      2  H11 UNL     1     -28.961   6.762  22.590  1.00  0.00     0.157 HD
ATOM      3  H12 UNL     1     -30.661   6.745  22.056  1.00  0.00     0.157 HD
HETATM    4  C1  UNL     1     -29.809   8.509  22.336  1.00  0.00     0.133 A 
HETATM    5  N2  UNL     1     -30.960   9.164  21.975  1.00  0.00    -0.293 N 
ATOM      6  H2  UNL     1     -31.796   8.643  21.711  1.00  0.00     0.172 HD
HETATM    7  C2  UNL     1     -30.963  10.505  21.977  1.00  0.00     0.326 A 
HETATM    8  O1  UNL     1     -32.011  11.116  21.649  1.00  0.00    -0.247 OA
HETATM    9  N3  UNL     1     -29.874  11.212  22.320  1.00  0.00    -0.302 N 
ATOM     10  H3  UNL     1     -29.911  12.231  22.310  1.00  0.00     0.171 HD
HETATM   11  C3  UNL     1     -28.727  10.587  22.680  1.00  0.00     0.136 A 
HETATM   12  C4  UNL     1     -27.613  11.335  23.028  1.00  0.00     0.278 A 
HETATM   13  O2  UNL     1     -27.719  12.585  22.997  1.00  0.00    -0.265 OA
HETATM   14  N4  UNL     1     -26.531  10.659  23.364  1.00  0.00    -0.273 N 
ATOM     15  H4  UNL     1     -25.692  11.177  23.626  1.00  0.00     0.173 HD
HETATM   16  C5  UNL     1     -26.490   9.331  23.375  1.00  0.00     0.331 A 
HETATM   17  O3  UNL     1     -25.410   8.728  23.710  1.00  0.00    -0.246 OA
HETATM   18  N5  UNL     1     -27.561   8.521  23.041  1.00  0.00    -0.269 N 
HETATM   19  C7  UNL     1     -28.669   9.189  22.695  1.00  0.00     0.117 A 
ENDROOT
BRANCH  18  20
HETATM   20  C6  UNL     1     -27.383   7.099  23.101  1.00  0.00     0.364 C 
BRANCH  20  21
HETATM   21  N6  UNL     1     -27.282   6.737  24.503  1.00  0.00    -0.063 N 
ATOM     22  H63 UNL     1     -27.247   5.728  24.653  1.00  0.00     0.276 HD
ATOM     23  H62 UNL     1     -26.374   6.962  24.909  1.00  0.00     0.276 HD
ATOM     24  H61 UNL     1     -28.059   7.187  24.988  1.00  0.00     0.276 HD
ENDBRANCH  20  21
ENDBRANCH  18  20
TORSDOF 2
ENDMDL
MODEL 5
REMARK VINA RESULT: -6.899723663      5.175      7.165
REMARK  2 active torsions:
REMARK  status: ('A' for Active; 'I' for Inactive)
REMARK    1  A    between atoms: N5_18  and  C6_19 
REMARK    2  A    between atoms: C6_19  and  N6_20 
ROOT
HETATM    1  N1  UNL     1     -25.777   6.076  24.213  1.00  0.00    -0.383 N 
ATOM      2  H11 UNL     1     -26.283   6.795  23.696  1.00  0.00     0.157 HD
ATOM      3  H12 UNL     1     -25.771   6.050  25.232  1.00  0.00     0.157 HD
HETATM    4  C1  UNL     1     -25.159   5.198  23.554  1.00  0.00     0.133 A 
HETATM    5  N2  UNL     1     -24.479   4.229  24.250  1.00  0.00    -0.293 N 
ATOM      6  H2  UNL     1     -24.483   4.220  25.270  1.00  0.00     0.172 HD
HETATM    7  C2  UNL     1     -23.809   3.294  23.561  1.00  0.00     0.326 A 
HETATM    8  O1  UNL     1     -23.184   2.402  24.186  1.00  0.00    -0.247 OA
HETATM    9  N3  UNL     1     -23.789   3.288  22.218  1.00  0.00    -0.302 N 
ATOM     10  H3  UNL     1     -23.269   2.562  21.725  1.00  0.00     0.171 HD
HETATM   11  C3  UNL     1     -24.452   4.234  21.510  1.00  0.00     0.136 A 
HETATM   12  C4  UNL     1     -24.417   4.211  20.125  1.00  0.00     0.278 A 
HETATM   13  O2  UNL     1     -23.760   3.294  19.575  1.00  0.00    -0.265 OA
HETATM   14  N4  UNL     1     -25.083   5.164  19.502  1.00  0.00    -0.273 N 
ATOM     15  H4  UNL     1     -25.079   5.179  18.482  1.00  0.00     0.173 HD
HETATM   16  C5  UNL     1     -25.759   6.107  20.151  1.00  0.00     0.331 A 
HETATM   17  O3  UNL     1     -26.388   7.009  19.493  1.00  0.00    -0.246 OA
HETATM   18  N5  UNL     1     -25.840   6.192  21.529  1.00  0.00    -0.269 N 
HETATM   19  C7  UNL     1     -25.168   5.233  22.179  1.00  0.00     0.117 A 
ENDROOT
BRANCH  18  20
HETATM   20  C6  UNL     1     -26.609   7.258  22.102  1.00  0.00     0.364 C 
BRANCH  20  21
HETATM   21  N6  UNL     1     -28.005   6.983  21.814  1.00  0.00    -0.063 N 
ATOM     22  H63 UNL     1     -28.612   7.786  21.978  1.00  0.00     0.276 HD
ATOM     23  H62 UNL     1     -28.195   6.876  20.818  1.00  0.00     0.276 HD
ATOM     24  H61 UNL     1     -28.270   6.163  22.361  1.00  0.00     0.276 HD
ENDBRANCH  20  21
ENDBRANCH  18  20
TORSDOF 2
ENDMDL
