MODEL 1
REMARK VINA RESULT: -6.893156185      0.000      0.000
REMARK  2 active torsions:
REMARK  status: ('A' for Active; 'I' for Inactive)
REMARK    1  A    between atoms: N3_4  and  N4_6 
REMARK    2  A    between atoms: C2_8  and  C3_9 
ROOT
HETATM    1  C3  UNL     1     -31.923   9.969  22.475  1.00  0.00     0.090 A 
HETATM    2  C4  UNL     1     -32.030   8.637  22.822  1.00  0.00     0.137 A 
HETATM    3  N5  UNL     1     -33.200   8.213  23.498  1.00  0.00    -0.081 NA
HETATM    4  N6  UNL     1     -31.022   7.823  22.501  1.00  0.00    -0.296 N 
ATOM      5  H6  UNL     1     -31.074   6.833  22.746  1.00  0.00     0.171 HD
HETATM    6  C5  UNL     1     -29.938   8.293  21.857  1.00  0.00     0.328 A 
HETATM    7  O1  UNL     1     -28.992   7.486  21.564  1.00  0.00    -0.247 OA
HETATM    8  N7  UNL     1     -29.796   9.584  21.502  1.00  0.00    -0.275 N 
ATOM      9  H7  UNL     1     -28.962   9.913  21.015  1.00  0.00     0.173 HD
HETATM   10  C6  UNL     1     -30.803  10.421  21.818  1.00  0.00     0.264 A 
HETATM   11  O2  UNL     1     -30.698  11.634  21.497  1.00  0.00    -0.267 OA
ENDROOT
BRANCH   1  12
HETATM   12  C2  UNL     1     -32.998  10.894  22.804  1.00  0.00     0.127 C 
HETATM   13  N4  UNL     1     -33.903  11.221  21.971  1.00  0.00    -0.309 N 
ATOM     14  H4  UNL     1     -33.878  10.822  21.033  1.00  0.00     0.186 HD
BRANCH  13  15
HETATM   15  N3  UNL     1     -34.930  12.108  22.298  1.00  0.00    -0.276 N 
HETATM   16  C1  UNL     1     -35.945  12.326  21.544  1.00  0.00     0.215 C 
HETATM   17  N1  UNL     1     -36.126  11.679  20.293  1.00  0.00    -0.065 NA
HETATM   18  N2  UNL     1     -36.918  13.263  22.012  1.00  0.00    -0.065 NA
ATOM     19  H3  UNL     1     -34.870  12.610  23.183  1.00  0.00     0.189 HD
ENDBRANCH  13  15
ENDBRANCH   1  12
TORSDOF 2
ENDMDL
MODEL 2
REMARK VINA RESULT: -6.835237349      1.396      2.155
REMARK  2 active torsions:
REMARK  status: ('A' for Active; 'I' for Inactive)
REMARK    1  A    between atoms: N3_4  and  N4_6 
REMARK    2  A    between atoms: C2_8  and  C3_9 
ROOT
HETATM    1  C3  UNL     1     -31.687  10.300  22.684  1.00  0.00     0.090 A 
HETATM    2  C4  UNL     1     -30.542  10.877  22.175  1.00  0.00     0.137 A 
HETATM    3  N5  UNL     1     -30.544  12.274  21.937  1.00  0.00    -0.081 NA
HETATM    4  N6  UNL     1     -29.494  10.085  21.934  1.00  0.00    -0.296 N 
ATOM      5  H6  UNL     1     -28.634  10.485  21.556  1.00  0.00     0.171 HD
HETATM    6  C5  UNL     1     -29.560   8.765  22.184  1.00  0.00     0.328 A 
HETATM    7  O1  UNL     1     -28.539   8.036  21.941  1.00  0.00    -0.247 OA
HETATM    8  N7  UNL     1     -30.658   8.165  22.680  1.00  0.00    -0.275 N 
ATOM      9  H7  UNL     1     -30.681   7.160  22.858  1.00  0.00     0.173 HD
HETATM   10  C6  UNL     1     -31.725   8.947  22.929  1.00  0.00     0.264 A 
HETATM   11  O2  UNL     1     -32.766   8.413  23.395  1.00  0.00    -0.267 OA
ENDROOT
BRANCH   1  12
HETATM   12  C2  UNL     1     -32.853  11.125  22.963  1.00  0.00     0.127 C 
HETATM   13  N4  UNL     1     -33.744  11.375  22.088  1.00  0.00    -0.309 N 
ATOM     14  H4  UNL     1     -33.639  10.985  21.152  1.00  0.00     0.186 HD
BRANCH  13  15
HETATM   15  N3  UNL     1     -34.859  12.167  22.367  1.00  0.00    -0.276 N 
HETATM   16  C1  UNL     1     -35.858  12.289  21.572  1.00  0.00     0.215 C 
HETATM   17  N1  UNL     1     -35.929  11.623  20.319  1.00  0.00    -0.065 NA
HETATM   18  N2  UNL     1     -36.930  13.137  21.994  1.00  0.00    -0.065 NA
ATOM     19  H3  UNL     1     -34.880  12.676  23.251  1.00  0.00     0.189 HD
ENDBRANCH  13  15
ENDBRANCH   1  12
TORSDOF 2
ENDMDL
MODEL 3
REMARK VINA RESULT: -6.779818786      4.210      8.083
REMARK  2 active torsions:
REMARK  status: ('A' for Active; 'I' for Inactive)
REMARK    1  A    between atoms: N3_4  and  N4_6 
REMARK    2  A    between atoms: C2_8  and  C3_9 
ROOT
HETATM    1  C3  UNL     1     -28.018   8.047  22.296  1.00  0.00     0.090 A 
HETATM    2  C4  UNL     1     -27.711   8.975  23.270  1.00  0.00     0.137 A 
HETATM    3  N5  UNL     1     -26.598   8.723  24.108  1.00  0.00    -0.081 NA
HETATM    4  N6  UNL     1     -28.484  10.059  23.368  1.00  0.00    -0.296 N 
ATOM      5  H6  UNL     1     -28.281  10.762  24.080  1.00  0.00     0.171 HD
HETATM    6  C5  UNL     1     -29.528  10.235  22.538  1.00  0.00     0.328 A 
HETATM    7  O1  UNL     1     -30.247  11.285  22.659  1.00  0.00    -0.247 OA
HETATM    8  N7  UNL     1     -29.860   9.354  21.576  1.00  0.00    -0.275 N 
ATOM      9  H7  UNL     1     -30.658   9.512  20.961  1.00  0.00     0.173 HD
HETATM   10  C6  UNL     1     -29.092   8.253  21.462  1.00  0.00     0.264 A 
HETATM   11  O2  UNL     1     -29.378   7.412  20.570  1.00  0.00    -0.267 OA
ENDROOT
BRANCH   1  12
HETATM   12  C2  UNL     1     -27.203   6.849  22.152  1.00  0.00     0.127 C 
HETATM   13  N4  UNL     1     -26.250   6.763  21.311  1.00  0.00    -0.309 N 
ATOM     14  H4  UNL     1     -26.047   7.563  20.712  1.00  0.00     0.186 HD
BRANCH  13  15
HETATM   15  N3  UNL     1     -25.474   5.610  21.182  1.00  0.00    -0.276 N 
HETATM   16  C1  UNL     1     -25.088   5.138  20.053  1.00  0.00     0.215 C 
HETATM   17  N1  UNL     1     -25.414   5.750  18.813  1.00  0.00    -0.065 NA
HETATM   18  N2  UNL     1     -24.296   3.948  20.077  1.00  0.00    -0.065 NA
ATOM     19  H3  UNL     1     -25.200   5.116  22.031  1.00  0.00     0.189 HD
ENDBRANCH  13  15
ENDBRANCH   1  12
TORSDOF 2
ENDMDL
MODEL 4
REMARK VINA RESULT: -6.772708579      3.603      5.048
REMARK  2 active torsions:
REMARK  status: ('A' for Active; 'I' for Inactive)
REMARK    1  A    between atoms: N3_4  and  N4_6 
REMARK    2  A    between atoms: C2_8  and  C3_9 
ROOT
HETATM    1  C3  UNL     1     -28.492   9.170  22.294  1.00  0.00     0.090 A 
HETATM    2  C4  UNL     1     -27.244   8.625  22.072  1.00  0.00     0.137 A 
HETATM    3  N5  UNL     1     -27.168   7.341  21.479  1.00  0.00    -0.081 NA
HETATM    4  N6  UNL     1     -26.175   9.341  22.430  1.00  0.00    -0.296 N 
ATOM      5  H6  UNL     1     -25.239   8.963  22.277  1.00  0.00     0.171 HD
HETATM    6  C5  UNL     1     -26.319  10.557  22.989  1.00  0.00     0.328 A 
HETATM    7  O1  UNL     1     -25.275  11.215  23.319  1.00  0.00    -0.247 OA
HETATM    8  N7  UNL     1     -27.519  11.121  23.222  1.00  0.00    -0.275 N 
ATOM      9  H7  UNL     1     -27.598  12.044  23.649  1.00  0.00     0.173 HD
HETATM   10  C6  UNL     1     -28.608  10.414  22.868  1.00  0.00     0.264 A 
HETATM   11  O2  UNL     1     -29.744  10.918  23.074  1.00  0.00    -0.267 OA
ENDROOT
BRANCH   1  12
HETATM   12  C2  UNL     1     -29.686   8.425  21.919  1.00  0.00     0.127 C 
HETATM   13  N4  UNL     1     -30.303   7.661  22.730  1.00  0.00    -0.309 N 
ATOM     14  H4  UNL     1     -29.950   7.564  23.682  1.00  0.00     0.186 HD
BRANCH  13  15
HETATM   15  N3  UNL     1     -31.447   6.952  22.360  1.00  0.00    -0.276 N 
HETATM   16  C1  UNL     1     -32.633   7.286  22.715  1.00  0.00     0.215 C 
HETATM   17  N1  UNL     1     -32.902   8.421  23.527  1.00  0.00    -0.065 NA
HETATM   18  N2  UNL     1     -33.709   6.463  22.258  1.00  0.00    -0.065 NA
ATOM     19  H3  UNL     1     -31.333   6.125  21.775  1.00  0.00     0.189 HD
ENDBRANCH  13  15
ENDBRANCH   1  12
TORSDOF 2
ENDMDL
MODEL 5
REMARK VINA RESULT: -6.762498328      3.767      5.120
REMARK  2 active torsions:
REMARK  status: ('A' for Active; 'I' for Inactive)
REMARK    1  A    between atoms: N3_4  and  N4_6 
REMARK    2  A    between atoms: C2_8  and  C3_9 
ROOT
HETATM    1  C3  UNL     1     -28.459   9.135  22.262  1.00  0.00     0.090 A 
HETATM    2  C4  UNL     1     -28.556  10.412  22.776  1.00  0.00     0.137 A 
HETATM    3  N5  UNL     1     -29.845  10.984  22.913  1.00  0.00    -0.081 NA
HETATM    4  N6  UNL     1     -27.427  11.039  23.116  1.00  0.00    -0.296 N 
ATOM      5  H6  UNL     1     -27.468  11.984  23.497  1.00  0.00     0.171 HD
HETATM    6  C5  UNL     1     -26.234  10.435  22.959  1.00  0.00     0.328 A 
HETATM    7  O1  UNL     1     -25.173  11.063  23.294  1.00  0.00    -0.247 OA
HETATM    8  N7  UNL     1     -26.099   9.192  22.462  1.00  0.00    -0.275 N 
ATOM      9  H7  UNL     1     -25.181   8.759  22.353  1.00  0.00     0.173 HD
HETATM   10  C6  UNL     1     -27.227   8.544  22.114  1.00  0.00     0.264 A 
HETATM   11  O2  UNL     1     -27.130   7.379  21.646  1.00  0.00    -0.267 OA
ENDROOT
BRANCH   1  12
HETATM   12  C2  UNL     1     -29.665   8.414  21.879  1.00  0.00     0.127 C 
HETATM   13  N4  UNL     1     -30.279   7.630  22.673  1.00  0.00    -0.309 N 
ATOM     14  H4  UNL     1     -29.915   7.499  23.617  1.00  0.00     0.186 HD
BRANCH  13  15
HETATM   15  N3  UNL     1     -31.434   6.944  22.296  1.00  0.00    -0.276 N 
HETATM   16  C1  UNL     1     -32.611   7.266  22.691  1.00  0.00     0.215 C 
HETATM   17  N1  UNL     1     -32.857   8.364  23.560  1.00  0.00    -0.065 NA
HETATM   18  N2  UNL     1     -33.701   6.470  22.220  1.00  0.00    -0.065 NA
ATOM     19  H3  UNL     1     -31.338   6.144  21.671  1.00  0.00     0.189 HD
ENDBRANCH  13  15
ENDBRANCH   1  12
TORSDOF 2
ENDMDL
