MODEL 1
REMARK VINA RESULT: -7.357566675      0.000      0.000
REMARK  3 active torsions:
REMARK  status: ('A' for Active; 'I' for Inactive)
REMARK    1  A    between atoms: N1_1  and  C1_4 
REMARK    2  A    between atoms: C2_7  and  O1_8 
REMARK    3  A    between atoms: O1_8  and  C3_9 
ROOT
HETATM    1  O1  UNL     1     -27.102   8.344  22.354  1.00  0.00    -0.296 OA
ENDROOT
BRANCH   1   2
HETATM    2  C2  UNL     1     -28.292   7.809  21.907  1.00  0.00     0.254 A 
HETATM    3  N2  UNL     1     -29.438   7.751  22.618  1.00  0.00    -0.153 N 
HETATM    4  C1  UNL     1     -30.399   7.168  21.881  1.00  0.00     0.693 A 
ATOM      5  H2  UNL     1     -29.557   8.097  23.570  1.00  0.00     0.188 HD
HETATM    6  N6  UNL     1     -29.814   6.872  20.708  1.00  0.00    -0.129 N 
HETATM    7  N5  UNL     1     -28.540   7.253  20.708  1.00  0.00    -0.250 N 
ATOM      8  H6  UNL     1     -30.283   6.417  19.925  1.00  0.00     0.205 HD
ATOM      9  H5  UNL     1     -27.875   7.144  19.942  1.00  0.00     0.191 HD
BRANCH   4  10
HETATM   10  N1  UNL     1     -31.627   6.946  22.243  1.00  0.00    -0.233 N 
ATOM     11  H12 UNL     1     -32.434   6.759  21.648  1.00  0.00     0.174 HD
ATOM     12  H11 UNL     1     -31.986   6.922  23.197  1.00  0.00     0.174 HD
ENDBRANCH   4  10
ENDBRANCH   1   2
BRANCH   1  13
HETATM   13  C3  UNL     1     -26.007   7.552  22.782  1.00  0.00     0.316 C 
HETATM   14  C4  UNL     1     -25.369   6.893  21.620  1.00  0.00     0.264 C 
HETATM   15  O2  UNL     1     -25.373   7.501  20.520  1.00  0.00    -0.270 OA
HETATM   16  N3  UNL     1     -24.767   5.611  21.730  1.00  0.00    -0.276 N 
HETATM   17  C5  UNL     1     -24.973   4.824  22.888  1.00  0.00     0.329 C 
ATOM     18  H3  UNL     1     -24.184   5.257  20.971  1.00  0.00     0.173 HD
HETATM   19  O3  UNL     1     -24.444   3.698  22.986  1.00  0.00    -0.247 OA
HETATM   20  N4  UNL     1     -25.797   5.339  23.948  1.00  0.00    -0.276 N 
HETATM   21  C6  UNL     1     -26.403   6.615  23.852  1.00  0.00     0.264 C 
ATOM     22  H4  UNL     1     -25.948   4.775  24.784  1.00  0.00     0.173 HD
HETATM   23  O4  UNL     1     -27.272   6.943  24.675  1.00  0.00    -0.270 OA
ENDBRANCH   1  13
TORSDOF 3
ENDMDL
MODEL 2
REMARK VINA RESULT: -7.334184669      1.703      2.590
REMARK  3 active torsions:
REMARK  status: ('A' for Active; 'I' for Inactive)
REMARK    1  A    between atoms: N1_1  and  C1_4 
REMARK    2  A    between atoms: C2_7  and  O1_8 
REMARK    3  A    between atoms: O1_8  and  C3_9 
ROOT
HETATM    1  O1  UNL     1     -27.899   8.736  21.979  1.00  0.00    -0.296 OA
ENDROOT
BRANCH   1   2
HETATM    2  C2  UNL     1     -29.277   8.747  22.029  1.00  0.00     0.254 A 
HETATM    3  N2  UNL     1     -30.041   7.862  22.704  1.00  0.00    -0.153 N 
HETATM    4  C1  UNL     1     -31.340   8.165  22.539  1.00  0.00     0.693 A 
ATOM      5  H2  UNL     1     -29.686   7.081  23.256  1.00  0.00     0.188 HD
HETATM    6  N6  UNL     1     -31.350   9.253  21.748  1.00  0.00    -0.129 N 
HETATM    7  N5  UNL     1     -30.111   9.617  21.432  1.00  0.00    -0.250 N 
ATOM      8  H6  UNL     1     -32.193   9.733  21.434  1.00  0.00     0.205 HD
ATOM      9  H5  UNL     1     -29.843  10.407  20.846  1.00  0.00     0.191 HD
BRANCH   4  10
HETATM   10  N1  UNL     1     -32.355   7.531  23.042  1.00  0.00    -0.233 N 
ATOM     11  H12 UNL     1     -32.353   6.818  23.771  1.00  0.00     0.174 HD
ATOM     12  H11 UNL     1     -33.335   7.647  22.784  1.00  0.00     0.174 HD
ENDBRANCH   4  10
ENDBRANCH   1   2
BRANCH   1  13
HETATM   13  C3  UNL     1     -27.116   7.643  22.428  1.00  0.00     0.316 C 
HETATM   14  C4  UNL     1     -26.371   8.017  23.651  1.00  0.00     0.264 C 
HETATM   15  O2  UNL     1     -26.906   8.834  24.442  1.00  0.00    -0.270 OA
HETATM   16  N3  UNL     1     -25.088   7.478  23.936  1.00  0.00    -0.276 N 
HETATM   17  C5  UNL     1     -24.382   6.757  22.942  1.00  0.00     0.329 C 
ATOM     18  H3  UNL     1     -24.675   7.609  24.858  1.00  0.00     0.173 HD
HETATM   19  O3  UNL     1     -23.255   6.282  23.191  1.00  0.00    -0.247 OA
HETATM   20  N4  UNL     1     -24.980   6.580  21.646  1.00  0.00    -0.276 N 
HETATM   21  C6  UNL     1     -26.258   7.112  21.350  1.00  0.00     0.264 C 
ATOM     22  H4  UNL     1     -24.475   6.061  20.928  1.00  0.00     0.173 HD
HETATM   23  O4  UNL     1     -26.655   7.131  20.174  1.00  0.00    -0.270 OA
ENDBRANCH   1  13
TORSDOF 3
ENDMDL
MODEL 3
REMARK VINA RESULT: -7.293368633      1.708      5.028
REMARK  3 active torsions:
REMARK  status: ('A' for Active; 'I' for Inactive)
REMARK    1  A    between atoms: N1_1  and  C1_4 
REMARK    2  A    between atoms: C2_7  and  O1_8 
REMARK    3  A    between atoms: O1_8  and  C3_9 
ROOT
HETATM    1  O1  UNL     1     -25.359   7.155  22.130  1.00  0.00    -0.296 OA
ENDROOT
BRANCH   1   2
HETATM    2  C2  UNL     1     -25.137   5.796  22.208  1.00  0.00     0.254 A 
HETATM    3  N2  UNL     1     -24.674   5.141  23.294  1.00  0.00    -0.153 N 
HETATM    4  C1  UNL     1     -24.578   3.828  23.025  1.00  0.00     0.693 A 
ATOM      5  H2  UNL     1     -24.433   5.577  24.184  1.00  0.00     0.188 HD
HETATM    6  N6  UNL     1     -24.991   3.697  21.753  1.00  0.00    -0.129 N 
HETATM    7  N5  UNL     1     -25.333   4.878  21.245  1.00  0.00    -0.250 N 
ATOM      8  H6  UNL     1     -25.037   2.814  21.246  1.00  0.00     0.205 HD
ATOM      9  H5  UNL     1     -25.679   5.054  20.302  1.00  0.00     0.191 HD
BRANCH   4  10
HETATM   10  N1  UNL     1     -24.169   2.898  23.834  1.00  0.00    -0.233 N 
ATOM     11  H12 UNL     1     -23.977   2.973  24.833  1.00  0.00     0.174 HD
ATOM     12  H11 UNL     1     -23.971   1.926  23.596  1.00  0.00     0.174 HD
ENDBRANCH   4  10
ENDBRANCH   1   2
BRANCH   1  13
HETATM   13  C3  UNL     1     -26.644   7.722  21.937  1.00  0.00     0.316 C 
HETATM   14  C4  UNL     1     -27.501   7.455  23.114  1.00  0.00     0.264 C 
HETATM   15  O2  UNL     1     -26.952   7.395  24.243  1.00  0.00    -0.270 OA
HETATM   16  N3  UNL     1     -28.903   7.270  22.987  1.00  0.00    -0.276 N 
HETATM   17  C5  UNL     1     -29.485   7.094  21.709  1.00  0.00     0.329 C 
ATOM     18  H3  UNL     1     -29.492   7.265  23.819  1.00  0.00     0.173 HD
HETATM   19  O3  UNL     1     -30.717   6.931  21.596  1.00  0.00    -0.247 OA
HETATM   20  N4  UNL     1     -28.639   7.104  20.546  1.00  0.00    -0.276 N 
HETATM   21  C6  UNL     1     -27.241   7.287  20.659  1.00  0.00     0.264 C 
ATOM     22  H4  UNL     1     -29.055   6.977  19.623  1.00  0.00     0.173 HD
HETATM   23  O4  UNL     1     -26.515   7.081  19.673  1.00  0.00    -0.270 OA
ENDBRANCH   1  13
TORSDOF 3
ENDMDL
MODEL 4
REMARK VINA RESULT: -7.253546359      2.779      5.682
REMARK  3 active torsions:
REMARK  status: ('A' for Active; 'I' for Inactive)
REMARK    1  A    between atoms: N1_1  and  C1_4 
REMARK    2  A    between atoms: C2_7  and  O1_8 
REMARK    3  A    between atoms: O1_8  and  C3_9 
ROOT
HETATM    1  O1  UNL     1     -28.616   8.914  21.717  1.00  0.00    -0.296 OA
ENDROOT
BRANCH   1   2
HETATM    2  C2  UNL     1     -27.904   8.417  22.789  1.00  0.00     0.254 A 
HETATM    3  N2  UNL     1     -27.534   7.128  22.951  1.00  0.00    -0.153 N 
HETATM    4  C1  UNL     1     -26.855   6.992  24.103  1.00  0.00     0.693 A 
ATOM      5  H2  UNL     1     -27.738   6.372  22.298  1.00  0.00     0.188 HD
HETATM    6  N6  UNL     1     -26.821   8.225  24.639  1.00  0.00    -0.129 N 
HETATM    7  N5  UNL     1     -27.451   9.097  23.856  1.00  0.00    -0.250 N 
ATOM      8  H6  UNL     1     -26.373   8.460  25.525  1.00  0.00     0.205 HD
ATOM      9  H5  UNL     1     -27.568  10.095  24.033  1.00  0.00     0.191 HD
BRANCH   4  10
HETATM   10  N1  UNL     1     -26.349   5.897  24.581  1.00  0.00    -0.233 N 
ATOM     11  H12 UNL     1     -26.839   5.113  25.011  1.00  0.00     0.174 HD
ATOM     12  H11 UNL     1     -25.362   5.639  24.602  1.00  0.00     0.174 HD
ENDBRANCH   4  10
ENDBRANCH   1   2
BRANCH   1  13
HETATM   13  C3  UNL     1     -30.031   8.874  21.641  1.00  0.00     0.316 C 
HETATM   14  C4  UNL     1     -30.620   9.818  22.616  1.00  0.00     0.264 C 
HETATM   15  O2  UNL     1     -29.987  10.873  22.875  1.00  0.00    -0.270 OA
HETATM   16  N3  UNL     1     -31.864   9.555  23.249  1.00  0.00    -0.276 N 
HETATM   17  C5  UNL     1     -32.455   8.272  23.150  1.00  0.00     0.329 C 
ATOM     18  H3  UNL     1     -32.333  10.291  23.776  1.00  0.00     0.173 HD
HETATM   19  O3  UNL     1     -33.548   8.038  23.706  1.00  0.00    -0.247 OA
HETATM   20  N4  UNL     1     -31.782   7.245  22.402  1.00  0.00    -0.276 N 
HETATM   21  C6  UNL     1     -30.542   7.495  21.767  1.00  0.00     0.264 C 
ATOM     22  H4  UNL     1     -32.204   6.320  22.328  1.00  0.00     0.173 HD
HETATM   23  O4  UNL     1     -29.884   6.545  21.313  1.00  0.00    -0.270 OA
ENDBRANCH   1  13
TORSDOF 3
ENDMDL
MODEL 5
REMARK VINA RESULT: -7.220853155      2.220      5.408
REMARK  3 active torsions:
REMARK  status: ('A' for Active; 'I' for Inactive)
REMARK    1  A    between atoms: N1_1  and  C1_4 
REMARK    2  A    between atoms: C2_7  and  O1_8 
REMARK    3  A    between atoms: O1_8  and  C3_9 
ROOT
HETATM    1  O1  UNL     1     -27.149   7.528  22.054  1.00  0.00    -0.296 OA
ENDROOT
BRANCH   1   2
HETATM    2  C2  UNL     1     -26.492   6.528  22.741  1.00  0.00     0.254 A 
HETATM    3  N2  UNL     1     -25.877   5.467  22.176  1.00  0.00    -0.153 N 
HETATM    4  C1  UNL     1     -25.341   4.691  23.134  1.00  0.00     0.693 A 
ATOM      5  H2  UNL     1     -25.827   5.281  21.175  1.00  0.00     0.188 HD
HETATM    6  N6  UNL     1     -25.643   5.302  24.293  1.00  0.00    -0.129 N 
HETATM    7  N5  UNL     1     -26.339   6.414  24.072  1.00  0.00    -0.250 N 
ATOM      8  H6  UNL     1     -25.376   4.960  25.216  1.00  0.00     0.205 HD
ATOM      9  H5  UNL     1     -26.691   7.059  24.779  1.00  0.00     0.191 HD
BRANCH   4  10
HETATM   10  N1  UNL     1     -24.676   3.589  22.959  1.00  0.00    -0.233 N 
ATOM     11  H12 UNL     1     -24.501   3.093  22.086  1.00  0.00     0.174 HD
ATOM     12  H11 UNL     1     -24.215   3.034  23.680  1.00  0.00     0.174 HD
ENDBRANCH   4  10
ENDBRANCH   1   2
BRANCH   1  13
HETATM   13  C3  UNL     1     -28.226   8.267  22.603  1.00  0.00     0.316 C 
HETATM   14  C4  UNL     1     -29.292   8.445  21.591  1.00  0.00     0.264 C 
HETATM   15  O2  UNL     1     -29.462   7.530  20.745  1.00  0.00    -0.270 OA
HETATM   16  N3  UNL     1     -30.106   9.608  21.563  1.00  0.00    -0.276 N 
HETATM   17  C5  UNL     1     -29.762  10.736  22.347  1.00  0.00     0.329 C 
ATOM     18  H3  UNL     1     -30.940   9.631  20.977  1.00  0.00     0.173 HD
HETATM   19  O3  UNL     1     -30.476  11.759  22.324  1.00  0.00    -0.247 OA
HETATM   20  N4  UNL     1     -28.583  10.686  23.168  1.00  0.00    -0.276 N 
HETATM   21  C6  UNL     1     -27.764   9.533  23.205  1.00  0.00     0.264 C 
ATOM     22  H4  UNL     1     -28.332  11.497  23.734  1.00  0.00     0.173 HD
HETATM   23  O4  UNL     1     -26.649   9.591  23.749  1.00  0.00    -0.270 OA
ENDBRANCH   1  13
TORSDOF 3
ENDMDL
