MODEL 1
REMARK VINA RESULT: -6.361625021      0.000      0.000
REMARK  8 active torsions:
REMARK  status: ('A' for Active; 'I' for Inactive)
REMARK    1  A    between atoms: N2_3  and  S1_4 
REMARK    2  A    between atoms: S1_4  and  N3_5 
REMARK    3  A    between atoms: S1_4  and  N4_8 
REMARK    4  A    between atoms: S1_4  and  N9_21 
REMARK    5  A    between atoms: N4_8  and  C2_10 
REMARK    6  A    between atoms: C2_10  and  N5_11 
REMARK    7  A    between atoms: C4_15  and  N7_16 
REMARK    8  A    between atoms: N9_21  and  N10_22 
ROOT
HETATM    1  N1  UNL     1     -32.013  13.822  17.389  1.00  0.00    -0.176 NA
HETATM    2  C1  UNL     1     -32.140  13.236  18.418  1.00  0.00     0.184 C 
HETATM    3  N2  UNL     1     -32.351  12.570  19.668  1.00  0.00    -0.030 NA
ENDROOT
BRANCH   3   4
HETATM    4  S1  UNL     1     -31.082  12.769  20.621  1.00  0.00     0.089 SA
BRANCH   4   5
HETATM    5  N3  UNL     1     -29.827  13.475  19.710  1.00  0.00    -0.349 N 
ATOM      6  H32 UNL     1     -29.607  13.246  18.741  1.00  0.00     0.166 HD
ATOM      7  H31 UNL     1     -29.344  14.156  20.298  1.00  0.00     0.166 HD
ENDBRANCH   4   5
BRANCH   4   8
HETATM    8  N4  UNL     1     -30.708  11.248  20.884  1.00  0.00    -0.322 N 
ATOM      9  H4  UNL     1     -30.789  10.548  20.145  1.00  0.00     0.171 HD
BRANCH   8  10
HETATM   10  C2  UNL     1     -30.249  10.892  22.201  1.00  0.00     0.281 C 
BRANCH  10  11
HETATM   11  N5  UNL     1     -31.251   9.866  22.509  1.00  0.00    -0.255 N 
HETATM   12  C3  UNL     1     -32.409  10.021  23.164  1.00  0.00     0.220 A 
HETATM   13  N6  UNL     1     -33.059   8.856  23.272  1.00  0.00    -0.185 N 
HETATM   14  C4  UNL     1     -32.258   7.958  22.656  1.00  0.00     0.691 A 
ATOM     15  H6  UNL     1     -33.959   8.684  23.720  1.00  0.00     0.185 HD
HETATM   16  N8  UNL     1     -31.175   8.590  22.204  1.00  0.00    -0.128 N 
ATOM     17  H8  UNL     1     -30.405   8.150  21.698  1.00  0.00     0.206 HD
BRANCH  14  18
HETATM   18  N7  UNL     1     -32.499   6.705  22.527  1.00  0.00    -0.233 N 
ATOM     19  H72 UNL     1     -32.335   5.994  23.239  1.00  0.00     0.174 HD
ATOM     20  H71 UNL     1     -32.884   6.255  21.697  1.00  0.00     0.174 HD
ENDBRANCH  14  18
ENDBRANCH  10  11
ENDBRANCH   8  10
ENDBRANCH   4   8
BRANCH   4  21
HETATM   21  N9  UNL     1     -31.469  13.598  22.051  1.00  0.00    -0.040 NA
BRANCH  21  22
HETATM   22  N10 UNL     1     -32.876  13.538  22.218  1.00  0.00    -0.335 N 
ATOM     23 2H10 UNL     1     -33.563  13.945  21.584  1.00  0.00     0.173 HD
ATOM     24 1H10 UNL     1     -33.065  13.020  23.076  1.00  0.00     0.173 HD
ENDBRANCH  21  22
ENDBRANCH   4  21
ENDBRANCH   3   4
TORSDOF 8
ENDMDL
MODEL 2
REMARK VINA RESULT: -6.293587646      1.003      1.103
REMARK  8 active torsions:
REMARK  status: ('A' for Active; 'I' for Inactive)
REMARK    1  A    between atoms: N2_3  and  S1_4 
REMARK    2  A    between atoms: S1_4  and  N3_5 
REMARK    3  A    between atoms: S1_4  and  N4_8 
REMARK    4  A    between atoms: S1_4  and  N9_21 
REMARK    5  A    between atoms: N4_8  and  C2_10 
REMARK    6  A    between atoms: C2_10  and  N5_11 
REMARK    7  A    between atoms: C4_15  and  N7_16 
REMARK    8  A    between atoms: N9_21  and  N10_22 
ROOT
HETATM    1  N1  UNL     1     -32.047  13.834  17.407  1.00  0.00    -0.176 NA
HETATM    2  C1  UNL     1     -32.152  13.233  18.430  1.00  0.00     0.184 C 
HETATM    3  N2  UNL     1     -32.337  12.548  19.673  1.00  0.00    -0.030 NA
ENDROOT
BRANCH   3   4
HETATM    4  S1  UNL     1     -31.077  12.785  20.629  1.00  0.00     0.089 SA
BRANCH   4   5
HETATM    5  N3  UNL     1     -29.816  13.461  19.702  1.00  0.00    -0.349 N 
ATOM      6  H32 UNL     1     -29.933  13.908  18.793  1.00  0.00     0.166 HD
ATOM      7  H31 UNL     1     -28.940  13.340  20.211  1.00  0.00     0.166 HD
ENDBRANCH   4   5
BRANCH   4   8
HETATM    8  N4  UNL     1     -30.700  11.276  20.950  1.00  0.00    -0.322 N 
ATOM      9  H4  UNL     1     -30.677  10.569  20.215  1.00  0.00     0.171 HD
BRANCH   8  10
HETATM   10  C2  UNL     1     -30.393  10.942  22.317  1.00  0.00     0.281 C 
BRANCH  10  11
HETATM   11  N5  UNL     1     -30.723   9.513  22.269  1.00  0.00    -0.255 N 
HETATM   12  C3  UNL     1     -31.751   8.889  22.858  1.00  0.00     0.220 A 
HETATM   13  N6  UNL     1     -31.722   7.575  22.606  1.00  0.00    -0.185 N 
HETATM   14  C4  UNL     1     -30.628   7.397  21.831  1.00  0.00     0.691 A 
ATOM     15  H6  UNL     1     -32.379   6.864  22.927  1.00  0.00     0.185 HD
HETATM   16  N8  UNL     1     -30.042   8.580  21.641  1.00  0.00    -0.128 N 
ATOM     17  H8  UNL     1     -29.196   8.736  21.093  1.00  0.00     0.206 HD
BRANCH  14  18
HETATM   18  N7  UNL     1     -30.220   6.279  21.357  1.00  0.00    -0.233 N 
ATOM     19  H72 UNL     1     -30.222   6.016  20.372  1.00  0.00     0.174 HD
ATOM     20  H71 UNL     1     -29.839   5.504  21.902  1.00  0.00     0.174 HD
ENDBRANCH  14  18
ENDBRANCH  10  11
ENDBRANCH   8  10
ENDBRANCH   4   8
BRANCH   4  21
HETATM   21  N9  UNL     1     -31.477  13.665  22.023  1.00  0.00    -0.040 NA
BRANCH  21  22
HETATM   22  N10 UNL     1     -32.891  13.750  22.089  1.00  0.00    -0.335 N 
ATOM     23 2H10 UNL     1     -33.461  14.464  21.637  1.00  0.00     0.173 HD
ATOM     24 1H10 UNL     1     -33.223  12.975  22.665  1.00  0.00     0.173 HD
ENDBRANCH  21  22
ENDBRANCH   4  21
ENDBRANCH   3   4
TORSDOF 8
ENDMDL
MODEL 3
REMARK VINA RESULT: -6.275537204      1.316      1.940
REMARK  8 active torsions:
REMARK  status: ('A' for Active; 'I' for Inactive)
REMARK    1  A    between atoms: N2_3  and  S1_4 
REMARK    2  A    between atoms: S1_4  and  N3_5 
REMARK    3  A    between atoms: S1_4  and  N4_8 
REMARK    4  A    between atoms: S1_4  and  N9_21 
REMARK    5  A    between atoms: N4_8  and  C2_10 
REMARK    6  A    between atoms: C2_10  and  N5_11 
REMARK    7  A    between atoms: C4_15  and  N7_16 
REMARK    8  A    between atoms: N9_21  and  N10_22 
ROOT
HETATM    1  N1  UNL     1     -32.065  13.729  17.368  1.00  0.00    -0.176 NA
HETATM    2  C1  UNL     1     -31.674  13.672  18.492  1.00  0.00     0.184 C 
HETATM    3  N2  UNL     1     -31.142  13.582  19.818  1.00  0.00    -0.030 NA
ENDROOT
BRANCH   3   4
HETATM    4  S1  UNL     1     -32.015  12.570  20.696  1.00  0.00     0.089 SA
BRANCH   4   5
HETATM    5  N3  UNL     1     -32.220  13.240  22.250  1.00  0.00    -0.349 N 
ATOM      6  H32 UNL     1     -32.401  14.225  22.443  1.00  0.00     0.166 HD
ATOM      7  H31 UNL     1     -32.130  12.493  22.939  1.00  0.00     0.166 HD
ENDBRANCH   4   5
BRANCH   4   8
HETATM    8  N4  UNL     1     -30.989  11.364  20.809  1.00  0.00    -0.322 N 
ATOM      9  H4  UNL     1     -30.737  10.805  19.993  1.00  0.00     0.171 HD
BRANCH   8  10
HETATM   10  C2  UNL     1     -30.425  11.086  22.105  1.00  0.00     0.281 C 
BRANCH  10  11
HETATM   11  N5  UNL     1     -30.716   9.650  22.164  1.00  0.00    -0.255 N 
HETATM   12  C3  UNL     1     -31.713   9.040  22.819  1.00  0.00     0.220 A 
HETATM   13  N6  UNL     1     -31.652   7.714  22.658  1.00  0.00    -0.185 N 
HETATM   14  C4  UNL     1     -30.572   7.512  21.872  1.00  0.00     0.691 A 
ATOM     15  H6  UNL     1     -32.283   7.010  23.043  1.00  0.00     0.185 HD
HETATM   16  N8  UNL     1     -30.023   8.693  21.587  1.00  0.00    -0.128 N 
ATOM     17  H8  UNL     1     -29.194   8.833  21.009  1.00  0.00     0.206 HD
BRANCH  14  18
HETATM   18  N7  UNL     1     -30.142   6.374  21.466  1.00  0.00    -0.233 N 
ATOM     19  H72 UNL     1     -29.392   5.835  21.899  1.00  0.00     0.174 HD
ATOM     20  H71 UNL     1     -30.493   5.858  20.660  1.00  0.00     0.174 HD
ENDBRANCH  14  18
ENDBRANCH  10  11
ENDBRANCH   8  10
ENDBRANCH   4   8
BRANCH   4  21
HETATM   21  N9  UNL     1     -33.459  12.123  19.926  1.00  0.00    -0.040 NA
BRANCH  21  22
HETATM   22  N10 UNL     1     -33.794  10.815  20.362  1.00  0.00    -0.335 N 
ATOM     23 2H10 UNL     1     -34.444  10.592  21.114  1.00  0.00     0.173 HD
ATOM     24 1H10 UNL     1     -33.270  10.153  19.789  1.00  0.00     0.173 HD
ENDBRANCH  21  22
ENDBRANCH   4  21
ENDBRANCH   3   4
TORSDOF 8
ENDMDL
MODEL 4
REMARK VINA RESULT: -6.211326886      2.219      3.130
REMARK  8 active torsions:
REMARK  status: ('A' for Active; 'I' for Inactive)
REMARK    1  A    between atoms: N2_3  and  S1_4 
REMARK    2  A    between atoms: S1_4  and  N3_5 
REMARK    3  A    between atoms: S1_4  and  N4_8 
REMARK    4  A    between atoms: S1_4  and  N9_21 
REMARK    5  A    between atoms: N4_8  and  C2_10 
REMARK    6  A    between atoms: C2_10  and  N5_11 
REMARK    7  A    between atoms: C4_15  and  N7_16 
REMARK    8  A    between atoms: N9_21  and  N10_22 
ROOT
HETATM    1  N1  UNL     1     -36.956  12.692  22.271  1.00  0.00    -0.176 NA
HETATM    2  C1  UNL     1     -36.125  12.260  21.535  1.00  0.00     0.184 C 
HETATM    3  N2  UNL     1     -35.156  11.677  20.657  1.00  0.00    -0.030 NA
ENDROOT
BRANCH   3   4
HETATM    4  S1  UNL     1     -33.683  11.877  21.248  1.00  0.00     0.089 SA
BRANCH   4   5
HETATM    5  N3  UNL     1     -32.577  11.883  19.951  1.00  0.00    -0.349 N 
ATOM      6  H32 UNL     1     -31.949  12.654  19.722  1.00  0.00     0.166 HD
ATOM      7  H31 UNL     1     -32.653  10.994  19.457  1.00  0.00     0.166 HD
ENDBRANCH   4   5
BRANCH   4   8
HETATM    8  N4  UNL     1     -33.522  10.504  22.029  1.00  0.00    -0.322 N 
ATOM      9  H4  UNL     1     -34.217   9.762  21.943  1.00  0.00     0.171 HD
BRANCH   8  10
HETATM   10  C2  UNL     1     -32.360  10.343  22.864  1.00  0.00     0.281 C 
BRANCH  10  11
HETATM   11  N5  UNL     1     -32.041   8.953  22.525  1.00  0.00    -0.255 N 
HETATM   12  C3  UNL     1     -32.732   7.851  22.844  1.00  0.00     0.220 A 
HETATM   13  N6  UNL     1     -32.127   6.753  22.377  1.00  0.00    -0.185 N 
HETATM   14  C4  UNL     1     -31.022   7.210  21.748  1.00  0.00     0.691 A 
ATOM     15  H6  UNL     1     -32.432   5.784  22.475  1.00  0.00     0.185 HD
HETATM   16  N8  UNL     1     -30.991   8.539  21.850  1.00  0.00    -0.128 N 
ATOM     17  H8  UNL     1     -30.265   9.142  21.463  1.00  0.00     0.206 HD
BRANCH  14  18
HETATM   18  N7  UNL     1     -30.146   6.488  21.152  1.00  0.00    -0.233 N 
ATOM     19  H72 UNL     1     -29.422   5.936  21.610  1.00  0.00     0.174 HD
ATOM     20  H71 UNL     1     -30.059   6.369  20.143  1.00  0.00     0.174 HD
ENDBRANCH  14  18
ENDBRANCH  10  11
ENDBRANCH   8  10
ENDBRANCH   4   8
BRANCH   4  21
HETATM   21  N9  UNL     1     -33.574  13.224  22.274  1.00  0.00    -0.040 NA
BRANCH  21  22
HETATM   22  N10 UNL     1     -32.408  13.948  21.914  1.00  0.00    -0.335 N 
ATOM     23 2H10 UNL     1     -32.270  14.949  22.048  1.00  0.00     0.173 HD
ATOM     24 1H10 UNL     1     -31.747  13.287  21.505  1.00  0.00     0.173 HD
ENDBRANCH  21  22
ENDBRANCH   4  21
ENDBRANCH   3   4
TORSDOF 8
ENDMDL
MODEL 5
REMARK VINA RESULT: -6.093081151      4.083      5.957
REMARK  8 active torsions:
REMARK  status: ('A' for Active; 'I' for Inactive)
REMARK    1  A    between atoms: N2_3  and  S1_4 
REMARK    2  A    between atoms: S1_4  and  N3_5 
REMARK    3  A    between atoms: S1_4  and  N4_8 
REMARK    4  A    between atoms: S1_4  and  N9_21 
REMARK    5  A    between atoms: N4_8  and  C2_10 
REMARK    6  A    between atoms: C2_10  and  N5_11 
REMARK    7  A    between atoms: C4_15  and  N7_16 
REMARK    8  A    between atoms: N9_21  and  N10_22 
ROOT
HETATM    1  N1  UNL     1     -25.167   6.489  20.065  1.00  0.00    -0.176 NA
HETATM    2  C1  UNL     1     -26.175   6.976  20.471  1.00  0.00     0.184 C 
HETATM    3  N2  UNL     1     -27.360   7.626  20.944  1.00  0.00    -0.030 NA
ENDROOT
BRANCH   3   4
HETATM    4  S1  UNL     1     -27.608   7.273  22.484  1.00  0.00     0.089 SA
BRANCH   4   5
HETATM    5  N3  UNL     1     -26.529   6.033  22.935  1.00  0.00    -0.349 N 
ATOM      6  H32 UNL     1     -25.685   6.167  23.493  1.00  0.00     0.166 HD
ATOM      7  H31 UNL     1     -26.872   5.151  22.554  1.00  0.00     0.166 HD
ENDBRANCH   4   5
BRANCH   4   8
HETATM    8  N4  UNL     1     -29.064   6.648  22.381  1.00  0.00    -0.322 N 
ATOM      9  H4  UNL     1     -29.416   6.007  23.093  1.00  0.00     0.171 HD
BRANCH   8  10
HETATM   10  C2  UNL     1     -29.872   7.019  21.248  1.00  0.00     0.281 C 
BRANCH  10  11
HETATM   11  N5  UNL     1     -30.951   7.704  21.967  1.00  0.00    -0.255 N 
HETATM   12  C3  UNL     1     -31.017   8.996  22.313  1.00  0.00     0.220 A 
HETATM   13  N6  UNL     1     -32.148   9.259  22.976  1.00  0.00    -0.185 N 
HETATM   14  C4  UNL     1     -32.796   8.074  23.034  1.00  0.00     0.691 A 
ATOM     15  H6  UNL     1     -32.455  10.155  23.354  1.00  0.00     0.185 HD
HETATM   16  N8  UNL     1     -32.055   7.151  22.419  1.00  0.00    -0.128 N 
ATOM     17  H8  UNL     1     -32.307   6.168  22.315  1.00  0.00     0.206 HD
BRANCH  14  18
HETATM   18  N7  UNL     1     -33.933   7.868  23.589  1.00  0.00    -0.233 N 
ATOM     19  H72 UNL     1     -34.424   8.524  24.195  1.00  0.00     0.174 HD
ATOM     20  H71 UNL     1     -34.496   7.022  23.498  1.00  0.00     0.174 HD
ENDBRANCH  14  18
ENDBRANCH  10  11
ENDBRANCH   8  10
ENDBRANCH   4   8
BRANCH   4  21
HETATM   21  N9  UNL     1     -27.560   8.647  23.479  1.00  0.00    -0.040 NA
BRANCH  21  22
HETATM   22  N10 UNL     1     -26.704   8.357  24.573  1.00  0.00    -0.335 N 
ATOM     23 2H10 UNL     1     -25.991   8.984  24.946  1.00  0.00     0.173 HD
ATOM     24 1H10 UNL     1     -26.934   7.421  24.908  1.00  0.00     0.173 HD
ENDBRANCH  21  22
ENDBRANCH   4  21
ENDBRANCH   3   4
TORSDOF 8
ENDMDL
