MODEL 1
REMARK VINA RESULT: -5.519354828      0.000      0.000
REMARK  10 active torsions:
REMARK  status: ('A' for Active; 'I' for Inactive)
REMARK    1  A    between atoms: S1_2  and  C2_3 
REMARK    2  A    between atoms: C4_8  and  N2_9 
REMARK       I    between atoms: N2_9  and  C5_11 
REMARK    3  A    between atoms: C5_11  and  C6_13 
REMARK    4  A    between atoms: C6_13  and  O3_15 
REMARK    5  A    between atoms: O3_15  and  C8_16 
REMARK    6  A    between atoms: C8_16  and  C11_19 
REMARK       I    between atoms: C11_19  and  N3_21 
REMARK    7  A    between atoms: N3_21  and  N4_23 
REMARK    8  A    between atoms: N4_23  and  C12_25 
REMARK    9  A    between atoms: C12_25  and  C13_26 
REMARK   10  A    between atoms: C13_26  and  N5_27 
ROOT
HETATM    1  N2  UNL     1      27.943  18.433  -0.275  1.00  0.00    -0.333 N 
ATOM      2  H2  UNL     1      27.071  18.182   0.193  1.00  0.00     0.164 HD
HETATM    3  C5  UNL     1      28.582  17.411  -0.975  1.00  0.00     0.247 C 
HETATM    4  O2  UNL     1      29.688  17.554  -1.591  1.00  0.00    -0.271 OA
ENDROOT
BRANCH   1   5
HETATM    5  C4  UNL     1      28.369  19.800  -0.136  1.00  0.00     0.312 C 
HETATM    6  C3  UNL     1      28.068  20.613  -1.324  1.00  0.00     0.257 C 
HETATM    7  N1  UNL     1      28.759  21.734  -1.808  1.00  0.00    -0.337 N 
HETATM    8  O1  UNL     1      27.031  20.235  -1.993  1.00  0.00    -0.270 OA
HETATM    9  C2  UNL     1      30.106  21.840  -2.274  1.00  0.00     0.239 C 
ATOM     10  H1  UNL     1      28.222  22.600  -1.831  1.00  0.00     0.164 HD
HETATM   11  C17 UNL     1      31.155  21.440  -1.328  1.00  0.00     0.251 C 
HETATM   12  N8  UNL     1      31.560  22.262  -0.245  1.00  0.00    -0.353 N 
HETATM   13  O7  UNL     1      31.718  20.300  -1.498  1.00  0.00    -0.270 OA
HETATM   14  C16 UNL     1      31.777  23.689  -0.318  1.00  0.00     0.182 C 
ATOM     15  H8  UNL     1      31.710  21.810   0.657  1.00  0.00     0.162 HD
HETATM   16  C15 UNL     1      30.652  24.472   0.330  1.00  0.00     0.177 C 
HETATM   17  N7  UNL     1      29.799  23.781   1.122  1.00  0.00    -0.397 NA
HETATM   18  C14 UNL     1      28.903  23.443   1.836  1.00  0.00     0.240 C 
HETATM   19  S3  UNL     1      28.892  21.698   2.375  1.00  0.00     0.054 SA
HETATM   20  N6  UNL     1      27.787  24.146   2.391  1.00  0.00    -0.059 NA
HETATM   21  S2  UNL     1      27.532  20.576   1.252  1.00  0.00     0.237 S 
HETATM   22  O5  UNL     1      26.468  21.502   0.760  1.00  0.00    -0.213 OA
HETATM   23  O6  UNL     1      26.955  19.547   2.185  1.00  0.00    -0.213 OA
BRANCH   9  24
HETATM   24  S1  UNL     1      30.372  20.990  -3.878  1.00  0.00    -0.139 SA
HETATM   25  C1  UNL     1      31.580  21.943  -4.851  1.00  0.00     0.092 C 
ENDBRANCH   9  24
ENDBRANCH   1   5
BRANCH   3  26
HETATM   26  C6  UNL     1      27.996  16.025  -1.060  1.00  0.00     0.211 C 
HETATM   27  C7  UNL     1      26.979  16.006   0.106  1.00  0.00     0.050 C 
BRANCH  26  28
HETATM   28  O3  UNL     1      27.264  15.890  -2.225  1.00  0.00    -0.357 OA
BRANCH  28  29
HETATM   29  C8  UNL     1      27.630  14.870  -3.060  1.00  0.00     0.137 C 
HETATM   30  C9  UNL     1      28.952  14.320  -2.416  1.00  0.00     0.056 C 
HETATM   31  C10 UNL     1      26.703  13.726  -3.198  1.00  0.00     0.056 C 
BRANCH  29  32
HETATM   32  C11 UNL     1      28.179  15.360  -4.387  1.00  0.00     0.269 C 
HETATM   33  O4  UNL     1      28.145  16.562  -4.613  1.00  0.00    -0.268 OA
HETATM   34  N3  UNL     1      28.698  14.423  -5.283  1.00  0.00    -0.272 N 
ATOM     35  H3  UNL     1      28.672  13.443  -5.004  1.00  0.00     0.189 HD
BRANCH  34  36
HETATM   36  N4  UNL     1      29.239  14.716  -6.508  1.00  0.00    -0.332 N 
ATOM     37  H4  UNL     1      30.141  15.184  -6.593  1.00  0.00     0.180 HD
BRANCH  36  38
HETATM   38  C12 UNL     1      28.491  14.342  -7.648  1.00  0.00     0.166 C 
BRANCH  38  39
HETATM   39  C13 UNL     1      27.259  15.223  -7.850  1.00  0.00     0.250 C 
BRANCH  39  40
HETATM   40  N5  UNL     1      27.701  16.589  -7.759  1.00  0.00    -0.078 N 
ATOM     41  H53 UNL     1      26.947  17.243  -7.552  1.00  0.00     0.274 HD
ATOM     42  H52 UNL     1      28.264  16.774  -6.928  1.00  0.00     0.274 HD
ATOM     43  H51 UNL     1      28.189  16.801  -8.629  1.00  0.00     0.274 HD
ENDBRANCH  39  40
ENDBRANCH  38  39
ENDBRANCH  36  38
ENDBRANCH  34  36
ENDBRANCH  29  32
ENDBRANCH  28  29
ENDBRANCH  26  28
ENDBRANCH   3  26
TORSDOF 10
ENDMDL
MODEL 2
REMARK VINA RESULT: -5.416382801      2.144      2.566
REMARK  10 active torsions:
REMARK  status: ('A' for Active; 'I' for Inactive)
REMARK    1  A    between atoms: S1_2  and  C2_3 
REMARK    2  A    between atoms: C4_8  and  N2_9 
REMARK       I    between atoms: N2_9  and  C5_11 
REMARK    3  A    between atoms: C5_11  and  C6_13 
REMARK    4  A    between atoms: C6_13  and  O3_15 
REMARK    5  A    between atoms: O3_15  and  C8_16 
REMARK    6  A    between atoms: C8_16  and  C11_19 
REMARK       I    between atoms: C11_19  and  N3_21 
REMARK    7  A    between atoms: N3_21  and  N4_23 
REMARK    8  A    between atoms: N4_23  and  C12_25 
REMARK    9  A    between atoms: C12_25  and  C13_26 
REMARK   10  A    between atoms: C13_26  and  N5_27 
ROOT
HETATM    1  N2  UNL     1      27.124  18.505   0.820  1.00  0.00    -0.333 N 
ATOM      2  H2  UNL     1      26.389  18.542   1.526  1.00  0.00     0.164 HD
HETATM    3  C5  UNL     1      27.379  17.253   0.262  1.00  0.00     0.247 C 
HETATM    4  O2  UNL     1      28.280  17.034  -0.613  1.00  0.00    -0.271 OA
ENDROOT
BRANCH   1   5
HETATM    5  C4  UNL     1      27.778  19.750   0.517  1.00  0.00     0.312 C 
HETATM    6  C3  UNL     1      27.239  20.396  -0.690  1.00  0.00     0.257 C 
HETATM    7  N1  UNL     1      27.901  21.242  -1.592  1.00  0.00    -0.337 N 
HETATM    8  O1  UNL     1      25.996  20.145  -0.932  1.00  0.00    -0.270 OA
HETATM    9  C2  UNL     1      29.024  20.973  -2.434  1.00  0.00     0.239 C 
ATOM     10  H1  UNL     1      27.525  22.188  -1.658  1.00  0.00     0.164 HD
HETATM   11  C17 UNL     1      30.247  20.520  -1.759  1.00  0.00     0.251 C 
HETATM   12  N8  UNL     1      31.103  21.406  -1.054  1.00  0.00    -0.353 N 
HETATM   13  O7  UNL     1      30.543  19.273  -1.818  1.00  0.00    -0.270 OA
HETATM   14  C16 UNL     1      31.502  22.718  -1.508  1.00  0.00     0.182 C 
ATOM     15  H8  UNL     1      31.464  21.091  -0.153  1.00  0.00     0.162 HD
HETATM   16  C15 UNL     1      30.781  23.824  -0.763  1.00  0.00     0.177 C 
HETATM   17  N7  UNL     1      30.133  23.479   0.375  1.00  0.00    -0.397 NA
HETATM   18  C14 UNL     1      29.475  23.470   1.371  1.00  0.00     0.240 C 
HETATM   19  S3  UNL     1      29.370  21.885   2.273  1.00  0.00     0.054 SA
HETATM   20  N6  UNL     1      28.721  24.481   2.045  1.00  0.00    -0.059 NA
HETATM   21  S2  UNL     1      27.565  20.912   1.870  1.00  0.00     0.237 S 
HETATM   22  O5  UNL     1      26.555  21.951   1.504  1.00  0.00    -0.213 OA
HETATM   23  O6  UNL     1      27.168  20.206   3.138  1.00  0.00    -0.213 OA
BRANCH   9  24
HETATM   24  S1  UNL     1      28.624  19.827  -3.809  1.00  0.00    -0.139 SA
HETATM   25  C1  UNL     1      26.979  20.249  -4.463  1.00  0.00     0.092 C 
ENDBRANCH   9  24
ENDBRANCH   1   5
BRANCH   3  26
HETATM   26  C6  UNL     1      26.586  16.035   0.657  1.00  0.00     0.211 C 
HETATM   27  C7  UNL     1      25.919  16.470   1.984  1.00  0.00     0.050 C 
BRANCH  26  28
HETATM   28  O3  UNL     1      25.563  15.820  -0.247  1.00  0.00    -0.357 OA
BRANCH  28  29
HETATM   29  C8  UNL     1      25.539  14.597  -0.860  1.00  0.00     0.137 C 
HETATM   30  C9  UNL     1      26.398  13.689   0.089  1.00  0.00     0.056 C 
HETATM   31  C10 UNL     1      24.227  13.936  -1.028  1.00  0.00     0.056 C 
BRANCH  29  32
HETATM   32  C11 UNL     1      26.401  14.545  -2.109  1.00  0.00     0.269 C 
HETATM   33  O4  UNL     1      26.072  15.239  -3.062  1.00  0.00    -0.268 OA
HETATM   34  N3  UNL     1      27.523  13.715  -2.112  1.00  0.00    -0.272 N 
ATOM     35  H3  UNL     1      27.705  13.169  -1.270  1.00  0.00     0.189 HD
BRANCH  34  36
HETATM   36  N4  UNL     1      28.400  13.575  -3.156  1.00  0.00    -0.332 N 
ATOM     37  H4  UNL     1      28.165  13.015  -3.976  1.00  0.00     0.180 HD
BRANCH  36  38
HETATM   38  C12 UNL     1      29.642  14.240  -3.048  1.00  0.00     0.166 C 
BRANCH  38  39
HETATM   39  C13 UNL     1      29.591  15.661  -3.609  1.00  0.00     0.250 C 
BRANCH  39  40
HETATM   40  N5  UNL     1      30.316  16.500  -2.692  1.00  0.00    -0.078 N 
ATOM     41  H53 UNL     1      29.885  17.414  -2.557  1.00  0.00     0.274 HD
ATOM     42  H52 UNL     1      30.254  16.183  -1.724  1.00  0.00     0.274 HD
ATOM     43  H51 UNL     1      31.275  16.555  -3.036  1.00  0.00     0.274 HD
ENDBRANCH  39  40
ENDBRANCH  38  39
ENDBRANCH  36  38
ENDBRANCH  34  36
ENDBRANCH  29  32
ENDBRANCH  28  29
ENDBRANCH  26  28
ENDBRANCH   3  26
TORSDOF 10
ENDMDL
MODEL 3
REMARK VINA RESULT: -5.384727547      0.956      1.150
REMARK  10 active torsions:
REMARK  status: ('A' for Active; 'I' for Inactive)
REMARK    1  A    between atoms: S1_2  and  C2_3 
REMARK    2  A    between atoms: C4_8  and  N2_9 
REMARK       I    between atoms: N2_9  and  C5_11 
REMARK    3  A    between atoms: C5_11  and  C6_13 
REMARK    4  A    between atoms: C6_13  and  O3_15 
REMARK    5  A    between atoms: O3_15  and  C8_16 
REMARK    6  A    between atoms: C8_16  and  C11_19 
REMARK       I    between atoms: C11_19  and  N3_21 
REMARK    7  A    between atoms: N3_21  and  N4_23 
REMARK    8  A    between atoms: N4_23  and  C12_25 
REMARK    9  A    between atoms: C12_25  and  C13_26 
REMARK   10  A    between atoms: C13_26  and  N5_27 
ROOT
HETATM    1  N2  UNL     1      28.186  18.205  -0.649  1.00  0.00    -0.333 N 
ATOM      2  H2  UNL     1      27.327  17.839  -0.238  1.00  0.00     0.164 HD
HETATM    3  C5  UNL     1      28.946  17.303  -1.392  1.00  0.00     0.247 C 
HETATM    4  O2  UNL     1      30.055  17.596  -1.949  1.00  0.00    -0.271 OA
ENDROOT
BRANCH   1   5
HETATM    5  C4  UNL     1      28.472  19.592  -0.395  1.00  0.00     0.312 C 
HETATM    6  C3  UNL     1      28.189  20.453  -1.554  1.00  0.00     0.257 C 
HETATM    7  N1  UNL     1      28.809  21.660  -1.912  1.00  0.00    -0.337 N 
HETATM    8  O1  UNL     1      27.246  20.031  -2.327  1.00  0.00    -0.270 OA
HETATM    9  C2  UNL     1      30.171  21.914  -2.259  1.00  0.00     0.239 C 
ATOM     10  H1  UNL     1      28.196  22.475  -1.927  1.00  0.00     0.164 HD
HETATM   11  C17 UNL     1      31.177  21.545  -1.254  1.00  0.00     0.251 C 
HETATM   12  N8  UNL     1      31.421  22.326  -0.095  1.00  0.00    -0.353 N 
HETATM   13  O7  UNL     1      31.855  20.472  -1.445  1.00  0.00    -0.270 OA
HETATM   14  C16 UNL     1      31.510  23.768  -0.065  1.00  0.00     0.182 C 
ATOM     15  H8  UNL     1      31.543  21.829   0.788  1.00  0.00     0.162 HD
HETATM   16  C15 UNL     1      30.271  24.404   0.534  1.00  0.00     0.177 C 
HETATM   17  N7  UNL     1      29.427  23.590   1.211  1.00  0.00    -0.397 NA
HETATM   18  C14 UNL     1      28.515  23.128   1.827  1.00  0.00     0.240 C 
HETATM   19  S3  UNL     1      28.624  21.357   2.258  1.00  0.00     0.054 SA
HETATM   20  N6  UNL     1      27.299  23.692   2.329  1.00  0.00    -0.059 NA
HETATM   21  S2  UNL     1      27.464  20.198   0.963  1.00  0.00     0.237 S 
HETATM   22  O5  UNL     1      26.359  21.057   0.442  1.00  0.00    -0.213 OA
HETATM   23  O6  UNL     1      26.915  19.062   1.783  1.00  0.00    -0.213 OA
BRANCH   9  24
HETATM   24  S1  UNL     1      30.637  21.199  -3.883  1.00  0.00    -0.139 SA
HETATM   25  C1  UNL     1      29.196  21.277  -4.991  1.00  0.00     0.092 C 
ENDBRANCH   9  24
ENDBRANCH   1   5
BRANCH   3  26
HETATM   26  C6  UNL     1      28.502  15.879  -1.601  1.00  0.00     0.211 C 
HETATM   27  C7  UNL     1      27.424  15.687  -0.508  1.00  0.00     0.050 C 
BRANCH  26  28
HETATM   28  O3  UNL     1      27.855  15.757  -2.817  1.00  0.00    -0.357 OA
BRANCH  28  29
HETATM   29  C8  UNL     1      28.169  14.655  -3.566  1.00  0.00     0.137 C 
HETATM   30  C9  UNL     1      29.582  14.233  -3.031  1.00  0.00     0.056 C 
HETATM   31  C10 UNL     1      27.289  13.473  -3.455  1.00  0.00     0.056 C 
BRANCH  29  32
HETATM   32  C11 UNL     1      28.533  14.999  -4.999  1.00  0.00     0.269 C 
HETATM   33  O4  UNL     1      29.609  14.606  -5.428  1.00  0.00    -0.268 OA
HETATM   34  N3  UNL     1      27.627  15.743  -5.758  1.00  0.00    -0.272 N 
ATOM     35  H3  UNL     1      26.761  16.032  -5.305  1.00  0.00     0.189 HD
BRANCH  34  36
HETATM   36  N4  UNL     1      27.810  16.117  -7.064  1.00  0.00    -0.332 N 
ATOM     37  H4  UNL     1      28.312  16.970  -7.308  1.00  0.00     0.180 HD
BRANCH  36  38
HETATM   38  C12 UNL     1      27.274  15.267  -8.058  1.00  0.00     0.166 C 
BRANCH  38  39
HETATM   39  C13 UNL     1      28.325  14.327  -8.649  1.00  0.00     0.250 C 
BRANCH  39  40
HETATM   40  N5  UNL     1      28.183  13.064  -7.975  1.00  0.00    -0.078 N 
ATOM     41  H53 UNL     1      28.205  12.266  -8.610  1.00  0.00     0.274 HD
ATOM     42  H52 UNL     1      29.002  12.811  -7.421  1.00  0.00     0.274 HD
ATOM     43  H51 UNL     1      27.327  13.116  -7.424  1.00  0.00     0.274 HD
ENDBRANCH  39  40
ENDBRANCH  38  39
ENDBRANCH  36  38
ENDBRANCH  34  36
ENDBRANCH  29  32
ENDBRANCH  28  29
ENDBRANCH  26  28
ENDBRANCH   3  26
TORSDOF 10
ENDMDL
MODEL 4
REMARK VINA RESULT: -5.303836489      2.812      4.402
REMARK  10 active torsions:
REMARK  status: ('A' for Active; 'I' for Inactive)
REMARK    1  A    between atoms: S1_2  and  C2_3 
REMARK    2  A    between atoms: C4_8  and  N2_9 
REMARK       I    between atoms: N2_9  and  C5_11 
REMARK    3  A    between atoms: C5_11  and  C6_13 
REMARK    4  A    between atoms: C6_13  and  O3_15 
REMARK    5  A    between atoms: O3_15  and  C8_16 
REMARK    6  A    between atoms: C8_16  and  C11_19 
REMARK       I    between atoms: C11_19  and  N3_21 
REMARK    7  A    between atoms: N3_21  and  N4_23 
REMARK    8  A    between atoms: N4_23  and  C12_25 
REMARK    9  A    between atoms: C12_25  and  C13_26 
REMARK   10  A    between atoms: C13_26  and  N5_27 
ROOT
HETATM    1  N2  UNL     1      28.089  18.658  -0.635  1.00  0.00    -0.333 N 
ATOM      2  H2  UNL     1      27.178  18.247  -0.430  1.00  0.00     0.164 HD
HETATM    3  C5  UNL     1      28.966  17.873  -1.381  1.00  0.00     0.247 C 
HETATM    4  O2  UNL     1      30.147  18.230  -1.699  1.00  0.00    -0.271 OA
ENDROOT
BRANCH   1   5
HETATM    5  C4  UNL     1      28.319  19.982  -0.120  1.00  0.00     0.312 C 
HETATM    6  C3  UNL     1      27.987  21.036  -1.091  1.00  0.00     0.257 C 
HETATM    7  N1  UNL     1      28.551  22.315  -1.213  1.00  0.00    -0.337 N 
HETATM    8  O1  UNL     1      27.053  20.729  -1.928  1.00  0.00    -0.270 OA
HETATM    9  C2  UNL     1      29.897  22.690  -1.509  1.00  0.00     0.239 C 
ATOM     10  H1  UNL     1      27.904  23.091  -1.070  1.00  0.00     0.164 HD
HETATM   11  C17 UNL     1      30.929  22.180  -0.598  1.00  0.00     0.251 C 
HETATM   12  N8  UNL     1      31.154  22.734   0.689  1.00  0.00    -0.353 N 
HETATM   13  O7  UNL     1      31.650  21.194  -0.993  1.00  0.00    -0.270 OA
HETATM   14  C16 UNL     1      31.182  24.146   0.994  1.00  0.00     0.182 C 
ATOM     15  H8  UNL     1      31.306  22.084   1.459  1.00  0.00     0.162 HD
HETATM   16  C15 UNL     1      29.925  24.601   1.708  1.00  0.00     0.177 C 
HETATM   17  N7  UNL     1      29.124  23.637   2.219  1.00  0.00    -0.397 NA
HETATM   18  C14 UNL     1      28.238  23.026   2.739  1.00  0.00     0.240 C 
HETATM   19  S3  UNL     1      28.427  21.212   2.822  1.00  0.00     0.054 SA
HETATM   20  N6  UNL     1      27.006  23.430   3.344  1.00  0.00    -0.059 NA
HETATM   21  S2  UNL     1      27.302  20.272   1.333  1.00  0.00     0.237 S 
HETATM   22  O5  UNL     1      26.156  21.167   0.989  1.00  0.00    -0.213 OA
HETATM   23  O6  UNL     1      26.811  18.978   1.921  1.00  0.00    -0.213 OA
BRANCH   9  24
HETATM   24  S1  UNL     1      30.374  22.321  -3.242  1.00  0.00    -0.139 SA
HETATM   25  C1  UNL     1      28.975  22.728  -4.333  1.00  0.00     0.092 C 
ENDBRANCH   9  24
ENDBRANCH   1   5
BRANCH   3  26
HETATM   26  C6  UNL     1      28.572  16.508  -1.883  1.00  0.00     0.211 C 
HETATM   27  C7  UNL     1      29.845  16.030  -2.622  1.00  0.00     0.050 C 
BRANCH  26  28
HETATM   28  O3  UNL     1      28.388  15.645  -0.818  1.00  0.00    -0.357 OA
BRANCH  28  29
HETATM   29  C8  UNL     1      27.249  14.887  -0.839  1.00  0.00     0.137 C 
HETATM   30  C9  UNL     1      26.199  15.815  -1.545  1.00  0.00     0.056 C 
HETATM   31  C10 UNL     1      27.282  13.614  -1.589  1.00  0.00     0.056 C 
BRANCH  29  32
HETATM   32  C11 UNL     1      26.598  14.762   0.527  1.00  0.00     0.269 C 
HETATM   33  O4  UNL     1      26.319  13.640   0.929  1.00  0.00    -0.268 OA
HETATM   34  N3  UNL     1      26.351  15.925   1.259  1.00  0.00    -0.272 N 
ATOM     35  H3  UNL     1      26.613  16.813   0.831  1.00  0.00     0.189 HD
BRANCH  34  36
HETATM   36  N4  UNL     1      25.786  15.968   2.507  1.00  0.00    -0.332 N 
ATOM     37  H4  UNL     1      26.339  15.807   3.348  1.00  0.00     0.180 HD
BRANCH  36  38
HETATM   38  C12 UNL     1      24.401  16.247   2.576  1.00  0.00     0.166 C 
BRANCH  38  39
HETATM   39  C13 UNL     1      23.638  15.199   3.387  1.00  0.00     0.250 C 
BRANCH  39  40
HETATM   40  N5  UNL     1      23.806  13.942   2.709  1.00  0.00    -0.078 N 
ATOM     41  H53 UNL     1      24.395  14.009   1.879  1.00  0.00     0.274 HD
ATOM     42  H52 UNL     1      24.388  13.282   3.227  1.00  0.00     0.274 HD
ATOM     43  H51 UNL     1      22.872  13.584   2.512  1.00  0.00     0.274 HD
ENDBRANCH  39  40
ENDBRANCH  38  39
ENDBRANCH  36  38
ENDBRANCH  34  36
ENDBRANCH  29  32
ENDBRANCH  28  29
ENDBRANCH  26  28
ENDBRANCH   3  26
TORSDOF 10
ENDMDL
MODEL 5
REMARK VINA RESULT: -5.211996603      6.368      8.366
REMARK  10 active torsions:
REMARK  status: ('A' for Active; 'I' for Inactive)
REMARK    1  A    between atoms: S1_2  and  C2_3 
REMARK    2  A    between atoms: C4_8  and  N2_9 
REMARK       I    between atoms: N2_9  and  C5_11 
REMARK    3  A    between atoms: C5_11  and  C6_13 
REMARK    4  A    between atoms: C6_13  and  O3_15 
REMARK    5  A    between atoms: O3_15  and  C8_16 
REMARK    6  A    between atoms: C8_16  and  C11_19 
REMARK       I    between atoms: C11_19  and  N3_21 
REMARK    7  A    between atoms: N3_21  and  N4_23 
REMARK    8  A    between atoms: N4_23  and  C12_25 
REMARK    9  A    between atoms: C12_25  and  C13_26 
REMARK   10  A    between atoms: C13_26  and  N5_27 
ROOT
HETATM    1  N2  UNL     1      24.440  15.510   4.145  1.00  0.00    -0.333 N 
ATOM      2  H2  UNL     1      23.509  15.139   3.952  1.00  0.00     0.164 HD
HETATM    3  C5  UNL     1      25.258  15.729   3.038  1.00  0.00     0.247 C 
HETATM    4  O2  UNL     1      26.453  16.165   3.111  1.00  0.00    -0.271 OA
ENDROOT
BRANCH   1   5
HETATM    5  C4  UNL     1      24.756  15.746   5.529  1.00  0.00     0.312 C 
HETATM    6  C3  UNL     1      24.661  17.167   5.900  1.00  0.00     0.257 C 
HETATM    7  N1  UNL     1      25.376  17.856   6.891  1.00  0.00    -0.337 N 
HETATM    8  O1  UNL     1      23.804  17.850   5.219  1.00  0.00    -0.270 OA
HETATM    9  C2  UNL     1      26.781  18.087   7.004  1.00  0.00     0.239 C 
ATOM     10  H1  UNL     1      24.809  18.251   7.641  1.00  0.00     0.164 HD
HETATM   11  C17 UNL     1      27.635  16.892   7.036  1.00  0.00     0.251 C 
HETATM   12  N8  UNL     1      27.767  16.078   8.190  1.00  0.00    -0.353 N 
HETATM   13  O7  UNL     1      28.281  16.583   5.971  1.00  0.00    -0.270 OA
HETATM   14  C16 UNL     1      27.918  16.568   9.541  1.00  0.00     0.182 C 
ATOM     15  H8  UNL     1      27.754  15.067   8.056  1.00  0.00     0.162 HD
HETATM   16  C15 UNL     1      26.645  16.416  10.350  1.00  0.00     0.177 C 
HETATM   17  N7  UNL     1      25.686  15.607   9.841  1.00  0.00    -0.397 NA
HETATM   18  C14 UNL     1      24.682  14.992   9.637  1.00  0.00     0.240 C 
HETATM   19  S3  UNL     1      24.654  13.931   8.151  1.00  0.00     0.054 SA
HETATM   20  N6  UNL     1      23.441  14.900  10.342  1.00  0.00    -0.059 NA
HETATM   21  S2  UNL     1      23.614  14.853   6.591  1.00  0.00     0.237 S 
HETATM   22  O5  UNL     1      22.624  15.797   7.193  1.00  0.00    -0.213 OA
HETATM   23  O6  UNL     1      22.914  13.756   5.837  1.00  0.00    -0.213 OA
BRANCH   9  24
HETATM   24  S1  UNL     1      27.414  19.257   5.740  1.00  0.00    -0.139 SA
HETATM   25  C1  UNL     1      28.793  20.203   6.458  1.00  0.00     0.092 C 
ENDBRANCH   9  24
ENDBRANCH   1   5
BRANCH   3  26
HETATM   26  C6  UNL     1      24.776  15.464   1.635  1.00  0.00     0.211 C 
HETATM   27  C7  UNL     1      23.652  16.510   1.450  1.00  0.00     0.050 C 
BRANCH  26  28
HETATM   28  O3  UNL     1      25.767  15.784   0.725  1.00  0.00    -0.357 OA
BRANCH  28  29
HETATM   29  C8  UNL     1      25.957  14.902  -0.303  1.00  0.00     0.137 C 
HETATM   30  C9  UNL     1      26.016  13.506   0.411  1.00  0.00     0.056 C 
HETATM   31  C10 UNL     1      24.907  14.816  -1.341  1.00  0.00     0.056 C 
BRANCH  29  32
HETATM   32  C11 UNL     1      27.362  14.954  -0.875  1.00  0.00     0.269 C 
HETATM   33  O4  UNL     1      28.051  15.931  -0.614  1.00  0.00    -0.268 OA
HETATM   34  N3  UNL     1      27.802  13.891  -1.666  1.00  0.00    -0.272 N 
ATOM     35  H3  UNL     1      27.147  13.127  -1.832  1.00  0.00     0.189 HD
BRANCH  34  36
HETATM   36  N4  UNL     1      29.044  13.792  -2.236  1.00  0.00    -0.332 N 
ATOM     37  H4  UNL     1      29.851  13.471  -1.702  1.00  0.00     0.180 HD
BRANCH  36  38
HETATM   38  C12 UNL     1      29.158  14.153  -3.598  1.00  0.00     0.166 C 
BRANCH  38  39
HETATM   39  C13 UNL     1      29.569  15.614  -3.780  1.00  0.00     0.250 C 
BRANCH  39  40
HETATM   40  N5  UNL     1      30.500  15.920  -2.727  1.00  0.00    -0.078 N 
ATOM     41  H53 UNL     1      30.285  16.792  -2.242  1.00  0.00     0.274 HD
ATOM     42  H52 UNL     1      30.414  15.300  -1.922  1.00  0.00     0.274 HD
ATOM     43  H51 UNL     1      31.432  15.911  -3.142  1.00  0.00     0.274 HD
ENDBRANCH  39  40
ENDBRANCH  38  39
ENDBRANCH  36  38
ENDBRANCH  34  36
ENDBRANCH  29  32
ENDBRANCH  28  29
ENDBRANCH  26  28
ENDBRANCH   3  26
TORSDOF 10
ENDMDL
