MODEL 1
REMARK VINA RESULT: -6.089589957      0.000      0.000
REMARK  14 active torsions:
REMARK  status: ('A' for Active; 'I' for Inactive)
REMARK       I    between atoms: C2_2  and  N1_4 
REMARK    1  A    between atoms: N1_4  and  C3_6 
REMARK    2  A    between atoms: C4_7  and  O2_8 
REMARK    3  A    between atoms: C5_10  and  C6_11 
REMARK    4  A    between atoms: C6_11  and  N2_12 
REMARK    5  A    between atoms: N2_12  and  C7_14 
REMARK    6  A    between atoms: C8_15  and  O3_16 
REMARK    7  A    between atoms: C9_18  and  N3_19 
REMARK    8  A    between atoms: C11_25  and  C12_26 
REMARK    9  A    between atoms: C12_26  and  N4_27 
REMARK   10  A    between atoms: N4_27  and  N5_29 
REMARK   11  A    between atoms: C15_38  and  O7_39 
REMARK   12  A    between atoms: O7_39  and  C16_40 
REMARK   13  A    between atoms: C21_45  and  N7_46 
REMARK   14  A    between atoms: C22_50  and  O8_51 
ROOT
HETATM    1  C3  UNL     1      27.547  14.455  -5.306  1.00  0.00     0.149 C 
HETATM    2  C4  UNL     1      26.885  13.462  -4.362  1.00  0.00     0.174 C 
HETATM    3  C5  UNL     1      27.569  13.533  -3.043  1.00  0.00     0.172 C 
HETATM    4  O6  UNL     1      28.653  14.391  -3.111  1.00  0.00    -0.349 OA
HETATM    5  C15 UNL     1      28.359  15.701  -3.402  1.00  0.00     0.291 C 
HETATM    6  C22 UNL     1      27.457  15.797  -4.610  1.00  0.00     0.198 C 
ENDROOT
BRANCH   3   7
HETATM    7  C6  UNL     1      26.615  13.898  -1.901  1.00  0.00     0.149 C 
BRANCH   7   8
HETATM    8  N2  UNL     1      27.256  14.213  -0.702  1.00  0.00    -0.410 N 
ATOM      9  H2  UNL     1      28.252  14.434  -0.716  1.00  0.00     0.153 HD
BRANCH   8  10
HETATM   10  C7  UNL     1      26.582  14.234   0.505  1.00  0.00     0.139 C 
HETATM   11  C8  UNL     1      26.113  15.536   1.053  1.00  0.00     0.176 C 
HETATM   12  C9  UNL     1      24.735  15.802   0.500  1.00  0.00     0.245 C 
HETATM   13  C10 UNL     1      24.268  14.473  -0.049  1.00  0.00     0.186 C 
HETATM   14  O4  UNL     1      22.971  14.178   0.232  1.00  0.00    -0.372 OA
HETATM   15  C14 UNL     1      25.275  13.459   0.359  1.00  0.00     0.177 C 
HETATM   16  C11 UNL     1      22.716  13.225   1.167  1.00  0.00     0.165 C 
HETATM   17  C13 UNL     1      23.754  12.170   1.342  1.00  0.00     0.201 C 
HETATM   18  O5  UNL     1      24.979  12.800   1.534  1.00  0.00    -0.379 OA
BRANCH  11  19
HETATM   19  O3  UNL     1      25.962  15.376   2.436  1.00  0.00    -0.391 OA
ATOM     20  H3  UNL     1      25.070  15.621   2.654  1.00  0.00     0.210 HD
ENDBRANCH  11  19
BRANCH  12  21
HETATM   21  N3  UNL     1      24.719  16.852  -0.485  1.00  0.00    -0.070 N 
ATOM     22  H33 UNL     1      24.852  17.764  -0.049  1.00  0.00     0.274 HD
ATOM     23  H32 UNL     1      25.559  16.821  -1.064  1.00  0.00     0.274 HD
ATOM     24  H31 UNL     1      23.878  16.842  -1.062  1.00  0.00     0.274 HD
ENDBRANCH  12  21
BRANCH  16  25
HETATM   25  C12 UNL     1      22.380  13.791   2.539  1.00  0.00     0.174 C 
BRANCH  25  26
HETATM   26  N4  UNL     1      23.499  13.536   3.419  1.00  0.00    -0.320 N 
ATOM     27  H4  UNL     1      23.928  12.611   3.432  1.00  0.00     0.181 HD
BRANCH  26  28
HETATM   28  N5  UNL     1      23.944  14.427   4.157  1.00  0.00    -0.254 N 
HETATM   29  N6  UNL     1      24.509  14.921   5.125  1.00  0.00    -0.331 N 
ATOM     30  H62 UNL     1      24.759  14.055   5.605  1.00  0.00     0.178 HD
ATOM     31  H61 UNL     1      24.875  15.654   5.733  1.00  0.00     0.178 HD
ATOM     32  H5  UNL     1      23.674  15.265   3.641  1.00  0.00     0.207 HD
ENDBRANCH  26  28
ENDBRANCH  25  26
ENDBRANCH  16  25
ENDBRANCH   8  10
ENDBRANCH   7   8
ENDBRANCH   3   7
BRANCH   2  33
HETATM   33  O2  UNL     1      27.025  12.213  -5.003  1.00  0.00    -0.391 OA
ATOM     34  H2  UNL     1      26.202  12.085  -5.461  1.00  0.00     0.210 HD
ENDBRANCH   2  33
BRANCH   1  35
HETATM   35  N1  UNL     1      26.985  14.434  -6.612  1.00  0.00    -0.352 N 
HETATM   36  C2  UNL     1      27.843  14.324  -7.739  1.00  0.00     0.214 C 
HETATM   37  C1  UNL     1      27.359  14.292  -9.146  1.00  0.00     0.117 C 
HETATM   38  O1  UNL     1      29.109  14.243  -7.603  1.00  0.00    -0.274 OA
ATOM     39  H1  UNL     1      25.976  14.498  -6.739  1.00  0.00     0.163 HD
ENDBRANCH   1  35
BRANCH   5  40
HETATM   40  O7  UNL     1      29.483  16.499  -3.511  1.00  0.00    -0.351 OA
BRANCH  40  41
HETATM   41  C16 UNL     1      29.716  17.362  -2.486  1.00  0.00     0.155 C 
HETATM   42  C17 UNL     1      28.537  17.501  -1.558  1.00  0.00     0.034 C 
HETATM   43  C18 UNL     1      28.627  18.622  -0.588  1.00  0.00     0.003 C 
HETATM   44  C19 UNL     1      29.238  19.887  -1.118  1.00  0.00     0.002 C 
HETATM   45  C20 UNL     1      30.454  19.614  -1.978  1.00  0.00     0.035 C 
HETATM   46  C21 UNL     1      29.934  18.744  -3.126  1.00  0.00     0.212 C 
BRANCH  46  47
HETATM   47  N7  UNL     1      28.617  19.215  -3.516  1.00  0.00    -0.073 N 
ATOM     48  H73 UNL     1      28.615  19.744  -4.388  1.00  0.00     0.274 HD
ATOM     49  H72 UNL     1      27.993  18.469  -3.825  1.00  0.00     0.274 HD
ATOM     50  H71 UNL     1      28.260  19.742  -2.719  1.00  0.00     0.274 HD
ENDBRANCH  46  47
ENDBRANCH  40  41
ENDBRANCH   5  40
BRANCH   6  51
HETATM   51  O8  UNL     1      27.803  16.852  -5.446  1.00  0.00    -0.388 OA
ATOM     52  H8  UNL     1      27.984  17.650  -4.965  1.00  0.00     0.210 HD
ENDBRANCH   6  51
TORSDOF 14
ENDMDL
MODEL 2
REMARK VINA RESULT: -6.041723852      4.650      8.555
REMARK  14 active torsions:
REMARK  status: ('A' for Active; 'I' for Inactive)
REMARK       I    between atoms: C2_2  and  N1_4 
REMARK    1  A    between atoms: N1_4  and  C3_6 
REMARK    2  A    between atoms: C4_7  and  O2_8 
REMARK    3  A    between atoms: C5_10  and  C6_11 
REMARK    4  A    between atoms: C6_11  and  N2_12 
REMARK    5  A    between atoms: N2_12  and  C7_14 
REMARK    6  A    between atoms: C8_15  and  O3_16 
REMARK    7  A    between atoms: C9_18  and  N3_19 
REMARK    8  A    between atoms: C11_25  and  C12_26 
REMARK    9  A    between atoms: C12_26  and  N4_27 
REMARK   10  A    between atoms: N4_27  and  N5_29 
REMARK   11  A    between atoms: C15_38  and  O7_39 
REMARK   12  A    between atoms: O7_39  and  C16_40 
REMARK   13  A    between atoms: C21_45  and  N7_46 
REMARK   14  A    between atoms: C22_50  and  O8_51 
ROOT
HETATM    1  C3  UNL     1      30.473  22.223  -0.109  1.00  0.00     0.149 C 
HETATM    2  C4  UNL     1      29.764  21.011  -0.698  1.00  0.00     0.174 C 
HETATM    3  C5  UNL     1      29.484  21.279  -2.135  1.00  0.00     0.172 C 
HETATM    4  O6  UNL     1      29.851  22.572  -2.462  1.00  0.00    -0.349 OA
HETATM    5  C15 UNL     1      31.187  22.864  -2.326  1.00  0.00     0.291 C 
HETATM    6  C22 UNL     1      31.700  22.433  -0.973  1.00  0.00     0.198 C 
ENDROOT
BRANCH   3   7
HETATM    7  C6  UNL     1      30.123  20.244  -3.065  1.00  0.00     0.149 C 
BRANCH   7   8
HETATM    8  N2  UNL     1      29.224  19.314  -3.588  1.00  0.00    -0.410 N 
ATOM      9  H2  UNL     1      28.372  19.649  -4.038  1.00  0.00     0.153 HD
BRANCH   8  10
HETATM   10  C7  UNL     1      29.452  17.953  -3.513  1.00  0.00     0.139 C 
HETATM   11  C8  UNL     1      29.813  17.347  -2.202  1.00  0.00     0.176 C 
HETATM   12  C9  UNL     1      28.534  16.974  -1.495  1.00  0.00     0.245 C 
HETATM   13  C10 UNL     1      27.468  17.012  -2.567  1.00  0.00     0.186 C 
HETATM   14  O4  UNL     1      26.585  15.980  -2.511  1.00  0.00    -0.372 OA
HETATM   15  C14 UNL     1      28.165  17.211  -3.864  1.00  0.00     0.177 C 
HETATM   16  C11 UNL     1      26.677  15.003  -3.453  1.00  0.00     0.165 C 
HETATM   17  C13 UNL     1      27.245  15.401  -4.772  1.00  0.00     0.201 C 
HETATM   18  O5  UNL     1      28.457  16.044  -4.540  1.00  0.00    -0.379 OA
BRANCH  11  19
HETATM   19  O3  UNL     1      30.485  16.146  -2.467  1.00  0.00    -0.391 OA
ATOM     20  H3  UNL     1      29.846  15.446  -2.410  1.00  0.00     0.210 HD
ENDBRANCH  11  19
BRANCH  12  21
HETATM   21  N3  UNL     1      28.238  17.835  -0.380  1.00  0.00    -0.070 N 
ATOM     22  H33 UNL     1      28.956  18.551  -0.272  1.00  0.00     0.274 HD
ATOM     23  H32 UNL     1      27.437  18.433  -0.584  1.00  0.00     0.274 HD
ATOM     24  H31 UNL     1      28.099  17.323   0.491  1.00  0.00     0.274 HD
ENDBRANCH  12  21
BRANCH  16  25
HETATM   25  C12 UNL     1      27.416  13.763  -2.973  1.00  0.00     0.174 C 
BRANCH  25  26
HETATM   26  N4  UNL     1      28.478  13.478  -3.914  1.00  0.00    -0.320 N 
ATOM     27  H4  UNL     1      28.246  13.269  -4.885  1.00  0.00     0.181 HD
BRANCH  26  28
HETATM   28  N5  UNL     1      29.664  13.485  -3.555  1.00  0.00    -0.254 N 
HETATM   29  N6  UNL     1      30.745  13.028  -3.204  1.00  0.00    -0.331 N 
ATOM     30  H62 UNL     1      30.499  12.038  -3.225  1.00  0.00     0.178 HD
ATOM     31  H61 UNL     1      31.722  13.034  -2.908  1.00  0.00     0.178 HD
ATOM     32  H5  UNL     1      29.863  14.485  -3.549  1.00  0.00     0.207 HD
ENDBRANCH  26  28
ENDBRANCH  25  26
ENDBRANCH  16  25
ENDBRANCH   8  10
ENDBRANCH   7   8
ENDBRANCH   3   7
BRANCH   2  33
HETATM   33  O2  UNL     1      28.601  20.863   0.085  1.00  0.00    -0.391 OA
ATOM     34  H2  UNL     1      28.046  20.278  -0.417  1.00  0.00     0.210 HD
ENDBRANCH   2  33
BRANCH   1  35
HETATM   35  N1  UNL     1      30.752  22.079   1.278  1.00  0.00    -0.352 N 
HETATM   36  C2  UNL     1      30.328  23.087   2.183  1.00  0.00     0.214 C 
HETATM   37  C1  UNL     1      30.567  23.034   3.651  1.00  0.00     0.117 C 
HETATM   38  O1  UNL     1      29.700  24.122   1.777  1.00  0.00    -0.274 OA
ATOM     39  H1  UNL     1      31.252  21.258   1.620  1.00  0.00     0.163 HD
ENDBRANCH   1  35
BRANCH   5  40
HETATM   40  O7  UNL     1      31.486  24.183  -2.614  1.00  0.00    -0.351 OA
BRANCH  40  41
HETATM   41  C16 UNL     1      32.130  24.417  -3.790  1.00  0.00     0.155 C 
HETATM   42  C17 UNL     1      32.759  23.177  -4.369  1.00  0.00     0.034 C 
HETATM   43  C18 UNL     1      33.698  23.413  -5.495  1.00  0.00     0.003 C 
HETATM   44  C19 UNL     1      34.568  24.629  -5.365  1.00  0.00     0.002 C 
HETATM   45  C20 UNL     1      33.801  25.824  -4.839  1.00  0.00     0.035 C 
HETATM   46  C21 UNL     1      33.283  25.383  -3.467  1.00  0.00     0.212 C 
BRANCH  46  47
HETATM   47  N7  UNL     1      34.302  24.581  -2.813  1.00  0.00    -0.073 N 
ATOM     48  H73 UNL     1      34.615  24.968  -1.922  1.00  0.00     0.274 HD
ATOM     49  H72 UNL     1      33.951  23.697  -2.446  1.00  0.00     0.274 HD
ATOM     50  H71 UNL     1      35.052  24.471  -3.495  1.00  0.00     0.274 HD
ENDBRANCH  46  47
ENDBRANCH  40  41
ENDBRANCH   5  40
BRANCH   6  51
HETATM   51  O8  UNL     1      32.583  23.354  -0.423  1.00  0.00    -0.388 OA
ATOM     52  H8  UNL     1      33.363  23.467  -0.951  1.00  0.00     0.210 HD
ENDBRANCH   6  51
TORSDOF 14
ENDMDL
MODEL 3
REMARK VINA RESULT: -5.871638175      4.054      7.469
REMARK  14 active torsions:
REMARK  status: ('A' for Active; 'I' for Inactive)
REMARK       I    between atoms: C2_2  and  N1_4 
REMARK    1  A    between atoms: N1_4  and  C3_6 
REMARK    2  A    between atoms: C4_7  and  O2_8 
REMARK    3  A    between atoms: C5_10  and  C6_11 
REMARK    4  A    between atoms: C6_11  and  N2_12 
REMARK    5  A    between atoms: N2_12  and  C7_14 
REMARK    6  A    between atoms: C8_15  and  O3_16 
REMARK    7  A    between atoms: C9_18  and  N3_19 
REMARK    8  A    between atoms: C11_25  and  C12_26 
REMARK    9  A    between atoms: C12_26  and  N4_27 
REMARK   10  A    between atoms: N4_27  and  N5_29 
REMARK   11  A    between atoms: C15_38  and  O7_39 
REMARK   12  A    between atoms: O7_39  and  C16_40 
REMARK   13  A    between atoms: C21_45  and  N7_46 
REMARK   14  A    between atoms: C22_50  and  O8_51 
ROOT
HETATM    1  C3  UNL     1      31.756  22.355  -4.665  1.00  0.00     0.149 C 
HETATM    2  C4  UNL     1      30.967  21.169  -5.201  1.00  0.00     0.174 C 
HETATM    3  C5  UNL     1      30.551  20.319  -4.054  1.00  0.00     0.172 C 
HETATM    4  O6  UNL     1      31.095  20.803  -2.877  1.00  0.00    -0.349 OA
HETATM    5  C15 UNL     1      30.697  22.067  -2.513  1.00  0.00     0.291 C 
HETATM    6  C22 UNL     1      30.840  23.032  -3.666  1.00  0.00     0.198 C 
ENDROOT
BRANCH   3   7
HETATM    7  C6  UNL     1      29.031  20.152  -3.962  1.00  0.00     0.149 C 
BRANCH   7   8
HETATM    8  N2  UNL     1      28.619  19.160  -3.071  1.00  0.00    -0.410 N 
ATOM      9  H2  UNL     1      28.030  19.420  -2.280  1.00  0.00     0.153 HD
BRANCH   8  10
HETATM   10  C7  UNL     1      28.986  17.837  -3.228  1.00  0.00     0.139 C 
HETATM   11  C8  UNL     1      29.422  17.057  -2.037  1.00  0.00     0.176 C 
HETATM   12  C9  UNL     1      28.196  16.440  -1.412  1.00  0.00     0.245 C 
HETATM   13  C10 UNL     1      27.119  16.551  -2.468  1.00  0.00     0.186 C 
HETATM   14  O4  UNL     1      26.347  15.440  -2.594  1.00  0.00    -0.372 OA
HETATM   15  C14 UNL     1      27.778  17.038  -3.708  1.00  0.00     0.177 C 
HETATM   16  C11 UNL     1      26.527  14.652  -3.688  1.00  0.00     0.165 C 
HETATM   17  C13 UNL     1      27.037  15.325  -4.916  1.00  0.00     0.201 C 
HETATM   18  O5  UNL     1      28.179  16.040  -4.571  1.00  0.00    -0.379 OA
BRANCH  11  19
HETATM   19  O3  UNL     1      30.210  15.995  -2.499  1.00  0.00    -0.391 OA
ATOM     20  H3  UNL     1      29.672  15.479  -3.089  1.00  0.00     0.210 HD
ENDBRANCH  11  19
BRANCH  12  21
HETATM   21  N3  UNL     1      27.827  17.064  -0.168  1.00  0.00    -0.070 N 
ATOM     22  H33 UNL     1      28.468  17.822   0.064  1.00  0.00     0.274 HD
ATOM     23  H32 UNL     1      26.965  17.602  -0.271  1.00  0.00     0.274 HD
ATOM     24  H31 UNL     1      27.752  16.400   0.602  1.00  0.00     0.274 HD
ENDBRANCH  12  21
BRANCH  16  25
HETATM   25  C12 UNL     1      27.395  13.430  -3.423  1.00  0.00     0.174 C 
BRANCH  25  26
HETATM   26  N4  UNL     1      28.620  13.574  -4.177  1.00  0.00    -0.320 N 
ATOM     27  H4  UNL     1      28.575  13.756  -5.180  1.00  0.00     0.181 HD
BRANCH  26  28
HETATM   28  N5  UNL     1      29.725  13.479  -3.622  1.00  0.00    -0.254 N 
HETATM   29  N6  UNL     1      30.762  12.949  -3.245  1.00  0.00    -0.331 N 
ATOM     30  H62 UNL     1      30.601  12.020  -3.634  1.00  0.00     0.178 HD
ATOM     31  H61 UNL     1      31.671  12.870  -2.788  1.00  0.00     0.178 HD
ATOM     32  H5  UNL     1      29.841  14.422  -3.252  1.00  0.00     0.207 HD
ENDBRANCH  26  28
ENDBRANCH  25  26
ENDBRANCH  16  25
ENDBRANCH   8  10
ENDBRANCH   7   8
ENDBRANCH   3   7
BRANCH   2  33
HETATM   33  O2  UNL     1      31.853  20.524  -6.089  1.00  0.00    -0.391 OA
ATOM     34  H2  UNL     1      31.540  19.628  -6.132  1.00  0.00     0.210 HD
ENDBRANCH   2  33
BRANCH   1  35
HETATM   35  N1  UNL     1      32.234  23.212  -5.695  1.00  0.00    -0.352 N 
HETATM   36  C2  UNL     1      33.510  23.819  -5.561  1.00  0.00     0.214 C 
HETATM   37  C1  UNL     1      34.103  24.729  -6.578  1.00  0.00     0.117 C 
HETATM   38  O1  UNL     1      34.240  23.611  -4.534  1.00  0.00    -0.274 OA
ATOM     39  H1  UNL     1      31.665  23.388  -6.522  1.00  0.00     0.163 HD
ENDBRANCH   1  35
BRANCH   5  40
HETATM   40  O7  UNL     1      31.313  22.519  -1.360  1.00  0.00    -0.351 OA
BRANCH  40  41
HETATM   41  C16 UNL     1      30.821  22.045  -0.183  1.00  0.00     0.155 C 
HETATM   42  C17 UNL     1      29.405  21.546  -0.300  1.00  0.00     0.034 C 
HETATM   43  C18 UNL     1      28.724  21.275   0.992  1.00  0.00     0.003 C 
HETATM   44  C19 UNL     1      29.021  22.248   2.095  1.00  0.00     0.002 C 
HETATM   45  C20 UNL     1      30.489  22.616   2.149  1.00  0.00     0.035 C 
HETATM   46  C21 UNL     1      30.785  23.242   0.783  1.00  0.00     0.212 C 
BRANCH  46  47
HETATM   47  N7  UNL     1      29.648  24.048   0.376  1.00  0.00    -0.073 N 
ATOM     48  H73 UNL     1      29.602  24.210  -0.630  1.00  0.00     0.274 HD
ATOM     49  H72 UNL     1      28.754  23.564   0.463  1.00  0.00     0.274 HD
ATOM     50  H71 UNL     1      29.703  24.906   0.925  1.00  0.00     0.274 HD
ENDBRANCH  46  47
ENDBRANCH  40  41
ENDBRANCH   5  40
BRANCH   6  51
HETATM   51  O8  UNL     1      31.321  24.271  -3.263  1.00  0.00    -0.388 OA
ATOM     52  H8  UNL     1      30.623  24.893  -3.095  1.00  0.00     0.210 HD
ENDBRANCH   6  51
TORSDOF 14
ENDMDL
MODEL 4
REMARK VINA RESULT: -5.788146173      2.466      8.972
REMARK  14 active torsions:
REMARK  status: ('A' for Active; 'I' for Inactive)
REMARK       I    between atoms: C2_2  and  N1_4 
REMARK    1  A    between atoms: N1_4  and  C3_6 
REMARK    2  A    between atoms: C4_7  and  O2_8 
REMARK    3  A    between atoms: C5_10  and  C6_11 
REMARK    4  A    between atoms: C6_11  and  N2_12 
REMARK    5  A    between atoms: N2_12  and  C7_14 
REMARK    6  A    between atoms: C8_15  and  O3_16 
REMARK    7  A    between atoms: C9_18  and  N3_19 
REMARK    8  A    between atoms: C11_25  and  C12_26 
REMARK    9  A    between atoms: C12_26  and  N4_27 
REMARK   10  A    between atoms: N4_27  and  N5_29 
REMARK   11  A    between atoms: C15_38  and  O7_39 
REMARK   12  A    between atoms: O7_39  and  C16_40 
REMARK   13  A    between atoms: C21_45  and  N7_46 
REMARK   14  A    between atoms: C22_50  and  O8_51 
ROOT
HETATM    1  C3  UNL     1      25.007  15.792   2.825  1.00  0.00     0.149 C 
HETATM    2  C4  UNL     1      25.341  16.104   1.374  1.00  0.00     0.174 C 
HETATM    3  C5  UNL     1      25.135  14.872   0.565  1.00  0.00     0.172 C 
HETATM    4  O6  UNL     1      24.811  13.808   1.388  1.00  0.00    -0.349 OA
HETATM    5  C15 UNL     1      23.642  13.937   2.097  1.00  0.00     0.291 C 
HETATM    6  C22 UNL     1      23.586  15.268   2.809  1.00  0.00     0.198 C 
ENDROOT
BRANCH   3   7
HETATM    7  C6  UNL     1      24.111  15.066  -0.558  1.00  0.00     0.149 C 
BRANCH   7   8
HETATM    8  N2  UNL     1      24.591  14.745  -1.828  1.00  0.00    -0.410 N 
ATOM      9  H2  UNL     1      23.944  14.745  -2.616  1.00  0.00     0.153 HD
BRANCH   8  10
HETATM   10  C7  UNL     1      25.918  14.426  -2.050  1.00  0.00     0.139 C 
HETATM   11  C8  UNL     1      26.315  13.836  -3.358  1.00  0.00     0.176 C 
HETATM   12  C9  UNL     1      26.631  14.969  -4.302  1.00  0.00     0.245 C 
HETATM   13  C10 UNL     1      26.788  16.185  -3.417  1.00  0.00     0.186 C 
HETATM   14  O4  UNL     1      27.834  16.986  -3.751  1.00  0.00    -0.372 OA
HETATM   15  C14 UNL     1      26.751  15.705  -2.011  1.00  0.00     0.177 C 
HETATM   16  C11 UNL     1      28.932  16.978  -2.949  1.00  0.00     0.165 C 
HETATM   17  C13 UNL     1      28.706  16.640  -1.515  1.00  0.00     0.201 C 
HETATM   18  O5  UNL     1      27.990  15.448  -1.463  1.00  0.00    -0.379 OA
BRANCH  11  19
HETATM   19  O3  UNL     1      27.514  13.141  -3.155  1.00  0.00    -0.391 OA
ATOM     20  H3  UNL     1      28.220  13.702  -3.453  1.00  0.00     0.210 HD
ENDBRANCH  11  19
BRANCH  12  21
HETATM   21  N3  UNL     1      25.630  15.144  -5.322  1.00  0.00    -0.070 N 
ATOM     22  H33 UNL     1      25.166  14.261  -5.533  1.00  0.00     0.274 HD
ATOM     23  H32 UNL     1      24.832  15.670  -4.964  1.00  0.00     0.274 HD
ATOM     24  H31 UNL     1      25.999  15.574  -6.171  1.00  0.00     0.274 HD
ENDBRANCH  12  21
BRANCH  16  25
HETATM   25  C12 UNL     1      30.061  16.101  -3.470  1.00  0.00     0.174 C 
BRANCH  25  26
HETATM   26  N4  UNL     1      30.111  14.902  -2.663  1.00  0.00    -0.320 N 
ATOM     27  H4  UNL     1      30.019  14.974  -1.649  1.00  0.00     0.181 HD
BRANCH  26  28
HETATM   28  N5  UNL     1      30.263  13.789  -3.186  1.00  0.00    -0.254 N 
HETATM   29  N6  UNL     1      30.813  12.728  -3.455  1.00  0.00    -0.331 N 
ATOM     30  H62 UNL     1      31.660  12.858  -2.901  1.00  0.00     0.178 HD
ATOM     31  H61 UNL     1      30.939  11.812  -3.886  1.00  0.00     0.178 HD
ATOM     32  H5  UNL     1      29.400  13.704  -3.724  1.00  0.00     0.207 HD
ENDBRANCH  26  28
ENDBRANCH  25  26
ENDBRANCH  16  25
ENDBRANCH   8  10
ENDBRANCH   7   8
ENDBRANCH   3   7
BRANCH   2  33
HETATM   33  O2  UNL     1      26.682  16.541   1.403  1.00  0.00    -0.391 OA
ATOM     34  H2  UNL     1      26.626  17.489   1.386  1.00  0.00     0.210 HD
ENDBRANCH   2  33
BRANCH   1  35
HETATM   35  N1  UNL     1      25.211  16.903   3.689  1.00  0.00    -0.352 N 
HETATM   36  C2  UNL     1      26.159  16.803   4.741  1.00  0.00     0.214 C 
HETATM   37  C1  UNL     1      26.449  17.905   5.700  1.00  0.00     0.117 C 
HETATM   38  O1  UNL     1      26.833  15.736   4.928  1.00  0.00    -0.274 OA
ATOM     39  H1  UNL     1      24.681  17.764   3.555  1.00  0.00     0.163 HD
ENDBRANCH   1  35
BRANCH   5  40
HETATM   40  O7  UNL     1      23.397  12.870   2.942  1.00  0.00    -0.351 OA
BRANCH  40  41
HETATM   41  C16 UNL     1      23.562  11.627   2.413  1.00  0.00     0.155 C 
HETATM   42  C17 UNL     1      22.608  11.340   1.284  1.00  0.00     0.034 C 
HETATM   43  C18 UNL     1      22.551   9.920   0.852  1.00  0.00     0.003 C 
HETATM   44  C19 UNL     1      22.635   8.906   1.955  1.00  0.00     0.002 C 
HETATM   45  C20 UNL     1      23.678   9.276   2.989  1.00  0.00     0.035 C 
HETATM   46  C21 UNL     1      23.223  10.631   3.536  1.00  0.00     0.212 C 
BRANCH  46  47
HETATM   47  N7  UNL     1      21.775  10.634   3.647  1.00  0.00    -0.073 N 
ATOM     48  H73 UNL     1      21.344  11.503   3.332  1.00  0.00     0.274 HD
ATOM     49  H72 UNL     1      21.314  10.019   2.977  1.00  0.00     0.274 HD
ATOM     50  H71 UNL     1      21.569  10.407   4.620  1.00  0.00     0.274 HD
ENDBRANCH  46  47
ENDBRANCH  40  41
ENDBRANCH   5  40
BRANCH   6  51
HETATM   51  O8  UNL     1      23.046  15.163   4.085  1.00  0.00    -0.388 OA
ATOM     52  H8  UNL     1      22.349  14.519   4.132  1.00  0.00     0.210 HD
ENDBRANCH   6  51
TORSDOF 14
ENDMDL
MODEL 5
REMARK VINA RESULT: -5.751036550      2.517      9.150
REMARK  14 active torsions:
REMARK  status: ('A' for Active; 'I' for Inactive)
REMARK       I    between atoms: C2_2  and  N1_4 
REMARK    1  A    between atoms: N1_4  and  C3_6 
REMARK    2  A    between atoms: C4_7  and  O2_8 
REMARK    3  A    between atoms: C5_10  and  C6_11 
REMARK    4  A    between atoms: C6_11  and  N2_12 
REMARK    5  A    between atoms: N2_12  and  C7_14 
REMARK    6  A    between atoms: C8_15  and  O3_16 
REMARK    7  A    between atoms: C9_18  and  N3_19 
REMARK    8  A    between atoms: C11_25  and  C12_26 
REMARK    9  A    between atoms: C12_26  and  N4_27 
REMARK   10  A    between atoms: N4_27  and  N5_29 
REMARK   11  A    between atoms: C15_38  and  O7_39 
REMARK   12  A    between atoms: O7_39  and  C16_40 
REMARK   13  A    between atoms: C21_45  and  N7_46 
REMARK   14  A    between atoms: C22_50  and  O8_51 
ROOT
HETATM    1  C3  UNL     1      24.363  15.889   3.863  1.00  0.00     0.149 C 
HETATM    2  C4  UNL     1      25.646  16.364   3.197  1.00  0.00     0.174 C 
HETATM    3  C5  UNL     1      25.823  15.616   1.923  1.00  0.00     0.172 C 
HETATM    4  O6  UNL     1      24.838  14.654   1.791  1.00  0.00    -0.349 OA
HETATM    5  C15 UNL     1      23.550  15.127   1.720  1.00  0.00     0.291 C 
HETATM    6  C22 UNL     1      23.270  16.105   2.836  1.00  0.00     0.198 C 
ENDROOT
BRANCH   3   7
HETATM    7  C6  UNL     1      25.899  16.537   0.702  1.00  0.00     0.149 C 
BRANCH   7   8
HETATM    8  N2  UNL     1      27.188  16.706   0.194  1.00  0.00    -0.410 N 
ATOM      9  H2  UNL     1      27.725  17.527   0.473  1.00  0.00     0.153 HD
BRANCH   8  10
HETATM   10  C7  UNL     1      27.758  15.794  -0.674  1.00  0.00     0.139 C 
HETATM   11  C8  UNL     1      26.997  14.570  -1.046  1.00  0.00     0.176 C 
HETATM   12  C9  UNL     1      26.152  14.897  -2.251  1.00  0.00     0.245 C 
HETATM   13  C10 UNL     1      26.725  16.186  -2.795  1.00  0.00     0.186 C 
HETATM   14  O4  UNL     1      26.833  16.220  -4.150  1.00  0.00    -0.372 OA
HETATM   15  C14 UNL     1      27.969  16.462  -2.030  1.00  0.00     0.177 C 
HETATM   16  C11 UNL     1      28.072  16.113  -4.700  1.00  0.00     0.165 C 
HETATM   17  C13 UNL     1      29.212  16.594  -3.869  1.00  0.00     0.201 C 
HETATM   18  O5  UNL     1      29.121  15.986  -2.622  1.00  0.00    -0.379 OA
BRANCH  11  19
HETATM   19  O3  UNL     1      27.927  13.609  -1.461  1.00  0.00    -0.391 OA
ATOM     20  H3  UNL     1      28.511  13.445  -0.730  1.00  0.00     0.210 HD
ENDBRANCH  11  19
BRANCH  12  21
HETATM   21  N3  UNL     1      24.749  14.995  -1.943  1.00  0.00    -0.070 N 
ATOM     22  H33 UNL     1      24.191  15.058  -2.794  1.00  0.00     0.274 HD
ATOM     23  H32 UNL     1      24.393  14.111  -1.577  1.00  0.00     0.274 HD
ATOM     24  H31 UNL     1      24.534  15.765  -1.308  1.00  0.00     0.274 HD
ENDBRANCH  12  21
BRANCH  16  25
HETATM   25  C12 UNL     1      28.402  14.712  -5.192  1.00  0.00     0.174 C 
BRANCH  25  26
HETATM   26  N4  UNL     1      29.771  14.417  -4.828  1.00  0.00    -0.320 N 
ATOM     27  H4  UNL     1      30.534  14.856  -5.342  1.00  0.00     0.181 HD
BRANCH  26  28
HETATM   28  N5  UNL     1      30.028  13.636  -3.900  1.00  0.00    -0.254 N 
HETATM   29  N6  UNL     1      30.605  13.202  -2.911  1.00  0.00    -0.331 N 
ATOM     30  H62 UNL     1      31.283  13.955  -2.795  1.00  0.00     0.178 HD
ATOM     31  H61 UNL     1      30.817  12.560  -2.147  1.00  0.00     0.178 HD
ATOM     32  H5  UNL     1      29.331  12.908  -4.055  1.00  0.00     0.207 HD
ENDBRANCH  26  28
ENDBRANCH  25  26
ENDBRANCH  16  25
ENDBRANCH   8  10
ENDBRANCH   7   8
ENDBRANCH   3   7
BRANCH   2  33
HETATM   33  O2  UNL     1      26.656  16.107   4.147  1.00  0.00    -0.391 OA
ATOM     34  H2  UNL     1      27.466  16.135   3.650  1.00  0.00     0.210 HD
ENDBRANCH   2  33
BRANCH   1  35
HETATM   35  N1  UNL     1      24.123  16.521   5.114  1.00  0.00    -0.352 N 
HETATM   36  C2  UNL     1      24.373  15.807   6.316  1.00  0.00     0.214 C 
HETATM   37  C1  UNL     1      24.157  16.375   7.675  1.00  0.00     0.117 C 
HETATM   38  O1  UNL     1      24.808  14.607   6.297  1.00  0.00    -0.274 OA
ATOM     39  H1  UNL     1      23.775  17.479   5.148  1.00  0.00     0.163 HD
ENDBRANCH   1  35
BRANCH   5  40
HETATM   40  O7  UNL     1      22.604  14.120   1.643  1.00  0.00    -0.351 OA
BRANCH  40  41
HETATM   41  C16 UNL     1      23.078  12.850   1.525  1.00  0.00     0.155 C 
HETATM   42  C17 UNL     1      22.275  12.014   0.562  1.00  0.00     0.034 C 
HETATM   43  C18 UNL     1      22.568  10.559   0.595  1.00  0.00     0.003 C 
HETATM   44  C19 UNL     1      22.823   9.983   1.957  1.00  0.00     0.002 C 
HETATM   45  C20 UNL     1      23.698  10.886   2.802  1.00  0.00     0.035 C 
HETATM   46  C21 UNL     1      22.916  12.198   2.909  1.00  0.00     0.212 C 
BRANCH  46  47
HETATM   47  N7  UNL     1      21.502  11.896   3.044  1.00  0.00    -0.073 N 
ATOM     48  H73 UNL     1      21.009  12.527   3.676  1.00  0.00     0.274 HD
ATOM     49  H72 UNL     1      20.958  12.111   2.208  1.00  0.00     0.274 HD
ATOM     50  H71 UNL     1      21.450  10.917   3.325  1.00  0.00     0.274 HD
ENDBRANCH  46  47
ENDBRANCH  40  41
ENDBRANCH   5  40
BRANCH   6  51
HETATM   51  O8  UNL     1      21.999  15.945   3.374  1.00  0.00    -0.388 OA
ATOM     52  H8  UNL     1      21.955  15.223   3.989  1.00  0.00     0.210 HD
ENDBRANCH   6  51
TORSDOF 14
ENDMDL
