MODEL 1
REMARK VINA RESULT: -4.920410093      0.000      0.000
REMARK  16 active torsions:
REMARK  status: ('A' for Active; 'I' for Inactive)
REMARK    1  A    between atoms: C2_2  and  C3_4 
REMARK    2  A    between atoms: C3_4  and  C4_5 
REMARK    3  A    between atoms: C4_5  and  O3_7 
REMARK    4  A    between atoms: O3_7  and  C5_8 
REMARK    5  A    between atoms: C6_9  and  O4_10 
REMARK    6  A    between atoms: O4_10  and  C7_11 
REMARK    7  A    between atoms: C12_18  and  O7_19 
REMARK    8  A    between atoms: C16_24  and  O8_26 
REMARK    9  A    between atoms: C18_28  and  O9_29 
REMARK   10  A    between atoms: C18_28  and  C19_31 
REMARK   11  A    between atoms: C19_31  and  O10_32 
REMARK   12  A    between atoms: C19_31  and  C20_34 
REMARK   13  A    between atoms: C20_34  and  O11_35 
REMARK   14  A    between atoms: C23_39  and  O12_40 
REMARK   15  A    between atoms: C24_42  and  C25_43 
REMARK   16  A    between atoms: C25_43  and  O13_44 
ROOT
HETATM    1  C5  UNL     1      26.120  16.971   0.024  1.00  0.00     0.179 C 
HETATM    2  C6  UNL     1      25.928  15.815   0.965  1.00  0.00     0.161 C 
HETATM    3  C11 UNL     1      26.227  14.451   0.542  1.00  0.00     0.067 C 
HETATM    4  C12 UNL     1      26.526  14.202  -0.912  1.00  0.00     0.134 C 
HETATM    5  C13 UNL     1      26.060  15.346  -1.774  1.00  0.00     0.041 C 
HETATM    6  C14 UNL     1      26.006  15.342  -3.198  1.00  0.00     0.041 C 
HETATM    7  C15 UNL     1      24.864  14.360  -3.125  1.00  0.00     0.047 C 
HETATM    8  C16 UNL     1      24.588  15.185  -1.831  1.00  0.00     0.066 C 
HETATM    9  C17 UNL     1      23.541  16.125  -2.136  1.00  0.00     0.047 C 
HETATM   10  C18 UNL     1      27.005  15.246  -4.216  1.00  0.00     0.093 C 
HETATM   11  C21 UNL     1      27.796  16.536  -4.244  1.00  0.00     0.070 C 
HETATM   12  C22 UNL     1      27.188  17.686  -3.574  1.00  0.00     0.009 C 
HETATM   13  C23 UNL     1      26.708  17.756  -2.226  1.00  0.00     0.054 C 
HETATM   14  C24 UNL     1      26.729  16.575  -1.291  1.00  0.00     0.071 C 
ENDROOT
BRANCH  10  15
HETATM   15  O9  UNL     1      26.202  15.227  -5.414  1.00  0.00    -0.386 OA
ATOM     16  H9  UNL     1      26.861  15.103  -6.087  1.00  0.00     0.210 HD
ENDBRANCH  10  15
BRANCH  10  17
HETATM   17  C19 UNL     1      27.887  14.079  -4.409  1.00  0.00     0.176 C 
BRANCH  17  18
HETATM   18  O10 UNL     1      27.966  13.646  -5.709  1.00  0.00    -0.390 OA
ATOM     19  H10 UNL     1      27.810  12.715  -5.816  1.00  0.00     0.210 HD
ENDBRANCH  17  18
BRANCH  17  20
HETATM   20  C20 UNL     1      29.326  14.502  -4.047  1.00  0.00     0.198 C 
BRANCH  20  21
HETATM   21  O11 UNL     1      30.008  13.511  -3.360  1.00  0.00    -0.398 OA
ATOM     22  H11 UNL     1      30.422  13.840  -2.571  1.00  0.00     0.209 HD
ENDBRANCH  20  21
ENDBRANCH  17  20
ENDBRANCH  10  17
BRANCH   4  23
HETATM   23  O7  UNL     1      27.772  13.711  -1.091  1.00  0.00    -0.395 OA
ATOM     24  H7  UNL     1      28.336  14.336  -1.531  1.00  0.00     0.210 HD
ENDBRANCH   4  23
BRANCH   8  25
HETATM   25  O8  UNL     1      24.032  14.204  -0.947  1.00  0.00    -0.389 OA
ATOM     26  H8  UNL     1      23.398  13.610  -1.332  1.00  0.00     0.210 HD
ENDBRANCH   8  25
BRANCH  14  27
HETATM   27  C25 UNL     1      28.192  16.389  -0.972  1.00  0.00     0.184 C 
BRANCH  27  28
HETATM   28  O13 UNL     1      28.926  17.597  -1.125  1.00  0.00    -0.400 OA
ATOM     29  H13 UNL     1      29.862  17.456  -1.037  1.00  0.00     0.209 HD
ENDBRANCH  27  28
ENDBRANCH  14  27
BRANCH  13  30
HETATM   30  O12 UNL     1      25.485  18.459  -2.210  1.00  0.00    -0.364 OA
ATOM     31  H12 UNL     1      25.066  18.368  -3.058  1.00  0.00     0.217 HD
ENDBRANCH  13  30
BRANCH   1  32
HETATM   32  O3  UNL     1      26.915  17.968   0.629  1.00  0.00    -0.312 OA
BRANCH  32  33
HETATM   33  C4  UNL     1      26.563  19.263   0.898  1.00  0.00     0.266 C 
HETATM   34  O2  UNL     1      25.442  19.678   0.538  1.00  0.00    -0.265 OA
BRANCH  33  35
HETATM   35  C3  UNL     1      27.461  20.199   1.606  1.00  0.00     0.188 C 
BRANCH  35  36
HETATM   36  C2  UNL     1      28.492  20.764   0.700  1.00  0.00     0.132 C 
HETATM   37  C1  UNL     1      29.419  21.846   1.185  1.00  0.00     0.091 C 
HETATM   38  O1  UNL     1      28.676  20.425  -0.456  1.00  0.00    -0.298 OA
ENDBRANCH  35  36
ENDBRANCH  33  35
ENDBRANCH  32  33
ENDBRANCH   1  32
BRANCH   2  39
HETATM   39  O4  UNL     1      26.614  16.136   2.148  1.00  0.00    -0.322 OA
BRANCH  39  40
HETATM   40  C7  UNL     1      25.818  16.372   3.216  1.00  0.00     0.319 A 
HETATM   41  O5  UNL     1      24.440  16.404   3.023  1.00  0.00    -0.327 OA
HETATM   42  C8  UNL     1      24.299  16.210   4.396  1.00  0.00     0.220 C 
HETATM   43  C9  UNL     1      25.799  16.510   4.510  1.00  0.00     0.168 A 
HETATM   44  C10 UNL     1      26.438  15.952   5.720  1.00  0.00     0.057 C 
HETATM   45  O6  UNL     1      26.249  17.638   3.875  1.00  0.00    -0.309 OA
ENDBRANCH  39  40
ENDBRANCH   2  39
TORSDOF 16
ENDMDL
MODEL 2
REMARK VINA RESULT: -4.868321934      2.652      6.773
REMARK  16 active torsions:
REMARK  status: ('A' for Active; 'I' for Inactive)
REMARK    1  A    between atoms: C2_2  and  C3_4 
REMARK    2  A    between atoms: C3_4  and  C4_5 
REMARK    3  A    between atoms: C4_5  and  O3_7 
REMARK    4  A    between atoms: O3_7  and  C5_8 
REMARK    5  A    between atoms: C6_9  and  O4_10 
REMARK    6  A    between atoms: O4_10  and  C7_11 
REMARK    7  A    between atoms: C12_18  and  O7_19 
REMARK    8  A    between atoms: C16_24  and  O8_26 
REMARK    9  A    between atoms: C18_28  and  O9_29 
REMARK   10  A    between atoms: C18_28  and  C19_31 
REMARK   11  A    between atoms: C19_31  and  O10_32 
REMARK   12  A    between atoms: C19_31  and  C20_34 
REMARK   13  A    between atoms: C20_34  and  O11_35 
REMARK   14  A    between atoms: C23_39  and  O12_40 
REMARK   15  A    between atoms: C24_42  and  C25_43 
REMARK   16  A    between atoms: C25_43  and  O13_44 
ROOT
HETATM    1  C5  UNL     1      25.998  15.666  -3.003  1.00  0.00     0.179 C 
HETATM    2  C6  UNL     1      26.408  15.113  -4.338  1.00  0.00     0.161 C 
HETATM    3  C11 UNL     1      27.643  15.552  -4.982  1.00  0.00     0.067 C 
HETATM    4  C12 UNL     1      28.383  16.720  -4.386  1.00  0.00     0.134 C 
HETATM    5  C13 UNL     1      27.504  17.512  -3.453  1.00  0.00     0.041 C 
HETATM    6  C14 UNL     1      27.827  18.780  -2.889  1.00  0.00     0.041 C 
HETATM    7  C15 UNL     1      27.678  19.397  -4.256  1.00  0.00     0.047 C 
HETATM    8  C16 UNL     1      26.606  18.270  -4.355  1.00  0.00     0.066 C 
HETATM    9  C17 UNL     1      25.322  18.879  -4.125  1.00  0.00     0.047 C 
HETATM   10  C18 UNL     1      28.841  19.218  -1.981  1.00  0.00     0.093 C 
HETATM   11  C21 UNL     1      28.527  18.676  -0.603  1.00  0.00     0.070 C 
HETATM   12  C22 UNL     1      27.161  18.198  -0.388  1.00  0.00     0.009 C 
HETATM   13  C23 UNL     1      26.442  17.235  -1.168  1.00  0.00     0.054 C 
HETATM   14  C24 UNL     1      27.018  16.591  -2.402  1.00  0.00     0.071 C 
ENDROOT
BRANCH  10  15
HETATM   15  O9  UNL     1      28.597  20.638  -1.933  1.00  0.00    -0.386 OA
ATOM     16  H9  UNL     1      29.156  20.906  -1.213  1.00  0.00     0.210 HD
ENDBRANCH  10  15
BRANCH  10  17
HETATM   17  C19 UNL     1      30.289  19.155  -2.257  1.00  0.00     0.176 C 
BRANCH  17  18
HETATM   18  O10 UNL     1      30.602  19.104  -3.592  1.00  0.00    -0.390 OA
ATOM     19  H10 UNL     1      30.116  19.719  -4.127  1.00  0.00     0.210 HD
ENDBRANCH  17  18
BRANCH  17  20
HETATM   20  C20 UNL     1      30.930  20.464  -1.752  1.00  0.00     0.198 C 
BRANCH  20  21
HETATM   21  O11 UNL     1      31.260  21.322  -2.789  1.00  0.00    -0.398 OA
ATOM     22  H11 UNL     1      32.188  21.305  -2.989  1.00  0.00     0.209 HD
ENDBRANCH  20  21
ENDBRANCH  17  20
ENDBRANCH  10  17
BRANCH   4  23
HETATM   23  O7  UNL     1      29.624  16.372  -3.980  1.00  0.00    -0.395 OA
ATOM     24  H7  UNL     1      30.177  17.133  -3.845  1.00  0.00     0.210 HD
ENDBRANCH   4  23
BRANCH   8  25
HETATM   25  O8  UNL     1      26.659  17.908  -5.741  1.00  0.00    -0.389 OA
ATOM     26  H8  UNL     1      27.306  18.366  -6.265  1.00  0.00     0.210 HD
ENDBRANCH   8  25
BRANCH  14  27
HETATM   27  C25 UNL     1      28.079  15.661  -1.865  1.00  0.00     0.184 C 
BRANCH  27  28
HETATM   28  O13 UNL     1      27.801  15.251  -0.533  1.00  0.00    -0.400 OA
ATOM     29  H13 UNL     1      28.523  14.762  -0.155  1.00  0.00     0.209 HD
ENDBRANCH  27  28
ENDBRANCH  14  27
BRANCH  13  30
HETATM   30  O12 UNL     1      25.115  17.682  -1.340  1.00  0.00    -0.364 OA
ATOM     31  H12 UNL     1      25.094  18.329  -2.035  1.00  0.00     0.217 HD
ENDBRANCH  13  30
BRANCH   1  32
HETATM   32  O3  UNL     1      25.726  14.616  -2.101  1.00  0.00    -0.312 OA
BRANCH  32  33
HETATM   33  C4  UNL     1      24.520  14.295  -1.538  1.00  0.00     0.266 C 
HETATM   34  O2  UNL     1      23.601  13.869  -2.267  1.00  0.00    -0.265 OA
BRANCH  33  35
HETATM   35  C3  UNL     1      24.258  14.431  -0.090  1.00  0.00     0.188 C 
BRANCH  35  36
HETATM   36  C2  UNL     1      24.889  13.337   0.690  1.00  0.00     0.132 C 
HETATM   37  C1  UNL     1      24.046  12.245   1.289  1.00  0.00     0.091 C 
HETATM   38  O1  UNL     1      26.084  13.226   0.906  1.00  0.00    -0.298 OA
ENDBRANCH  35  36
ENDBRANCH  33  35
ENDBRANCH  32  33
ENDBRANCH   1  32
BRANCH   2  39
HETATM   39  O4  UNL     1      26.370  13.713  -4.227  1.00  0.00    -0.322 OA
BRANCH  39  40
HETATM   40  C7  UNL     1      25.903  13.071  -5.321  1.00  0.00     0.319 A 
HETATM   41  O5  UNL     1      24.536  12.822  -5.411  1.00  0.00    -0.327 OA
HETATM   42  C8  UNL     1      24.717  12.639  -6.781  1.00  0.00     0.220 C 
HETATM   43  C9  UNL     1      26.224  12.616  -6.498  1.00  0.00     0.168 A 
HETATM   44  C10 UNL     1      27.065  12.970  -7.660  1.00  0.00     0.057 C 
HETATM   45  O6  UNL     1      26.645  11.790  -5.489  1.00  0.00    -0.309 OA
ENDBRANCH  39  40
ENDBRANCH   2  39
TORSDOF 16
ENDMDL
MODEL 3
REMARK VINA RESULT: -4.757190732      1.786      4.900
REMARK  16 active torsions:
REMARK  status: ('A' for Active; 'I' for Inactive)
REMARK    1  A    between atoms: C2_2  and  C3_4 
REMARK    2  A    between atoms: C3_4  and  C4_5 
REMARK    3  A    between atoms: C4_5  and  O3_7 
REMARK    4  A    between atoms: O3_7  and  C5_8 
REMARK    5  A    between atoms: C6_9  and  O4_10 
REMARK    6  A    between atoms: O4_10  and  C7_11 
REMARK    7  A    between atoms: C12_18  and  O7_19 
REMARK    8  A    between atoms: C16_24  and  O8_26 
REMARK    9  A    between atoms: C18_28  and  O9_29 
REMARK   10  A    between atoms: C18_28  and  C19_31 
REMARK   11  A    between atoms: C19_31  and  O10_32 
REMARK   12  A    between atoms: C19_31  and  C20_34 
REMARK   13  A    between atoms: C20_34  and  O11_35 
REMARK   14  A    between atoms: C23_39  and  O12_40 
REMARK   15  A    between atoms: C24_42  and  C25_43 
REMARK   16  A    between atoms: C25_43  and  O13_44 
ROOT
HETATM    1  C5  UNL     1      27.582  15.915  -0.973  1.00  0.00     0.179 C 
HETATM    2  C6  UNL     1      28.476  17.116  -0.849  1.00  0.00     0.161 C 
HETATM    3  C11 UNL     1      28.917  17.845  -2.034  1.00  0.00     0.067 C 
HETATM    4  C12 UNL     1      28.636  17.248  -3.387  1.00  0.00     0.134 C 
HETATM    5  C13 UNL     1      28.305  15.782  -3.284  1.00  0.00     0.041 C 
HETATM    6  C14 UNL     1      28.190  14.881  -4.382  1.00  0.00     0.041 C 
HETATM    7  C15 UNL     1      29.681  14.977  -4.583  1.00  0.00     0.047 C 
HETATM    8  C16 UNL     1      29.612  15.130  -3.034  1.00  0.00     0.066 C 
HETATM    9  C17 UNL     1      29.941  13.851  -2.461  1.00  0.00     0.047 C 
HETATM   10  C18 UNL     1      27.292  14.799  -5.492  1.00  0.00     0.093 C 
HETATM   11  C21 UNL     1      25.931  14.369  -4.986  1.00  0.00     0.070 C 
HETATM   12  C22 UNL     1      25.893  13.774  -3.650  1.00  0.00     0.009 C 
HETATM   13  C23 UNL     1      26.410  14.328  -2.434  1.00  0.00     0.054 C 
HETATM   14  C24 UNL     1      27.139  15.645  -2.384  1.00  0.00     0.071 C 
ENDROOT
BRANCH  10  15
HETATM   15  O9  UNL     1      27.834  13.681  -6.224  1.00  0.00    -0.386 OA
ATOM     16  H9  UNL     1      27.264  13.653  -6.983  1.00  0.00     0.210 HD
ENDBRANCH  10  15
BRANCH  10  17
HETATM   17  C19 UNL     1      27.166  15.831  -6.538  1.00  0.00     0.176 C 
BRANCH  17  18
HETATM   18  O10 UNL     1      28.179  15.816  -7.463  1.00  0.00    -0.390 OA
ATOM     19  H10 UNL     1      29.042  15.681  -7.090  1.00  0.00     0.210 HD
ENDBRANCH  17  18
BRANCH  17  20
HETATM   20  C20 UNL     1      25.887  15.537  -7.349  1.00  0.00     0.198 C 
BRANCH  20  21
HETATM   21  O11 UNL     1      26.140  14.750  -8.461  1.00  0.00    -0.398 OA
ATOM     22  H11 UNL     1      25.343  14.401  -8.843  1.00  0.00     0.209 HD
ENDBRANCH  20  21
ENDBRANCH  17  20
ENDBRANCH  10  17
BRANCH   4  23
HETATM   23  O7  UNL     1      27.843  18.048  -4.133  1.00  0.00    -0.395 OA
ATOM     24  H7  UNL     1      27.652  17.664  -4.980  1.00  0.00     0.210 HD
ENDBRANCH   4  23
BRANCH   8  25
HETATM   25  O8  UNL     1      30.708  16.011  -2.757  1.00  0.00    -0.389 OA
ATOM     26  H8  UNL     1      31.297  15.736  -2.064  1.00  0.00     0.210 HD
ENDBRANCH   8  25
BRANCH  14  27
HETATM   27  C25 UNL     1      26.057  16.669  -2.625  1.00  0.00     0.184 C 
BRANCH  27  28
HETATM   28  O13 UNL     1      24.774  16.185  -2.250  1.00  0.00    -0.400 OA
ATOM     29  H13 UNL     1      24.183  16.135  -2.993  1.00  0.00     0.209 HD
ENDBRANCH  27  28
ENDBRANCH  14  27
BRANCH  13  30
HETATM   30  O12 UNL     1      27.050  13.307  -1.700  1.00  0.00    -0.364 OA
ATOM     31  H12 UNL     1      27.765  13.687  -1.203  1.00  0.00     0.217 HD
ENDBRANCH  13  30
BRANCH   1  32
HETATM   32  O3  UNL     1      26.450  16.058  -0.144  1.00  0.00    -0.312 OA
BRANCH  32  33
HETATM   33  C4  UNL     1      26.103  15.285   0.931  1.00  0.00     0.266 C 
HETATM   34  O2  UNL     1      26.569  14.130   1.027  1.00  0.00    -0.265 OA
BRANCH  33  35
HETATM   35  C3  UNL     1      25.194  15.762   1.993  1.00  0.00     0.188 C 
BRANCH  35  36
HETATM   36  C2  UNL     1      25.927  16.487   3.061  1.00  0.00     0.132 C 
HETATM   37  C1  UNL     1      25.931  17.991   3.095  1.00  0.00     0.091 C 
HETATM   38  O1  UNL     1      26.560  15.962   3.961  1.00  0.00    -0.298 OA
ENDBRANCH  35  36
ENDBRANCH  33  35
ENDBRANCH  32  33
ENDBRANCH   1  32
BRANCH   2  39
HETATM   39  O4  UNL     1      27.867  17.981   0.076  1.00  0.00    -0.322 OA
BRANCH  39  40
HETATM   40  C7  UNL     1      27.813  19.275  -0.312  1.00  0.00     0.319 A 
HETATM   41  O5  UNL     1      28.932  20.078  -0.105  1.00  0.00    -0.327 OA
HETATM   42  C8  UNL     1      28.407  20.956  -1.051  1.00  0.00     0.220 C 
HETATM   43  C9  UNL     1      27.100  20.160  -0.949  1.00  0.00     0.168 A 
HETATM   44  C10 UNL     1      26.228  20.271  -2.136  1.00  0.00     0.057 C 
HETATM   45  O6  UNL     1      26.625  19.922   0.314  1.00  0.00    -0.309 OA
ENDBRANCH  39  40
ENDBRANCH   2  39
TORSDOF 16
ENDMDL
MODEL 4
REMARK VINA RESULT: -4.607922274      2.387      3.486
REMARK  16 active torsions:
REMARK  status: ('A' for Active; 'I' for Inactive)
REMARK    1  A    between atoms: C2_2  and  C3_4 
REMARK    2  A    between atoms: C3_4  and  C4_5 
REMARK    3  A    between atoms: C4_5  and  O3_7 
REMARK    4  A    between atoms: O3_7  and  C5_8 
REMARK    5  A    between atoms: C6_9  and  O4_10 
REMARK    6  A    between atoms: O4_10  and  C7_11 
REMARK    7  A    between atoms: C12_18  and  O7_19 
REMARK    8  A    between atoms: C16_24  and  O8_26 
REMARK    9  A    between atoms: C18_28  and  O9_29 
REMARK   10  A    between atoms: C18_28  and  C19_31 
REMARK   11  A    between atoms: C19_31  and  O10_32 
REMARK   12  A    between atoms: C19_31  and  C20_34 
REMARK   13  A    between atoms: C20_34  and  O11_35 
REMARK   14  A    between atoms: C23_39  and  O12_40 
REMARK   15  A    between atoms: C24_42  and  C25_43 
REMARK   16  A    between atoms: C25_43  and  O13_44 
ROOT
HETATM    1  C5  UNL     1      27.372  19.133  -1.944  1.00  0.00     0.179 C 
HETATM    2  C6  UNL     1      27.463  18.890  -0.464  1.00  0.00     0.161 C 
HETATM    3  C11 UNL     1      27.624  17.539   0.063  1.00  0.00     0.067 C 
HETATM    4  C12 UNL     1      27.484  16.379  -0.886  1.00  0.00     0.134 C 
HETATM    5  C13 UNL     1      26.787  16.789  -2.158  1.00  0.00     0.041 C 
HETATM    6  C14 UNL     1      26.318  15.901  -3.168  1.00  0.00     0.041 C 
HETATM    7  C15 UNL     1      25.247  15.428  -2.218  1.00  0.00     0.047 C 
HETATM    8  C16 UNL     1      25.363  16.916  -1.769  1.00  0.00     0.066 C 
HETATM    9  C17 UNL     1      24.273  17.634  -2.376  1.00  0.00     0.047 C 
HETATM   10  C18 UNL     1      26.976  14.995  -4.059  1.00  0.00     0.093 C 
HETATM   11  C21 UNL     1      27.726  15.797  -5.101  1.00  0.00     0.070 C 
HETATM   12  C22 UNL     1      27.341  17.202  -5.242  1.00  0.00     0.009 C 
HETATM   13  C23 UNL     1      27.276  18.195  -4.210  1.00  0.00     0.054 C 
HETATM   14  C24 UNL     1      27.569  17.890  -2.765  1.00  0.00     0.071 C 
ENDROOT
BRANCH  10  15
HETATM   15  O9  UNL     1      25.858  14.383  -4.733  1.00  0.00    -0.386 OA
ATOM     16  H9  UNL     1      25.794  13.549  -4.283  1.00  0.00     0.210 HD
ENDBRANCH  10  15
BRANCH  10  17
HETATM   17  C19 UNL     1      27.762  13.825  -3.625  1.00  0.00     0.176 C 
BRANCH  17  18
HETATM   18  O10 UNL     1      27.471  12.671  -4.307  1.00  0.00    -0.390 OA
ATOM     19  H10 UNL     1      28.114  12.439  -4.966  1.00  0.00     0.210 HD
ENDBRANCH  17  18
BRANCH  17  20
HETATM   20  C20 UNL     1      29.247  14.104  -3.937  1.00  0.00     0.198 C 
BRANCH  20  21
HETATM   21  O11 UNL     1      30.078  13.769  -2.880  1.00  0.00    -0.398 OA
ATOM     22  H11 UNL     1      30.655  14.483  -2.635  1.00  0.00     0.209 HD
ENDBRANCH  20  21
ENDBRANCH  17  20
ENDBRANCH  10  17
BRANCH   4  23
HETATM   23  O7  UNL     1      28.623  15.657  -0.967  1.00  0.00    -0.395 OA
ATOM     24  H7  UNL     1      28.740  15.279  -1.831  1.00  0.00     0.210 HD
ENDBRANCH   4  23
BRANCH   8  25
HETATM   25  O8  UNL     1      25.089  16.841  -0.364  1.00  0.00    -0.389 OA
ATOM     26  H8  UNL     1      25.114  17.665   0.109  1.00  0.00     0.210 HD
ENDBRANCH   8  25
BRANCH  14  27
HETATM   27  C25 UNL     1      29.061  17.668  -2.735  1.00  0.00     0.184 C 
BRANCH  27  28
HETATM   28  O13 UNL     1      29.729  18.410  -3.747  1.00  0.00    -0.400 OA
ATOM     29  H13 UNL     1      29.339  19.268  -3.873  1.00  0.00     0.209 HD
ENDBRANCH  27  28
ENDBRANCH  14  27
BRANCH  13  30
HETATM   30  O12 UNL     1      26.112  18.970  -4.392  1.00  0.00    -0.364 OA
ATOM     31  H12 UNL     1      25.512  18.498  -4.959  1.00  0.00     0.217 HD
ENDBRANCH  13  30
BRANCH   1  32
HETATM   32  O3  UNL     1      28.310  20.110  -2.339  1.00  0.00    -0.312 OA
BRANCH  32  33
HETATM   33  C4  UNL     1      28.052  21.376  -2.788  1.00  0.00     0.266 C 
HETATM   34  O2  UNL     1      26.883  21.687  -3.099  1.00  0.00    -0.265 OA
BRANCH  33  35
HETATM   35  C3  UNL     1      29.107  22.403  -2.921  1.00  0.00     0.188 C 
BRANCH  35  36
HETATM   36  C2  UNL     1      30.464  21.823  -2.767  1.00  0.00     0.132 C 
HETATM   37  C1  UNL     1      31.195  21.938  -1.457  1.00  0.00     0.091 C 
HETATM   38  O1  UNL     1      31.079  21.231  -3.636  1.00  0.00    -0.298 OA
ENDBRANCH  35  36
ENDBRANCH  33  35
ENDBRANCH  32  33
ENDBRANCH   1  32
BRANCH   2  39
HETATM   39  O4  UNL     1      28.465  19.744   0.026  1.00  0.00    -0.322 OA
BRANCH  39  40
HETATM   40  C7  UNL     1      28.073  20.555   1.035  1.00  0.00     0.319 A 
HETATM   41  O5  UNL     1      26.758  20.467   1.485  1.00  0.00    -0.327 OA
HETATM   42  C8  UNL     1      27.173  21.106   2.651  1.00  0.00     0.220 C 
HETATM   43  C9  UNL     1      28.484  21.419   1.918  1.00  0.00     0.168 A 
HETATM   44  C10 UNL     1      29.634  21.668   2.811  1.00  0.00     0.057 C 
HETATM   45  O6  UNL     1      28.370  21.969   0.667  1.00  0.00    -0.309 OA
ENDBRANCH  39  40
ENDBRANCH   2  39
TORSDOF 16
ENDMDL
MODEL 5
REMARK VINA RESULT: -4.601926169      1.819      2.452
REMARK  16 active torsions:
REMARK  status: ('A' for Active; 'I' for Inactive)
REMARK    1  A    between atoms: C2_2  and  C3_4 
REMARK    2  A    between atoms: C3_4  and  C4_5 
REMARK    3  A    between atoms: C4_5  and  O3_7 
REMARK    4  A    between atoms: O3_7  and  C5_8 
REMARK    5  A    between atoms: C6_9  and  O4_10 
REMARK    6  A    between atoms: O4_10  and  C7_11 
REMARK    7  A    between atoms: C12_18  and  O7_19 
REMARK    8  A    between atoms: C16_24  and  O8_26 
REMARK    9  A    between atoms: C18_28  and  O9_29 
REMARK   10  A    between atoms: C18_28  and  C19_31 
REMARK   11  A    between atoms: C19_31  and  O10_32 
REMARK   12  A    between atoms: C19_31  and  C20_34 
REMARK   13  A    between atoms: C20_34  and  O11_35 
REMARK   14  A    between atoms: C23_39  and  O12_40 
REMARK   15  A    between atoms: C24_42  and  C25_43 
REMARK   16  A    between atoms: C25_43  and  O13_44 
ROOT
HETATM    1  C5  UNL     1      25.267  16.495  -0.632  1.00  0.00     0.179 C 
HETATM    2  C6  UNL     1      24.772  15.165  -0.138  1.00  0.00     0.161 C 
HETATM    3  C11 UNL     1      25.336  13.920  -0.651  1.00  0.00     0.067 C 
HETATM    4  C12 UNL     1      26.267  13.990  -1.831  1.00  0.00     0.134 C 
HETATM    5  C13 UNL     1      26.141  15.305  -2.556  1.00  0.00     0.041 C 
HETATM    6  C14 UNL     1      26.723  15.613  -3.819  1.00  0.00     0.041 C 
HETATM    7  C15 UNL     1      25.750  14.663  -4.470  1.00  0.00     0.047 C 
HETATM    8  C16 UNL     1      24.865  15.190  -3.300  1.00  0.00     0.066 C 
HETATM    9  C17 UNL     1      23.989  16.195  -3.844  1.00  0.00     0.047 C 
HETATM   10  C18 UNL     1      28.074  15.721  -4.274  1.00  0.00     0.093 C 
HETATM   11  C21 UNL     1      28.690  16.970  -3.678  1.00  0.00     0.070 C 
HETATM   12  C22 UNL     1      27.758  17.957  -3.134  1.00  0.00     0.009 C 
HETATM   13  C23 UNL     1      26.726  17.740  -2.163  1.00  0.00     0.054 C 
HETATM   14  C24 UNL     1      26.425  16.384  -1.583  1.00  0.00     0.071 C 
ENDROOT
BRANCH  10  15
HETATM   15  O9  UNL     1      27.889  15.982  -5.681  1.00  0.00    -0.386 OA
ATOM     16  H9  UNL     1      27.896  16.932  -5.703  1.00  0.00     0.210 HD
ENDBRANCH  10  15
BRANCH  10  17
HETATM   17  C19 UNL     1      29.041  14.607  -4.284  1.00  0.00     0.176 C 
BRANCH  17  18
HETATM   18  O10 UNL     1      29.809  14.543  -5.419  1.00  0.00    -0.390 OA
ATOM     19  H10 UNL     1      30.458  13.849  -5.409  1.00  0.00     0.210 HD
ENDBRANCH  17  18
BRANCH  17  20
HETATM   20  C20 UNL     1      30.049  14.838  -3.139  1.00  0.00     0.198 C 
BRANCH  20  21
HETATM   21  O11 UNL     1      30.505  13.649  -2.593  1.00  0.00    -0.398 OA
ATOM     22  H11 UNL     1      31.452  13.580  -2.622  1.00  0.00     0.209 HD
ENDBRANCH  20  21
ENDBRANCH  17  20
ENDBRANCH  10  17
BRANCH   4  23
HETATM   23  O7  UNL     1      27.498  13.524  -1.527  1.00  0.00    -0.395 OA
ATOM     24  H7  UNL     1      27.874  13.027  -2.244  1.00  0.00     0.210 HD
ENDBRANCH   4  23
BRANCH   8  25
HETATM   25  O8  UNL     1      24.055  14.052  -2.982  1.00  0.00    -0.389 OA
ATOM     26  H8  UNL     1      23.180  14.048  -3.353  1.00  0.00     0.210 HD
ENDBRANCH   8  25
BRANCH  14  27
HETATM   27  C25 UNL     1      27.605  16.102  -0.686  1.00  0.00     0.184 C 
BRANCH  27  28
HETATM   28  O13 UNL     1      28.215  17.298  -0.219  1.00  0.00    -0.400 OA
ATOM     29  H13 UNL     1      28.939  17.566  -0.773  1.00  0.00     0.209 HD
ENDBRANCH  27  28
ENDBRANCH  14  27
BRANCH  13  30
HETATM   30  O12 UNL     1      25.570  18.448  -2.556  1.00  0.00    -0.364 OA
ATOM     31  H12 UNL     1      25.712  18.814  -3.422  1.00  0.00     0.217 HD
ENDBRANCH  13  30
BRANCH   1  32
HETATM   32  O3  UNL     1      25.629  17.318   0.455  1.00  0.00    -0.312 OA
BRANCH  32  33
HETATM   33  C4  UNL     1      24.933  18.382   0.960  1.00  0.00     0.266 C 
HETATM   34  O2  UNL     1      24.540  19.278   0.184  1.00  0.00    -0.265 OA
BRANCH  33  35
HETATM   35  C3  UNL     1      24.620  18.517   2.398  1.00  0.00     0.188 C 
BRANCH  35  36
HETATM   36  C2  UNL     1      25.833  18.377   3.242  1.00  0.00     0.132 C 
HETATM   37  C1  UNL     1      26.630  19.591   3.636  1.00  0.00     0.091 C 
HETATM   38  O1  UNL     1      26.275  17.324   3.670  1.00  0.00    -0.298 OA
ENDBRANCH  35  36
ENDBRANCH  33  35
ENDBRANCH  32  33
ENDBRANCH   1  32
BRANCH   2  39
HETATM   39  O4  UNL     1      24.834  15.205   1.265  1.00  0.00    -0.322 OA
BRANCH  39  40
HETATM   40  C7  UNL     1      23.722  14.762   1.893  1.00  0.00     0.319 A 
HETATM   41  O5  UNL     1      22.560  15.524   1.802  1.00  0.00    -0.327 OA
HETATM   42  C8  UNL     1      21.850  14.387   2.183  1.00  0.00     0.220 C 
HETATM   43  C9  UNL     1      23.203  13.763   2.548  1.00  0.00     0.168 A 
HETATM   44  C10 UNL     1      23.208  12.285   2.552  1.00  0.00     0.057 C 
HETATM   45  O6  UNL     1      24.036  14.520   3.330  1.00  0.00    -0.309 OA
ENDBRANCH  39  40
ENDBRANCH   2  39
TORSDOF 16
ENDMDL
