MODEL 1
REMARK VINA RESULT: -6.307160503      0.000      0.000
REMARK  2 active torsions:
REMARK  status: ('A' for Active; 'I' for Inactive)
REMARK    1  A    between atoms: C4_13  and  N4_14 
REMARK    2  A    between atoms: C4_13  and  C5_18 
ROOT
HETATM    1  N1  UNL     1       2.436 -15.013  17.763  1.00  0.00    -0.235 N 
ATOM      2  H11 UNL     1       3.418 -15.265  17.649  1.00  0.00     0.174 HD
ATOM      3  H12 UNL     1       1.820 -14.512  17.123  1.00  0.00     0.174 HD
HETATM    4  C1  UNL     1       1.927 -15.395  18.889  1.00  0.00     0.678 C 
HETATM    5  N2  UNL     1       0.557 -15.043  19.049  1.00  0.00    -0.141 N 
ATOM      6  H2  UNL     1       0.103 -14.611  18.244  1.00  0.00     0.189 HD
HETATM    7  C2  UNL     1      -0.252 -15.226  20.213  1.00  0.00     0.341 C 
HETATM    8  O1  UNL     1      -1.440 -14.775  20.178  1.00  0.00    -0.246 OA
HETATM    9  N3  UNL     1       0.137 -15.867  21.414  1.00  0.00    -0.274 N 
ATOM     10  H3  UNL     1      -0.487 -15.749  22.213  1.00  0.00     0.173 HD
HETATM   11  C3  UNL     1       1.299 -16.655  21.631  1.00  0.00     0.292 C 
HETATM   12  O2  UNL     1       1.323 -17.142  22.802  1.00  0.00    -0.268 OA
HETATM   13  C4  UNL     1       2.461 -17.019  20.797  1.00  0.00     0.367 C 
HETATM   14  N6  UNL     1       2.782 -16.090  19.776  1.00  0.00    -0.175 N 
ATOM     15  H6  UNL     1       3.776 -15.893  19.665  1.00  0.00     0.181 HD
ENDROOT
BRANCH  13  16
HETATM   16  N4  UNL     1       3.602 -17.100  21.724  1.00  0.00    -0.034 N 
ATOM     17  H43 UNL     1       4.409 -17.590  21.339  1.00  0.00     0.278 HD
ATOM     18  H42 UNL     1       4.068 -16.206  21.879  1.00  0.00     0.278 HD
ATOM     19  H41 UNL     1       3.233 -17.523  22.576  1.00  0.00     0.278 HD
ENDBRANCH  13  16
BRANCH  13  20
HETATM   20  C5  UNL     1       2.315 -18.378  20.205  1.00  0.00     0.298 C 
HETATM   21  N5  UNL     1       3.186 -19.445  20.523  1.00  0.00    -0.058 NA
HETATM   22  O3  UNL     1       1.353 -18.548  19.380  1.00  0.00    -0.271 OA
ENDBRANCH  13  20
TORSDOF 2
ENDMDL
MODEL 2
REMARK VINA RESULT: -6.011052281      1.879      4.331
REMARK  2 active torsions:
REMARK  status: ('A' for Active; 'I' for Inactive)
REMARK    1  A    between atoms: C4_13  and  N4_14 
REMARK    2  A    between atoms: C4_13  and  C5_18 
ROOT
HETATM    1  N1  UNL     1       0.674 -16.366  23.097  1.00  0.00    -0.235 N 
ATOM      2  H11 UNL     1       0.386 -15.416  23.330  1.00  0.00     0.174 HD
ATOM      3  H12 UNL     1       0.598 -17.219  23.653  1.00  0.00     0.174 HD
HETATM    4  C1  UNL     1       1.211 -16.477  21.926  1.00  0.00     0.678 C 
HETATM    5  N2  UNL     1       1.613 -17.802  21.601  1.00  0.00    -0.141 N 
ATOM      6  H2  UNL     1       1.366 -18.529  22.273  1.00  0.00     0.189 HD
HETATM    7  C2  UNL     1       2.326 -18.228  20.436  1.00  0.00     0.341 C 
HETATM    8  O1  UNL     1       2.656 -19.454  20.367  1.00  0.00    -0.246 OA
HETATM    9  N3  UNL     1       2.705 -17.417  19.340  1.00  0.00    -0.274 N 
ATOM     10  H3  UNL     1       3.369 -17.826  18.682  1.00  0.00     0.173 HD
HETATM   11  C3  UNL     1       2.264 -16.097  19.053  1.00  0.00     0.292 C 
HETATM   12  O2  UNL     1       2.741 -15.670  17.958  1.00  0.00    -0.268 OA
HETATM   13  C4  UNL     1       1.384 -15.137  19.748  1.00  0.00     0.367 C 
HETATM   14  N6  UNL     1       1.316 -15.295  21.155  1.00  0.00    -0.175 N 
ATOM     15  H6  UNL     1       1.349 -14.428  21.692  1.00  0.00     0.181 HD
ENDROOT
BRANCH  13  16
HETATM   16  N4  UNL     1       1.946 -13.807  19.459  1.00  0.00    -0.034 N 
ATOM     17  H43 UNL     1       2.844 -13.837  18.977  1.00  0.00     0.278 HD
ATOM     18  H42 UNL     1       1.439 -13.296  18.737  1.00  0.00     0.278 HD
ATOM     19  H41 UNL     1       1.979 -13.323  20.357  1.00  0.00     0.278 HD
ENDBRANCH  13  16
BRANCH  13  20
HETATM   20  C5  UNL     1       0.008 -15.134  19.181  1.00  0.00     0.298 C 
HETATM   21  N5  UNL     1      -1.149 -15.047  19.988  1.00  0.00    -0.058 NA
HETATM   22  O3  UNL     1      -0.093 -15.216  17.908  1.00  0.00    -0.271 OA
ENDBRANCH  13  20
TORSDOF 2
ENDMDL
MODEL 3
REMARK VINA RESULT: -5.529993292      2.074      4.347
REMARK  2 active torsions:
REMARK  status: ('A' for Active; 'I' for Inactive)
REMARK    1  A    between atoms: C4_13  and  N4_14 
REMARK    2  A    between atoms: C4_13  and  C5_18 
ROOT
HETATM    1  N1  UNL     1       1.830 -20.319  18.193  1.00  0.00    -0.235 N 
ATOM      2  H11 UNL     1       1.015 -19.989  17.677  1.00  0.00     0.174 HD
ATOM      3  H12 UNL     1       2.453 -21.100  17.986  1.00  0.00     0.174 HD
HETATM    4  C1  UNL     1       2.089 -19.630  19.256  1.00  0.00     0.678 C 
HETATM    5  N2  UNL     1       3.227 -20.090  19.976  1.00  0.00    -0.141 N 
ATOM      6  H2  UNL     1       3.762 -20.843  19.545  1.00  0.00     0.189 HD
HETATM    7  C2  UNL     1       3.703 -19.611  21.237  1.00  0.00     0.341 C 
HETATM    8  O1  UNL     1       4.702 -20.207  21.750  1.00  0.00    -0.246 OA
HETATM    9  N3  UNL     1       3.172 -18.531  21.980  1.00  0.00    -0.274 N 
ATOM     10  H3  UNL     1       3.501 -18.437  22.941  1.00  0.00     0.173 HD
HETATM   11  C3  UNL     1       2.232 -17.562  21.538  1.00  0.00     0.292 C 
HETATM   12  O2  UNL     1       2.009 -16.684  22.426  1.00  0.00    -0.268 OA
HETATM   13  C4  UNL     1       1.475 -17.365  20.286  1.00  0.00     0.367 C 
HETATM   14  N6  UNL     1       1.225 -18.547  19.544  1.00  0.00    -0.175 N 
ATOM     15  H6  UNL     1       0.284 -18.628  19.161  1.00  0.00     0.181 HD
ENDROOT
BRANCH  13  16
HETATM   16  N4  UNL     1       0.180 -16.793  20.693  1.00  0.00    -0.034 N 
ATOM     17  H43 UNL     1       0.246 -15.837  21.042  1.00  0.00     0.278 HD
ATOM     18  H42 UNL     1      -0.443 -16.593  19.912  1.00  0.00     0.278 HD
ATOM     19  H41 UNL     1      -0.208 -17.450  21.370  1.00  0.00     0.278 HD
ENDBRANCH  13  16
BRANCH  13  20
HETATM   20  C5  UNL     1       2.114 -16.350  19.404  1.00  0.00     0.298 C 
HETATM   21  N5  UNL     1       1.395 -15.633  18.422  1.00  0.00    -0.058 NA
HETATM   22  O3  UNL     1       3.366 -16.145  19.571  1.00  0.00    -0.271 OA
ENDBRANCH  13  20
TORSDOF 2
ENDMDL
MODEL 4
REMARK VINA RESULT: -5.465241825      1.856      3.545
REMARK  2 active torsions:
REMARK  status: ('A' for Active; 'I' for Inactive)
REMARK    1  A    between atoms: C4_13  and  N4_14 
REMARK    2  A    between atoms: C4_13  and  C5_18 
ROOT
HETATM    1  N1  UNL     1       1.860 -19.244  20.040  1.00  0.00    -0.235 N 
ATOM      2  H11 UNL     1       2.060 -19.492  19.072  1.00  0.00     0.174 HD
ATOM      3  H12 UNL     1       1.834 -19.841  20.867  1.00  0.00     0.174 HD
HETATM    4  C1  UNL     1       1.605 -17.989  20.215  1.00  0.00     0.678 C 
HETATM    5  N2  UNL     1       1.325 -17.642  21.567  1.00  0.00    -0.141 N 
ATOM      6  H2  UNL     1       1.435 -18.385  22.257  1.00  0.00     0.189 HD
HETATM    7  C2  UNL     1       0.905 -16.369  22.064  1.00  0.00     0.341 C 
HETATM    8  O1  UNL     1       0.635 -16.284  23.303  1.00  0.00    -0.246 OA
HETATM    9  N3  UNL     1       0.759 -15.180  21.310  1.00  0.00    -0.274 N 
ATOM     10  H3  UNL     1       0.273 -14.409  21.769  1.00  0.00     0.173 HD
HETATM   11  C3  UNL     1       1.214 -14.939  19.986  1.00  0.00     0.292 C 
HETATM   12  O2  UNL     1       0.984 -13.747  19.619  1.00  0.00    -0.268 OA
HETATM   13  C4  UNL     1       1.887 -15.769  18.967  1.00  0.00     0.367 C 
HETATM   14  N6  UNL     1       1.640 -17.161  19.068  1.00  0.00    -0.175 N 
ATOM     15  H6  UNL     1       1.463 -17.637  18.184  1.00  0.00     0.181 HD
ENDROOT
BRANCH  13  16
HETATM   16  N4  UNL     1       1.365 -15.301  17.671  1.00  0.00    -0.034 N 
ATOM     17  H43 UNL     1       1.013 -16.051  17.076  1.00  0.00     0.278 HD
ATOM     18  H42 UNL     1       0.489 -14.785  17.744  1.00  0.00     0.278 HD
ATOM     19  H41 UNL     1       2.123 -14.765  17.249  1.00  0.00     0.278 HD
ENDBRANCH  13  16
BRANCH  13  20
HETATM   20  C5  UNL     1       3.355 -15.524  18.932  1.00  0.00     0.298 C 
HETATM   21  N5  UNL     1       4.160 -15.554  20.093  1.00  0.00    -0.058 NA
HETATM   22  O3  UNL     1       3.873 -15.280  17.788  1.00  0.00    -0.271 OA
ENDBRANCH  13  20
TORSDOF 2
ENDMDL
MODEL 5
REMARK VINA RESULT: -5.279830052      2.040      4.639
REMARK  2 active torsions:
REMARK  status: ('A' for Active; 'I' for Inactive)
REMARK    1  A    between atoms: C4_13  and  N4_14 
REMARK    2  A    between atoms: C4_13  and  C5_18 
ROOT
HETATM    1  N1  UNL     1       3.093 -20.206  23.017  1.00  0.00    -0.235 N 
ATOM      2  H11 UNL     1       3.517 -19.554  23.677  1.00  0.00     0.174 HD
ATOM      3  H12 UNL     1       2.848 -21.187  23.145  1.00  0.00     0.174 HD
HETATM    4  C1  UNL     1       2.841 -19.686  21.859  1.00  0.00     0.678 C 
HETATM    5  N2  UNL     1       2.250 -20.595  20.938  1.00  0.00    -0.141 N 
ATOM      6  H2  UNL     1       2.011 -21.517  21.302  1.00  0.00     0.189 HD
HETATM    7  C2  UNL     1       1.954 -20.358  19.559  1.00  0.00     0.341 C 
HETATM    8  O1  UNL     1       1.489 -21.330  18.884  1.00  0.00    -0.246 OA
HETATM    9  N3  UNL     1       2.126 -19.139  18.861  1.00  0.00    -0.274 N 
ATOM     10  H3  UNL     1       2.049 -19.184  17.845  1.00  0.00     0.173 HD
HETATM   11  C3  UNL     1       2.394 -17.859  19.417  1.00  0.00     0.292 C 
HETATM   12  O2  UNL     1       2.428 -16.957  18.525  1.00  0.00    -0.268 OA
HETATM   13  C4  UNL     1       2.636 -17.368  20.787  1.00  0.00     0.367 C 
HETATM   14  N6  UNL     1       3.181 -18.324  21.680  1.00  0.00    -0.175 N 
ATOM     15  H6  UNL     1       3.928 -17.980  22.283  1.00  0.00     0.181 HD
ENDROOT
BRANCH  13  16
HETATM   16  N4  UNL     1       3.603 -16.265  20.646  1.00  0.00    -0.034 N 
ATOM     17  H43 UNL     1       4.466 -16.535  20.175  1.00  0.00     0.278 HD
ATOM     18  H42 UNL     1       3.317 -15.553  19.974  1.00  0.00     0.278 HD
ATOM     19  H41 UNL     1       3.746 -15.905  21.589  1.00  0.00     0.278 HD
ENDBRANCH  13  16
BRANCH  13  20
HETATM   20  C5  UNL     1       1.413 -16.768  21.387  1.00  0.00     0.298 C 
HETATM   21  N5  UNL     1       0.338 -16.287  20.604  1.00  0.00    -0.058 NA
HETATM   22  O3  UNL     1       1.368 -16.700  22.663  1.00  0.00    -0.271 OA
ENDBRANCH  13  20
TORSDOF 2
ENDMDL
