MODEL 1
REMARK VINA RESULT: -5.771880096      0.000      0.000
REMARK  3 active torsions:
REMARK  status: ('A' for Active; 'I' for Inactive)
REMARK    1  A    between atoms: N1_1  and  C1_5 
REMARK    2  A    between atoms: C1_5  and  N2_6 
REMARK    3  A    between atoms: C1_5  and  C2_10 
REMARK       I    between atoms: C2_10  and  N3_12 
ROOT
HETATM    1  C2  UNL     1       1.534 -16.331  18.908  1.00  0.00     0.281 C 
HETATM    2  O1  UNL     1       2.552 -15.847  18.308  1.00  0.00    -0.269 OA
HETATM    3  N3  UNL     1       1.354 -17.716  18.949  1.00  0.00    -0.304 N 
ATOM      4  H3  UNL     1       0.756 -18.152  18.246  1.00  0.00     0.170 HD
HETATM    5  C3  UNL     1       1.905 -18.462  19.830  1.00  0.00     0.192 A 
HETATM    6  N4  UNL     1       1.668 -19.818  19.791  1.00  0.00    -0.277 N 
ATOM      7  H4  UNL     1       1.063 -20.211  19.070  1.00  0.00     0.189 HD
HETATM    8  N5  UNL     1       2.225 -20.603  20.688  1.00  0.00    -0.250 N 
ATOM      9  H5  UNL     1       2.038 -21.604  20.644  1.00  0.00     0.192 HD
HETATM   10  C4  UNL     1       3.030 -20.139  21.659  1.00  0.00     0.341 A 
HETATM   11  O2  UNL     1       3.525 -20.964  22.480  1.00  0.00    -0.245 OA
HETATM   12  N6  UNL     1       3.296 -18.825  21.744  1.00  0.00    -0.271 N 
ATOM     13  H6  UNL     1       3.906 -18.460  22.476  1.00  0.00     0.174 HD
HETATM   14  C5  UNL     1       2.730 -17.993  20.825  1.00  0.00     0.295 A 
HETATM   15  O3  UNL     1       3.003 -16.758  20.935  1.00  0.00    -0.264 OA
ENDROOT
BRANCH   1  16
HETATM   16  C1  UNL     1       0.579 -15.389  19.537  1.00  0.00     0.468 C 
BRANCH  16  17
HETATM   17  N1  UNL     1      -0.188 -16.042  20.577  1.00  0.00    -0.042 N 
ATOM     18  H13 UNL     1       0.177 -16.967  20.808  1.00  0.00     0.277 HD
ATOM     19  H12 UNL     1      -0.058 -15.606  21.490  1.00  0.00     0.277 HD
ATOM     20  H11 UNL     1      -1.168 -16.069  20.294  1.00  0.00     0.277 HD
ENDBRANCH  16  17
BRANCH  16  21
HETATM   21  N2  UNL     1       1.410 -14.345  20.149  1.00  0.00    -0.042 N 
ATOM     22  H23 UNL     1       0.956 -13.432  20.146  1.00  0.00     0.277 HD
ATOM     23  H22 UNL     1       1.495 -14.457  21.160  1.00  0.00     0.277 HD
ATOM     24  H21 UNL     1       2.316 -14.331  19.681  1.00  0.00     0.277 HD
ENDBRANCH  16  21
ENDBRANCH   1  16
TORSDOF 3
ENDMDL
MODEL 2
REMARK VINA RESULT: -5.540617759      1.805      5.080
REMARK  3 active torsions:
REMARK  status: ('A' for Active; 'I' for Inactive)
REMARK    1  A    between atoms: N1_1  and  C1_5 
REMARK    2  A    between atoms: C1_5  and  N2_6 
REMARK    3  A    between atoms: C1_5  and  C2_10 
REMARK       I    between atoms: C2_10  and  N3_12 
ROOT
HETATM    1  C2  UNL     1       3.752 -19.910  21.990  1.00  0.00     0.281 C 
HETATM    2  O1  UNL     1       4.902 -20.113  21.473  1.00  0.00    -0.269 OA
HETATM    3  N3  UNL     1       3.296 -18.601  22.161  1.00  0.00    -0.304 N 
ATOM      4  H3  UNL     1       3.435 -18.149  23.066  1.00  0.00     0.170 HD
HETATM    5  C3  UNL     1       2.710 -17.943  21.234  1.00  0.00     0.192 A 
HETATM    6  N4  UNL     1       2.294 -16.656  21.496  1.00  0.00    -0.277 N 
ATOM      7  H4  UNL     1       2.454 -16.244  22.415  1.00  0.00     0.189 HD
HETATM    8  N5  UNL     1       1.690 -15.963  20.556  1.00  0.00    -0.250 N 
ATOM      9  H5  UNL     1       1.389 -15.012  20.767  1.00  0.00     0.192 HD
HETATM   10  C4  UNL     1       1.453 -16.456  19.328  1.00  0.00     0.341 A 
HETATM   11  O2  UNL     1       0.866 -15.720  18.483  1.00  0.00    -0.245 OA
HETATM   12  N6  UNL     1       1.837 -17.704  19.017  1.00  0.00    -0.271 N 
ATOM     13  H6  UNL     1       1.664 -18.090  18.089  1.00  0.00     0.174 HD
HETATM   14  C5  UNL     1       2.466 -18.441  19.975  1.00  0.00     0.295 A 
HETATM   15  O3  UNL     1       2.815 -19.617  19.648  1.00  0.00    -0.264 OA
ENDROOT
BRANCH   1  16
HETATM   16  C1  UNL     1       2.947 -21.088  22.391  1.00  0.00     0.468 C 
BRANCH  16  17
HETATM   17  N1  UNL     1       3.767 -22.072  23.068  1.00  0.00    -0.042 N 
ATOM     18  H13 UNL     1       4.742 -21.782  23.143  1.00  0.00     0.277 HD
ATOM     19  H12 UNL     1       3.560 -22.132  24.065  1.00  0.00     0.277 HD
ATOM     20  H11 UNL     1       3.661 -22.969  22.594  1.00  0.00     0.277 HD
ENDBRANCH  16  17
BRANCH  16  21
HETATM   21  N2  UNL     1       1.950 -20.573  23.337  1.00  0.00    -0.042 N 
ATOM     22  H23 UNL     1       1.472 -21.318  23.844  1.00  0.00     0.277 HD
ATOM     23  H22 UNL     1       2.377 -20.108  24.139  1.00  0.00     0.277 HD
ATOM     24  H21 UNL     1       1.303 -19.966  22.833  1.00  0.00     0.277 HD
ENDBRANCH  16  21
ENDBRANCH   1  16
TORSDOF 3
ENDMDL
MODEL 3
REMARK VINA RESULT: -5.482185032      1.697      2.310
REMARK  3 active torsions:
REMARK  status: ('A' for Active; 'I' for Inactive)
REMARK    1  A    between atoms: N1_1  and  C1_5 
REMARK    2  A    between atoms: C1_5  and  N2_6 
REMARK    3  A    between atoms: C1_5  and  C2_10 
REMARK       I    between atoms: C2_10  and  N3_12 
ROOT
HETATM    1  C2  UNL     1       1.269 -15.665  20.161  1.00  0.00     0.281 C 
HETATM    2  O1  UNL     1       0.028 -15.669  19.864  1.00  0.00    -0.269 OA
HETATM    3  N3  UNL     1       1.722 -16.430  21.238  1.00  0.00    -0.304 N 
ATOM      4  H3  UNL     1       1.823 -15.981  22.149  1.00  0.00     0.170 HD
HETATM    5  C3  UNL     1       2.016 -17.671  21.134  1.00  0.00     0.192 A 
HETATM    6  N4  UNL     1       2.455 -18.344  22.252  1.00  0.00    -0.277 N 
ATOM      7  H4  UNL     1       2.541 -17.855  23.142  1.00  0.00     0.189 HD
HETATM    8  N5  UNL     1       2.762 -19.620  22.165  1.00  0.00    -0.250 N 
ATOM      9  H5  UNL     1       3.086 -20.102  23.003  1.00  0.00     0.192 HD
HETATM   10  C4  UNL     1       2.667 -20.314  21.018  1.00  0.00     0.341 A 
HETATM   11  O2  UNL     1       2.983 -21.539  21.024  1.00  0.00    -0.245 OA
HETATM   12  N6  UNL     1       2.244 -19.708  19.897  1.00  0.00    -0.271 N 
ATOM     13  H6  UNL     1       2.168 -20.224  19.020  1.00  0.00     0.174 HD
HETATM   14  C5  UNL     1       1.920 -18.386  19.963  1.00  0.00     0.295 A 
HETATM   15  O3  UNL     1       1.524 -17.846  18.885  1.00  0.00    -0.264 OA
ENDROOT
BRANCH   1  16
HETATM   16  C1  UNL     1       2.182 -14.834  19.340  1.00  0.00     0.468 C 
BRANCH  16  17
HETATM   17  N1  UNL     1       3.565 -15.196  19.573  1.00  0.00    -0.042 N 
ATOM     18  H13 UNL     1       3.678 -16.186  19.791  1.00  0.00     0.277 HD
ATOM     19  H12 UNL     1       4.123 -15.175  18.719  1.00  0.00     0.277 HD
ATOM     20  H11 UNL     1       3.944 -14.590  20.301  1.00  0.00     0.277 HD
ENDBRANCH  16  17
BRANCH  16  21
HETATM   21  N2  UNL     1       1.842 -15.146  17.946  1.00  0.00    -0.042 N 
ATOM     22  H23 UNL     1       2.565 -15.695  17.481  1.00  0.00     0.277 HD
ATOM     23  H22 UNL     1       1.082 -15.823  17.872  1.00  0.00     0.277 HD
ATOM     24  H21 UNL     1       1.637 -14.275  17.456  1.00  0.00     0.277 HD
ENDBRANCH  16  21
ENDBRANCH   1  16
TORSDOF 3
ENDMDL
MODEL 4
REMARK VINA RESULT: -5.480631606      1.576      4.812
REMARK  3 active torsions:
REMARK  status: ('A' for Active; 'I' for Inactive)
REMARK    1  A    between atoms: N1_1  and  C1_5 
REMARK    2  A    between atoms: C1_5  and  N2_6 
REMARK    3  A    between atoms: C1_5  and  C2_10 
REMARK       I    between atoms: C2_10  and  N3_12 
ROOT
HETATM    1  C2  UNL     1       3.033 -19.520  21.250  1.00  0.00     0.281 C 
HETATM    2  O1  UNL     1       4.273 -19.216  21.251  1.00  0.00    -0.269 OA
HETATM    3  N3  UNL     1       2.102 -18.618  21.772  1.00  0.00    -0.304 N 
ATOM      4  H3  UNL     1       1.807 -18.728  22.743  1.00  0.00     0.170 HD
HETATM    5  C3  UNL     1       1.603 -17.661  21.086  1.00  0.00     0.192 A 
HETATM    6  N4  UNL     1       0.692 -16.822  21.686  1.00  0.00    -0.277 N 
ATOM      7  H4  UNL     1       0.425 -16.968  22.660  1.00  0.00     0.189 HD
HETATM    8  N5  UNL     1       0.167 -15.831  20.998  1.00  0.00    -0.250 N 
ATOM      9  H5  UNL     1      -0.507 -15.219  21.459  1.00  0.00     0.192 HD
HETATM   10  C4  UNL     1       0.482 -15.592  19.714  1.00  0.00     0.341 A 
HETATM   11  O2  UNL     1      -0.070 -14.616  19.127  1.00  0.00    -0.245 OA
HETATM   12  N6  UNL     1       1.366 -16.378  19.078  1.00  0.00    -0.271 N 
ATOM     13  H6  UNL     1       1.613 -16.207  18.104  1.00  0.00     0.174 HD
HETATM   14  C5  UNL     1       1.923 -17.411  19.772  1.00  0.00     0.295 A 
HETATM   15  O3  UNL     1       2.753 -18.134  19.141  1.00  0.00    -0.264 OA
ENDROOT
BRANCH   1  16
HETATM   16  C1  UNL     1       2.635 -20.834  20.691  1.00  0.00     0.468 C 
BRANCH  16  17
HETATM   17  N1  UNL     1       1.340 -20.755  20.047  1.00  0.00    -0.042 N 
ATOM     18  H13 UNL     1       0.663 -21.401  20.454  1.00  0.00     0.277 HD
ATOM     19  H12 UNL     1       0.852 -19.885  20.260  1.00  0.00     0.277 HD
ATOM     20  H11 UNL     1       1.463 -20.898  19.045  1.00  0.00     0.277 HD
ENDBRANCH  16  17
BRANCH  16  21
HETATM   21  N2  UNL     1       3.648 -21.145  19.675  1.00  0.00    -0.042 N 
ATOM     22  H23 UNL     1       4.290 -20.370  19.513  1.00  0.00     0.277 HD
ATOM     23  H22 UNL     1       4.332 -21.829  20.002  1.00  0.00     0.277 HD
ATOM     24  H21 UNL     1       3.176 -21.445  18.822  1.00  0.00     0.277 HD
ENDBRANCH  16  21
ENDBRANCH   1  16
TORSDOF 3
ENDMDL
MODEL 5
REMARK VINA RESULT: -5.475892972      1.723      5.042
REMARK  3 active torsions:
REMARK  status: ('A' for Active; 'I' for Inactive)
REMARK    1  A    between atoms: N1_1  and  C1_5 
REMARK    2  A    between atoms: C1_5  and  N2_6 
REMARK    3  A    between atoms: C1_5  and  C2_10 
REMARK       I    between atoms: C2_10  and  N3_12 
ROOT
HETATM    1  C2  UNL     1       3.189 -19.276  21.860  1.00  0.00     0.281 C 
HETATM    2  O1  UNL     1       4.295 -19.350  21.227  1.00  0.00    -0.269 OA
HETATM    3  N3  UNL     1       2.704 -18.027  22.256  1.00  0.00    -0.304 N 
ATOM      4  H3  UNL     1       2.907 -17.701  23.201  1.00  0.00     0.170 HD
HETATM    5  C3  UNL     1       2.016 -17.273  21.485  1.00  0.00     0.192 A 
HETATM    6  N4  UNL     1       1.580 -16.058  21.963  1.00  0.00    -0.277 N 
ATOM      7  H4  UNL     1       1.806 -15.772  22.915  1.00  0.00     0.189 HD
HETATM    8  N5  UNL     1       0.871 -15.268  21.186  1.00  0.00    -0.250 N 
ATOM      9  H5  UNL     1       0.557 -14.372  21.557  1.00  0.00     0.192 HD
HETATM   10  C4  UNL     1       0.544 -15.594  19.923  1.00  0.00     0.341 A 
HETATM   11  O2  UNL     1      -0.141 -14.775  19.245  1.00  0.00    -0.245 OA
HETATM   12  N6  UNL     1       0.943 -16.766  19.405  1.00  0.00    -0.271 N 
ATOM     13  H6  UNL     1       0.702 -17.026  18.448  1.00  0.00     0.174 HD
HETATM   14  C5  UNL     1       1.679 -17.601  20.192  1.00  0.00     0.295 A 
HETATM   15  O3  UNL     1       2.039 -18.701  19.670  1.00  0.00    -0.264 OA
ENDROOT
BRANCH   1  16
HETATM   16  C1  UNL     1       2.464 -20.536  22.152  1.00  0.00     0.468 C 
BRANCH  16  17
HETATM   17  N1  UNL     1       2.132 -21.240  20.930  1.00  0.00    -0.042 N 
ATOM     18  H13 UNL     1       2.745 -22.037  20.760  1.00  0.00     0.277 HD
ATOM     19  H12 UNL     1       1.252 -21.750  21.001  1.00  0.00     0.277 HD
ATOM     20  H11 UNL     1       2.135 -20.574  20.157  1.00  0.00     0.277 HD
ENDBRANCH  16  17
BRANCH  16  21
HETATM   21  N2  UNL     1       3.405 -21.354  22.926  1.00  0.00    -0.042 N 
ATOM     22  H23 UNL     1       4.156 -20.801  23.338  1.00  0.00     0.277 HD
ATOM     23  H22 UNL     1       2.996 -21.704  23.793  1.00  0.00     0.277 HD
ATOM     24  H21 UNL     1       3.755 -22.104  22.330  1.00  0.00     0.277 HD
ENDBRANCH  16  21
ENDBRANCH   1  16
TORSDOF 3
ENDMDL
