MODEL 1
REMARK VINA RESULT: -6.256780461      0.000      0.000
REMARK  1 active torsions:
REMARK  status: ('A' for Active; 'I' for Inactive)
REMARK    1  A    between atoms: C1_2  and  C2_4 
ROOT
HETATM    1  C2  UNL     1       0.799 -16.177  20.738  1.00  0.00     0.143 C 
HETATM    2  N2  UNL     1       0.750 -15.670  22.099  1.00  0.00    -0.094 NA
HETATM    3  C3  UNL     1       1.585 -17.168  20.457  1.00  0.00     0.133 C 
HETATM    4  N3  UNL     1       1.701 -17.678  19.145  1.00  0.00    -0.291 N 
ATOM      5  H3  UNL     1       1.773 -16.981  18.405  1.00  0.00     0.187 HD
HETATM    6  N4  UNL     1       1.729 -19.019  18.725  1.00  0.00    -0.251 N 
ATOM      7  H4  UNL     1       1.389 -19.212  17.783  1.00  0.00     0.191 HD
HETATM    8  C4  UNL     1       2.182 -20.128  19.478  1.00  0.00     0.341 C 
HETATM    9  O2  UNL     1       1.978 -21.270  18.978  1.00  0.00    -0.245 OA
HETATM   10  N5  UNL     1       2.853 -20.195  20.749  1.00  0.00    -0.271 N 
ATOM     11  H5  UNL     1       3.344 -21.058  20.981  1.00  0.00     0.174 HD
HETATM   12  C5  UNL     1       2.879 -19.146  21.705  1.00  0.00     0.302 C 
HETATM   13  O3  UNL     1       3.441 -19.450  22.783  1.00  0.00    -0.264 OA
HETATM   14  C6  UNL     1       2.340 -17.773  21.595  1.00  0.00     0.269 C 
HETATM   15  O4  UNL     1       2.516 -16.994  22.547  1.00  0.00    -0.280 OA
ENDROOT
BRANCH   1  16
HETATM   16  C1  UNL     1      -0.031 -15.495  19.796  1.00  0.00     0.281 C 
HETATM   17  N1  UNL     1       0.215 -15.239  18.434  1.00  0.00    -0.056 NA
HETATM   18  O1  UNL     1      -1.178 -15.035  20.197  1.00  0.00    -0.270 OA
ENDBRANCH   1  16
TORSDOF 1
ENDMDL
MODEL 2
REMARK VINA RESULT: -5.968394821      1.285      1.285
REMARK  1 active torsions:
REMARK  status: ('A' for Active; 'I' for Inactive)
REMARK    1  A    between atoms: C1_2  and  C2_4 
ROOT
HETATM    1  C2  UNL     1       1.521 -16.239  20.049  1.00  0.00     0.143 C 
HETATM    2  N2  UNL     1       1.108 -15.533  21.250  1.00  0.00    -0.094 NA
HETATM    3  C3  UNL     1       2.179 -17.350  20.162  1.00  0.00     0.133 C 
HETATM    4  N3  UNL     1       2.637 -18.061  19.031  1.00  0.00    -0.291 N 
ATOM      5  H3  UNL     1       3.067 -17.497  18.298  1.00  0.00     0.187 HD
HETATM    6  N4  UNL     1       2.580 -19.444  18.781  1.00  0.00    -0.251 N 
ATOM      7  H4  UNL     1       2.545 -19.732  17.803  1.00  0.00     0.191 HD
HETATM    8  C4  UNL     1       2.566 -20.474  19.750  1.00  0.00     0.341 C 
HETATM    9  O2  UNL     1       2.352 -21.645  19.326  1.00  0.00    -0.245 OA
HETATM   10  N5  UNL     1       2.755 -20.432  21.176  1.00  0.00    -0.271 N 
ATOM     11  H5  UNL     1       2.991 -21.304  21.649  1.00  0.00     0.174 HD
HETATM   12  C5  UNL     1       2.636 -19.262  21.972  1.00  0.00     0.302 C 
HETATM   13  O3  UNL     1       2.750 -19.467  23.203  1.00  0.00    -0.264 OA
HETATM   14  C6  UNL     1       2.401 -17.865  21.546  1.00  0.00     0.269 C 
HETATM   15  O4  UNL     1       2.378 -16.980  22.417  1.00  0.00    -0.280 OA
ENDROOT
BRANCH   1  16
HETATM   16  C1  UNL     1       1.176 -15.610  18.814  1.00  0.00     0.281 C 
HETATM   17  N1  UNL     1      -0.075 -15.114  18.402  1.00  0.00    -0.056 NA
HETATM   18  O1  UNL     1       2.104 -15.446  17.920  1.00  0.00    -0.270 OA
ENDBRANCH   1  16
TORSDOF 1
ENDMDL
MODEL 3
REMARK VINA RESULT: -5.606443860      1.755      5.132
REMARK  1 active torsions:
REMARK  status: ('A' for Active; 'I' for Inactive)
REMARK    1  A    between atoms: C1_2  and  C2_4 
ROOT
HETATM    1  C2  UNL     1       2.592 -18.881  20.771  1.00  0.00     0.143 C 
HETATM    2  N2  UNL     1       3.141 -19.424  19.539  1.00  0.00    -0.094 NA
HETATM    3  C3  UNL     1       2.117 -17.676  20.777  1.00  0.00     0.133 C 
HETATM    4  N3  UNL     1       1.604 -17.084  21.952  1.00  0.00    -0.291 N 
ATOM      5  H3  UNL     1       2.159 -17.223  22.796  1.00  0.00     0.187 HD
HETATM    6  N4  UNL     1       0.429 -16.330  22.113  1.00  0.00    -0.251 N 
ATOM      7  H4  UNL     1      -0.007 -16.351  23.035  1.00  0.00     0.191 HD
HETATM    8  C4  UNL     1      -0.210 -15.544  21.125  1.00  0.00     0.341 C 
HETATM    9  O2  UNL     1      -1.341 -15.070  21.425  1.00  0.00    -0.245 OA
HETATM   10  N5  UNL     1       0.206 -15.176  19.797  1.00  0.00    -0.271 N 
ATOM     11  H5  UNL     1      -0.256 -14.380  19.359  1.00  0.00     0.174 HD
HETATM   12  C5  UNL     1       1.216 -15.843  19.054  1.00  0.00     0.302 C 
HETATM   13  O3  UNL     1       1.355 -15.416  17.883  1.00  0.00    -0.264 OA
HETATM   14  C6  UNL     1       2.103 -16.950  19.472  1.00  0.00     0.269 C 
HETATM   15  O4  UNL     1       2.956 -17.356  18.666  1.00  0.00    -0.280 OA
ENDROOT
BRANCH   1  16
HETATM   16  C1  UNL     1       2.654 -19.746  21.906  1.00  0.00     0.281 C 
HETATM   17  N1  UNL     1       2.389 -21.127  21.972  1.00  0.00    -0.056 NA
HETATM   18  O1  UNL     1       2.999 -19.243  23.053  1.00  0.00    -0.270 OA
ENDBRANCH   1  16
TORSDOF 1
ENDMDL
MODEL 4
REMARK VINA RESULT: -5.530437196      4.678      7.906
REMARK  1 active torsions:
REMARK  status: ('A' for Active; 'I' for Inactive)
REMARK    1  A    between atoms: C1_2  and  C2_4 
ROOT
HETATM    1  C2  UNL     1       5.530 -23.682  24.053  1.00  0.00     0.143 C 
HETATM    2  N2  UNL     1       4.964 -24.903  24.601  1.00  0.00    -0.094 NA
HETATM    3  C3  UNL     1       4.800 -22.930  23.292  1.00  0.00     0.133 C 
HETATM    4  N3  UNL     1       5.307 -21.751  22.702  1.00  0.00    -0.291 N 
ATOM      5  H3  UNL     1       6.238 -21.827  22.293  1.00  0.00     0.187 HD
HETATM    6  N4  UNL     1       4.700 -20.487  22.604  1.00  0.00    -0.251 N 
ATOM      7  H4  UNL     1       5.323 -19.681  22.556  1.00  0.00     0.191 HD
HETATM    8  C4  UNL     1       3.311 -20.222  22.566  1.00  0.00     0.341 C 
HETATM    9  O2  UNL     1       2.967 -19.008  22.635  1.00  0.00    -0.245 OA
HETATM   10  N5  UNL     1       2.182 -21.109  22.460  1.00  0.00    -0.271 N 
ATOM     11  H5  UNL     1       1.292 -20.710  22.163  1.00  0.00     0.174 HD
HETATM   12  C5  UNL     1       2.220 -22.500  22.741  1.00  0.00     0.302 C 
HETATM   13  O3  UNL     1       1.103 -23.065  22.675  1.00  0.00    -0.264 OA
HETATM   14  C6  UNL     1       3.379 -23.348  23.094  1.00  0.00     0.269 C 
HETATM   15  O4  UNL     1       3.191 -24.564  23.256  1.00  0.00    -0.280 OA
ENDROOT
BRANCH   1  16
HETATM   16  C1  UNL     1       6.895 -23.429  24.392  1.00  0.00     0.281 C 
HETATM   17  N1  UNL     1       7.417 -22.433  25.238  1.00  0.00    -0.056 NA
HETATM   18  O1  UNL     1       7.814 -24.192  23.883  1.00  0.00    -0.270 OA
ENDBRANCH   1  16
TORSDOF 1
ENDMDL
MODEL 5
REMARK VINA RESULT: -5.480282870      2.028      4.692
REMARK  1 active torsions:
REMARK  status: ('A' for Active; 'I' for Inactive)
REMARK    1  A    between atoms: C1_2  and  C2_4 
ROOT
HETATM    1  C2  UNL     1       3.141 -19.259  21.495  1.00  0.00     0.143 C 
HETATM    2  N2  UNL     1       2.938 -19.233  22.933  1.00  0.00    -0.094 NA
HETATM    3  C3  UNL     1       2.541 -18.382  20.753  1.00  0.00     0.133 C 
HETATM    4  N3  UNL     1       2.674 -18.381  19.347  1.00  0.00    -0.291 N 
ATOM      5  H3  UNL     1       2.608 -19.293  18.896  1.00  0.00     0.187 HD
HETATM    6  N4  UNL     1       2.884 -17.289  18.487  1.00  0.00    -0.251 N 
ATOM      7  H4  UNL     1       3.371 -17.482  17.611  1.00  0.00     0.191 HD
HETATM    8  C4  UNL     1       2.488 -15.950  18.713  1.00  0.00     0.341 C 
HETATM    9  O2  UNL     1       2.910 -15.090  17.890  1.00  0.00    -0.245 OA
HETATM   10  N5  UNL     1       1.667 -15.369  19.743  1.00  0.00    -0.271 N 
ATOM     11  H5  UNL     1       1.270 -14.447  19.569  1.00  0.00     0.174 HD
HETATM   12  C5  UNL     1       1.371 -15.991  20.985  1.00  0.00     0.302 C 
HETATM   13  O3  UNL     1       0.714 -15.270  21.773  1.00  0.00    -0.264 OA
HETATM   14  C6  UNL     1       1.729 -17.345  21.458  1.00  0.00     0.269 C 
HETATM   15  O4  UNL     1       1.323 -17.705  22.575  1.00  0.00    -0.280 OA
ENDROOT
BRANCH   1  16
HETATM   16  C1  UNL     1       3.991 -20.300  21.011  1.00  0.00     0.281 C 
HETATM   17  N1  UNL     1       3.729 -21.251  20.008  1.00  0.00    -0.056 NA
HETATM   18  O1  UNL     1       5.176 -20.427  21.529  1.00  0.00    -0.270 OA
ENDBRANCH   1  16
TORSDOF 1
ENDMDL
