MODEL 1
REMARK VINA RESULT: -6.268151805      0.000      0.000
REMARK  2 active torsions:
REMARK  status: ('A' for Active; 'I' for Inactive)
REMARK    1  A    between atoms: C5_8  and  C6_9 
REMARK    2  A    between atoms: C10_15  and  N2_16 
ROOT
HETATM    1  C1  UNL     1      -0.732  25.950   7.818  1.00  0.00     0.023 C 
HETATM    2  C2  UNL     1       0.126  25.605   6.591  1.00  0.00     0.019 C 
HETATM    3  C3  UNL     1       0.046  24.088   6.422  1.00  0.00     0.023 C 
HETATM    4  C4  UNL     1      -0.472  26.214   5.405  1.00  0.00    -0.001 C 
HETATM    5  N1  UNL     1      -1.579  25.648   5.039  1.00  0.00    -0.404 N 
ATOM      6  H11 UNL     1      -1.997  26.074   4.211  1.00  0.00     0.155 HD
ATOM      7  H12 UNL     1      -1.855  24.870   5.637  1.00  0.00     0.155 HD
HETATM    8  C5  UNL     1      -0.070  27.343   4.536  1.00  0.00     0.097 C 
HETATM    9  C7  UNL     1       1.284  27.092   3.901  1.00  0.00     0.016 C 
HETATM   10  C8  UNL     1       2.319  27.335   4.993  1.00  0.00     0.003 C 
HETATM   11  C9  UNL     1       2.456  26.022   5.745  1.00  0.00     0.034 C 
HETATM   12  C10 UNL     1       1.509  26.062   6.902  1.00  0.00     0.197 C 
ENDROOT
BRANCH  12  13
HETATM   13  N2  UNL     1       1.997  25.287   8.031  1.00  0.00    -0.074 N 
ATOM     14  H23 UNL     1       1.260  24.749   8.488  1.00  0.00     0.274 HD
ATOM     15  H22 UNL     1       2.584  24.503   7.746  1.00  0.00     0.274 HD
ATOM     16  H21 UNL     1       2.473  25.924   8.670  1.00  0.00     0.274 HD
ENDBRANCH  12  13
BRANCH   8  17
HETATM   17  C6  UNL     1      -1.053  27.568   3.422  1.00  0.00     0.362 C 
HETATM   18  F1  UNL     1      -0.331  27.763   2.256  1.00  0.00    -0.214 F 
HETATM   19  F2  UNL     1      -1.854  28.661   3.603  1.00  0.00    -0.214 F 
ENDBRANCH   8  17
TORSDOF 2
ENDMDL
MODEL 2
REMARK VINA RESULT: -6.157424897      3.149      4.624
REMARK  2 active torsions:
REMARK  status: ('A' for Active; 'I' for Inactive)
REMARK    1  A    between atoms: C5_8  and  C6_9 
REMARK    2  A    between atoms: C10_15  and  N2_16 
ROOT
HETATM    1  C1  UNL     1      -0.113  28.723   2.248  1.00  0.00     0.023 C 
HETATM    2  C2  UNL     1       1.124  28.820   3.154  1.00  0.00     0.019 C 
HETATM    3  C3  UNL     1       1.349  30.309   3.419  1.00  0.00     0.023 C 
HETATM    4  C4  UNL     1       0.828  28.183   4.435  1.00  0.00    -0.001 C 
HETATM    5  N1  UNL     1      -0.005  28.857   5.164  1.00  0.00    -0.404 N 
ATOM      6  H11 UNL     1      -0.212  28.412   6.059  1.00  0.00     0.155 HD
ATOM      7  H12 UNL     1      -0.321  29.722   4.727  1.00  0.00     0.155 HD
HETATM    8  C5  UNL     1       1.287  26.927   5.071  1.00  0.00     0.097 C 
HETATM    9  C7  UNL     1       2.792  26.923   5.253  1.00  0.00     0.016 C 
HETATM   10  C8  UNL     1       3.388  26.650   3.876  1.00  0.00     0.003 C 
HETATM   11  C9  UNL     1       3.500  28.001   3.190  1.00  0.00     0.034 C 
HETATM   12  C10 UNL     1       2.250  28.210   2.395  1.00  0.00     0.197 C 
ENDROOT
BRANCH  12  13
HETATM   13  N2  UNL     1       2.488  29.019   1.211  1.00  0.00    -0.074 N 
ATOM     14  H23 UNL     1       2.108  28.598   0.363  1.00  0.00     0.274 HD
ATOM     15  H22 UNL     1       1.931  29.874   1.200  1.00  0.00     0.274 HD
ATOM     16  H21 UNL     1       3.490  29.200   1.146  1.00  0.00     0.274 HD
ENDBRANCH  12  13
BRANCH   8  17
HETATM   17  C6  UNL     1       0.670  26.730   6.426  1.00  0.00     0.362 C 
HETATM   18  F1  UNL     1       1.622  26.136   7.240  1.00  0.00    -0.214 F 
HETATM   19  F2  UNL     1      -0.432  25.922   6.420  1.00  0.00    -0.214 F 
ENDBRANCH   8  17
TORSDOF 2
ENDMDL
MODEL 3
REMARK VINA RESULT: -6.021869791      2.758      4.189
REMARK  2 active torsions:
REMARK  status: ('A' for Active; 'I' for Inactive)
REMARK    1  A    between atoms: C5_8  and  C6_9 
REMARK    2  A    between atoms: C10_15  and  N2_16 
ROOT
HETATM    1  C1  UNL     1       0.349  27.677   1.687  1.00  0.00     0.023 C 
HETATM    2  C2  UNL     1       0.699  28.075   3.129  1.00  0.00     0.019 C 
HETATM    3  C3  UNL     1       0.157  29.491   3.329  1.00  0.00     0.023 C 
HETATM    4  C4  UNL     1      -0.013  27.196   4.053  1.00  0.00    -0.001 C 
HETATM    5  N1  UNL     1      -1.290  27.414   4.091  1.00  0.00    -0.404 N 
ATOM      6  H11 UNL     1      -1.788  26.799   4.736  1.00  0.00     0.155 HD
ATOM      7  H12 UNL     1      -1.593  28.164   3.469  1.00  0.00     0.155 HD
HETATM    8  C5  UNL     1       0.427  26.107   4.956  1.00  0.00     0.097 C 
HETATM    9  C7  UNL     1       1.424  26.614   5.980  1.00  0.00     0.016 C 
HETATM   10  C8  UNL     1       2.748  26.775   5.242  1.00  0.00     0.003 C 
HETATM   11  C9  UNL     1       2.719  28.161   4.622  1.00  0.00     0.034 C 
HETATM   12  C10 UNL     1       2.183  28.024   3.232  1.00  0.00     0.197 C 
ENDROOT
BRANCH  12  13
HETATM   13  N2  UNL     1       2.733  29.029   2.335  1.00  0.00    -0.074 N 
ATOM     14  H23 UNL     1       2.449  28.888   1.366  1.00  0.00     0.274 HD
ATOM     15  H22 UNL     1       2.312  29.949   2.470  1.00  0.00     0.274 HD
ATOM     16  H21 UNL     1       3.746  29.037   2.452  1.00  0.00     0.274 HD
ENDBRANCH  12  13
BRANCH   8  17
HETATM   17  C6  UNL     1      -0.726  25.508   5.710  1.00  0.00     0.362 C 
HETATM   18  F1  UNL     1      -0.546  25.797   7.054  1.00  0.00    -0.214 F 
HETATM   19  F2  UNL     1      -0.821  24.150   5.587  1.00  0.00    -0.214 F 
ENDBRANCH   8  17
TORSDOF 2
ENDMDL
MODEL 4
REMARK VINA RESULT: -6.006147802      2.828      3.668
REMARK  2 active torsions:
REMARK  status: ('A' for Active; 'I' for Inactive)
REMARK    1  A    between atoms: C5_8  and  C6_9 
REMARK    2  A    between atoms: C10_15  and  N2_16 
ROOT
HETATM    1  C1  UNL     1      -0.289  29.143   4.940  1.00  0.00     0.023 C 
HETATM    2  C2  UNL     1       0.532  27.979   4.365  1.00  0.00     0.019 C 
HETATM    3  C3  UNL     1      -0.477  26.940   3.873  1.00  0.00     0.023 C 
HETATM    4  C4  UNL     1       1.281  28.452   3.203  1.00  0.00    -0.001 C 
HETATM    5  N1  UNL     1       0.533  28.695   2.173  1.00  0.00    -0.404 N 
ATOM      6  H11 UNL     1       1.056  29.026   1.361  1.00  0.00     0.155 HD
ATOM      7  H12 UNL     1      -0.458  28.518   2.339  1.00  0.00     0.155 HD
HETATM    8  C5  UNL     1       2.719  28.708   2.962  1.00  0.00     0.097 C 
HETATM    9  C7  UNL     1       3.541  27.449   3.160  1.00  0.00     0.016 C 
HETATM   10  C8  UNL     1       3.650  27.242   4.666  1.00  0.00     0.003 C 
HETATM   11  C9  UNL     1       2.410  26.467   5.076  1.00  0.00     0.034 C 
HETATM   12  C10 UNL     1       1.368  27.461   5.483  1.00  0.00     0.197 C 
ENDROOT
BRANCH  12  13
HETATM   13  N2  UNL     1       0.480  26.931   6.504  1.00  0.00    -0.074 N 
ATOM     14  H23 UNL     1       0.912  26.904   7.427  1.00  0.00     0.274 HD
ATOM     15  H22 UNL     1      -0.286  27.567   6.729  1.00  0.00     0.274 HD
ATOM     16  H21 UNL     1       0.153  26.015   6.196  1.00  0.00     0.274 HD
ENDBRANCH  12  13
BRANCH   8  17
HETATM   17  C6  UNL     1       2.973  29.195   1.564  1.00  0.00     0.362 C 
HETATM   18  F1  UNL     1       4.131  28.586   1.109  1.00  0.00    -0.214 F 
HETATM   19  F2  UNL     1       3.151  30.547   1.472  1.00  0.00    -0.214 F 
ENDBRANCH   8  17
TORSDOF 2
ENDMDL
MODEL 5
REMARK VINA RESULT: -5.979124022      2.944      4.695
REMARK  2 active torsions:
REMARK  status: ('A' for Active; 'I' for Inactive)
REMARK    1  A    between atoms: C5_8  and  C6_9 
REMARK    2  A    between atoms: C10_15  and  N2_16 
ROOT
HETATM    1  C1  UNL     1       3.339  29.546   4.126  1.00  0.00     0.023 C 
HETATM    2  C2  UNL     1       2.527  28.361   3.579  1.00  0.00     0.019 C 
HETATM    3  C3  UNL     1       3.521  27.458   2.848  1.00  0.00     0.023 C 
HETATM    4  C4  UNL     1       1.981  27.600   4.700  1.00  0.00    -0.001 C 
HETATM    5  N1  UNL     1       2.879  26.938   5.359  1.00  0.00    -0.404 N 
ATOM      6  H11 UNL     1       2.498  26.407   6.142  1.00  0.00     0.155 HD
ATOM      7  H12 UNL     1       3.823  27.055   4.990  1.00  0.00     0.155 HD
HETATM    8  C5  UNL     1       0.611  27.430   5.236  1.00  0.00     0.097 C 
HETATM    9  C7  UNL     1      -0.315  26.834   4.193  1.00  0.00     0.016 C 
HETATM   10  C8  UNL     1      -0.646  27.962   3.222  1.00  0.00     0.003 C 
HETATM   11  C9  UNL     1       0.469  27.970   2.190  1.00  0.00     0.034 C 
HETATM   12  C10 UNL     1       1.511  28.938   2.657  1.00  0.00     0.197 C 
ENDROOT
BRANCH  12  13
HETATM   13  N2  UNL     1       2.210  29.561   1.546  1.00  0.00    -0.074 N 
ATOM     14  H23 UNL     1       3.207  29.681   1.725  1.00  0.00     0.274 HD
ATOM     15  H22 UNL     1       2.289  28.947   0.735  1.00  0.00     0.274 HD
ATOM     16  H21 UNL     1       1.741  30.441   1.329  1.00  0.00     0.274 HD
ENDBRANCH  12  13
BRANCH   8  17
HETATM   17  C6  UNL     1       0.588  26.518   6.430  1.00  0.00     0.362 C 
HETATM   18  F1  UNL     1       0.063  25.303   6.022  1.00  0.00    -0.214 F 
HETATM   19  F2  UNL     1      -0.182  26.978   7.462  1.00  0.00    -0.214 F 
ENDBRANCH   8  17
TORSDOF 2
ENDMDL
