MODEL 1
REMARK VINA RESULT: -6.687688468      0.000      0.000
REMARK  3 active torsions:
REMARK  status: ('A' for Active; 'I' for Inactive)
REMARK    1  A    between atoms: C5_5  and  C6_6 
REMARK    2  A    between atoms: C7_10  and  C8_11 
REMARK    3  A    between atoms: C9_15  and  O1_16 
ROOT
HETATM    1  C1  UNL     1       4.362  29.448   2.306  1.00  0.00     0.010 C 
HETATM    2  C2  UNL     1       3.208  28.494   2.092  1.00  0.00    -0.016 C 
HETATM    3  C3  UNL     1       3.303  27.294   3.018  1.00  0.00     0.005 C 
HETATM    4  C4  UNL     1       2.962  27.633   4.426  1.00  0.00     0.014 C 
HETATM    5  C5  UNL     1       1.535  27.790   4.766  1.00  0.00     0.105 C 
HETATM    6  C7  UNL     1       0.534  27.576   3.695  1.00  0.00     0.065 C 
HETATM    7  C9  UNL     1       0.735  28.304   2.415  1.00  0.00     0.128 C 
HETATM    8  C10 UNL     1       1.912  29.229   2.367  1.00  0.00     0.036 C 
ENDROOT
BRANCH   5   9
HETATM    9  C6  UNL     1       1.250  26.752   5.866  1.00  0.00     0.392 C 
HETATM   10  F1  UNL     1       0.842  25.587   5.259  1.00  0.00    -0.171 F 
HETATM   11  F2  UNL     1       0.301  27.157   6.752  1.00  0.00    -0.171 F 
HETATM   12  F3  UNL     1       2.438  26.476   6.556  1.00  0.00    -0.171 F 
ENDBRANCH   5   9
BRANCH   6  13
HETATM   13  C8  UNL     1      -0.802  28.013   4.230  1.00  0.00     0.060 C 
HETATM   14  N1  UNL     1      -1.619  28.496   3.376  1.00  0.00    -0.411 N 
ATOM     15  H12 UNL     1      -1.364  28.574   2.392  1.00  0.00     0.155 HD
ATOM     16  H11 UNL     1      -2.525  28.792   3.738  1.00  0.00     0.155 HD
ENDBRANCH   6  13
BRANCH   7  17
HETATM   17  O1  UNL     1       0.816  27.339   1.384  1.00  0.00    -0.395 OA
ATOM     18  H1  UNL     1       1.581  27.545   0.860  1.00  0.00     0.210 HD
ENDBRANCH   7  17
TORSDOF 3
ENDMDL
MODEL 2
REMARK VINA RESULT: -6.608673415      1.717      2.155
REMARK  3 active torsions:
REMARK  status: ('A' for Active; 'I' for Inactive)
REMARK    1  A    between atoms: C5_5  and  C6_6 
REMARK    2  A    between atoms: C7_10  and  C8_11 
REMARK    3  A    between atoms: C9_15  and  O1_16 
ROOT
HETATM    1  C1  UNL     1       3.735  28.916   3.370  1.00  0.00     0.010 C 
HETATM    2  C2  UNL     1       2.997  27.606   3.200  1.00  0.00    -0.016 C 
HETATM    3  C3  UNL     1       3.355  26.623   4.302  1.00  0.00     0.005 C 
HETATM    4  C4  UNL     1       2.735  26.980   5.606  1.00  0.00     0.014 C 
HETATM    5  C5  UNL     1       1.303  26.674   5.790  1.00  0.00     0.105 C 
HETATM    6  C7  UNL     1       0.582  26.011   4.679  1.00  0.00     0.065 C 
HETATM    7  C9  UNL     1       0.704  26.617   3.327  1.00  0.00     0.128 C 
HETATM    8  C10 UNL     1       1.507  27.878   3.245  1.00  0.00     0.036 C 
ENDROOT
BRANCH   5   9
HETATM    9  C6  UNL     1       1.229  25.732   7.004  1.00  0.00     0.392 C 
HETATM   10  F1  UNL     1       2.409  25.843   7.704  1.00  0.00    -0.171 F 
HETATM   11  F2  UNL     1       1.027  24.431   6.663  1.00  0.00    -0.171 F 
HETATM   12  F3  UNL     1       0.195  26.153   7.851  1.00  0.00    -0.171 F 
ENDBRANCH   5   9
BRANCH   6  13
HETATM   13  C8  UNL     1      -0.883  26.020   5.020  1.00  0.00     0.060 C 
HETATM   14  N1  UNL     1      -1.499  24.911   4.882  1.00  0.00    -0.411 N 
ATOM     15  H12 UNL     1      -1.012  24.077   4.556  1.00  0.00     0.155 HD
ATOM     16  H11 UNL     1      -2.492  24.916   5.113  1.00  0.00     0.155 HD
ENDBRANCH   6  13
BRANCH   7  17
HETATM   17  O1  UNL     1       1.235  25.629   2.465  1.00  0.00    -0.395 OA
ATOM     18  H1  UNL     1       1.757  25.038   2.995  1.00  0.00     0.210 HD
ENDBRANCH   7  17
TORSDOF 3
ENDMDL
MODEL 3
REMARK VINA RESULT: -6.502107130      1.678      2.540
REMARK  3 active torsions:
REMARK  status: ('A' for Active; 'I' for Inactive)
REMARK    1  A    between atoms: C5_5  and  C6_6 
REMARK    2  A    between atoms: C7_10  and  C8_11 
REMARK    3  A    between atoms: C9_15  and  O1_16 
ROOT
HETATM    1  C1  UNL     1       0.679  31.457   2.361  1.00  0.00     0.010 C 
HETATM    2  C2  UNL     1       0.817  30.025   1.891  1.00  0.00    -0.016 C 
HETATM    3  C3  UNL     1       2.215  29.491   2.150  1.00  0.00     0.005 C 
HETATM    4  C4  UNL     1       2.457  29.204   3.590  1.00  0.00     0.014 C 
HETATM    5  C5  UNL     1       1.875  27.968   4.148  1.00  0.00     0.105 C 
HETATM    6  C7  UNL     1       1.110  27.083   3.240  1.00  0.00     0.065 C 
HETATM    7  C9  UNL     1       0.041  27.706   2.417  1.00  0.00     0.128 C 
HETATM    8  C10 UNL     1      -0.186  29.170   2.638  1.00  0.00     0.036 C 
ENDROOT
BRANCH   5   9
HETATM    9  C6  UNL     1       3.063  27.151   4.685  1.00  0.00     0.392 C 
HETATM   10  F1  UNL     1       4.172  27.965   4.695  1.00  0.00    -0.171 F 
HETATM   11  F2  UNL     1       3.325  26.039   3.947  1.00  0.00    -0.171 F 
HETATM   12  F3  UNL     1       2.802  26.775   6.009  1.00  0.00    -0.171 F 
ENDBRANCH   5   9
BRANCH   6  13
HETATM   13  C8  UNL     1       0.440  26.035   4.086  1.00  0.00     0.060 C 
HETATM   14  N1  UNL     1      -0.478  26.449   4.871  1.00  0.00    -0.411 N 
ATOM     15  H12 UNL     1      -0.730  27.435   4.910  1.00  0.00     0.155 HD
ATOM     16  H11 UNL     1      -0.932  25.739   5.445  1.00  0.00     0.155 HD
ENDBRANCH   6  13
BRANCH   7  17
HETATM   17  O1  UNL     1       0.344  27.448   1.059  1.00  0.00    -0.395 OA
ATOM     18  H1  UNL     1      -0.194  26.717   0.780  1.00  0.00     0.210 HD
ENDBRANCH   7  17
TORSDOF 3
ENDMDL
MODEL 4
REMARK VINA RESULT: -6.480707705      2.987      4.485
REMARK  3 active torsions:
REMARK  status: ('A' for Active; 'I' for Inactive)
REMARK    1  A    between atoms: C5_5  and  C6_6 
REMARK    2  A    between atoms: C7_10  and  C8_11 
REMARK    3  A    between atoms: C9_15  and  O1_16 
ROOT
HETATM    1  C1  UNL     1       0.036  24.916   7.296  1.00  0.00     0.010 C 
HETATM    2  C2  UNL     1       0.832  25.234   6.049  1.00  0.00    -0.016 C 
HETATM    3  C3  UNL     1      -0.075  25.391   4.840  1.00  0.00     0.005 C 
HETATM    4  C4  UNL     1      -0.839  26.667   4.864  1.00  0.00     0.014 C 
HETATM    5  C5  UNL     1      -0.120  27.902   4.494  1.00  0.00     0.105 C 
HETATM    6  C7  UNL     1       1.303  27.790   4.099  1.00  0.00     0.065 C 
HETATM    7  C9  UNL     1       2.210  27.044   5.011  1.00  0.00     0.128 C 
HETATM    8  C10 UNL     1       1.588  26.527   6.271  1.00  0.00     0.036 C 
ENDROOT
BRANCH   5   9
HETATM    9  C6  UNL     1      -0.880  28.483   3.289  1.00  0.00     0.392 C 
HETATM   10  F1  UNL     1      -2.211  28.163   3.429  1.00  0.00    -0.171 F 
HETATM   11  F2  UNL     1      -0.427  28.019   2.094  1.00  0.00    -0.171 F 
HETATM   12  F3  UNL     1      -0.777  29.880   3.311  1.00  0.00    -0.171 F 
ENDBRANCH   5   9
BRANCH   6  13
HETATM   13  C8  UNL     1       1.855  29.186   3.997  1.00  0.00     0.060 C 
HETATM   14  N1  UNL     1       3.127  29.286   3.958  1.00  0.00    -0.411 N 
ATOM     15  H12 UNL     1       3.720  28.458   3.996  1.00  0.00     0.155 HD
ATOM     16  H11 UNL     1       3.502  30.232   3.888  1.00  0.00     0.155 HD
ENDBRANCH   6  13
BRANCH   7  17
HETATM   17  O1  UNL     1       2.784  25.987   4.267  1.00  0.00    -0.395 OA
ATOM     18  H1  UNL     1       2.934  25.265   4.866  1.00  0.00     0.210 HD
ENDBRANCH   7  17
TORSDOF 3
ENDMDL
MODEL 5
REMARK VINA RESULT: -6.439930690      2.853      4.211
REMARK  3 active torsions:
REMARK  status: ('A' for Active; 'I' for Inactive)
REMARK    1  A    between atoms: C5_5  and  C6_6 
REMARK    2  A    between atoms: C7_10  and  C8_11 
REMARK    3  A    between atoms: C9_15  and  O1_16 
ROOT
HETATM    1  C1  UNL     1       1.243  25.924   7.160  1.00  0.00     0.010 C 
HETATM    2  C2  UNL     1       1.644  25.844   5.702  1.00  0.00    -0.016 C 
HETATM    3  C3  UNL     1       0.431  25.917   4.791  1.00  0.00     0.005 C 
HETATM    4  C4  UNL     1      -0.142  27.288   4.716  1.00  0.00     0.014 C 
HETATM    5  C5  UNL     1       0.558  28.278   3.875  1.00  0.00     0.105 C 
HETATM    6  C7  UNL     1       1.768  27.841   3.142  1.00  0.00     0.065 C 
HETATM    7  C9  UNL     1       2.824  27.141   3.920  1.00  0.00     0.128 C 
HETATM    8  C10 UNL     1       2.570  27.001   5.389  1.00  0.00     0.036 C 
ENDROOT
BRANCH   5   9
HETATM    9  C6  UNL     1      -0.469  28.735   2.824  1.00  0.00     0.392 C 
HETATM   10  F1  UNL     1      -0.372  27.895   1.739  1.00  0.00    -0.171 F 
HETATM   11  F2  UNL     1      -0.286  30.020   2.419  1.00  0.00    -0.171 F 
HETATM   12  F3  UNL     1      -1.760  28.597   3.352  1.00  0.00    -0.171 F 
ENDBRANCH   5   9
BRANCH   6  13
HETATM   13  C8  UNL     1       2.412  29.069   2.558  1.00  0.00     0.060 C 
HETATM   14  N1  UNL     1       3.463  28.875   1.860  1.00  0.00    -0.411 N 
ATOM     15  H12 UNL     1       3.832  27.935   1.718  1.00  0.00     0.155 HD
ATOM     16  H11 UNL     1       3.899  29.707   1.464  1.00  0.00     0.155 HD
ENDBRANCH   6  13
BRANCH   7  17
HETATM   17  O1  UNL     1       3.021  25.873   3.324  1.00  0.00    -0.395 OA
ATOM     18  H1  UNL     1       3.746  25.456   3.774  1.00  0.00     0.210 HD
ENDBRANCH   7  17
TORSDOF 3
ENDMDL
