MODEL 1
REMARK VINA RESULT: -6.842115885      0.000      0.000
REMARK  4 active torsions:
REMARK  status: ('A' for Active; 'I' for Inactive)
REMARK    1  A    between atoms: C2_2  and  C3_5 
REMARK    2  A    between atoms: C3_5  and  N2_10 
REMARK    3  A    between atoms: N1_6  and  O1_8 
REMARK    4  A    between atoms: N2_10  and  C4_12 
ROOT
HETATM    1  C3  UNL     1       1.028  24.559  10.423  1.00  0.00     0.170 C 
HETATM    2  N1  UNL     1       0.057  25.279  10.850  1.00  0.00    -0.252 N 
ATOM      3  H1  UNL     1      -0.726  25.407  10.208  1.00  0.00     0.195 HD
ENDROOT
BRANCH   1   4
HETATM    4  C2  UNL     1       2.186  24.348  11.324  1.00  0.00     0.298 C 
HETATM    5  C1  UNL     1       1.853  23.281  12.341  1.00  0.00     0.099 C 
HETATM    6  F1  UNL     1       2.601  25.453  11.991  1.00  0.00    -0.198 F 
HETATM    7  F2  UNL     1       3.224  23.883  10.513  1.00  0.00    -0.198 F 
ENDBRANCH   1   4
BRANCH   1   8
HETATM    8  N2  UNL     1       1.030  23.972   9.148  1.00  0.00    -0.369 N 
ATOM      9  H2  UNL     1       1.581  23.121   9.038  1.00  0.00     0.161 HD
BRANCH   8  10
HETATM   10  C4  UNL     1       0.346  24.440   7.998  1.00  0.00     0.083 C 
HETATM   11  C5  UNL     1       0.308  23.470   6.839  1.00  0.00     0.025 C 
HETATM   12  C6  UNL     1      -0.368  24.358   5.781  1.00  0.00     0.002 C 
HETATM   13  C7  UNL     1       0.352  25.654   5.967  1.00  0.00     0.002 C 
HETATM   14  C8  UNL     1       0.973  25.652   7.346  1.00  0.00     0.025 C 
ENDBRANCH   8  10
ENDBRANCH   1   8
BRANCH   2  15
HETATM   15  O1  UNL     1      -0.049  25.888  12.050  1.00  0.00    -0.288 OA
ATOM     16  H1  UNL     1      -0.731  26.484  12.338  1.00  0.00     0.244 HD
ENDBRANCH   2  15
TORSDOF 4
ENDMDL
MODEL 2
REMARK VINA RESULT: -6.806355865      0.988      1.143
REMARK  4 active torsions:
REMARK  status: ('A' for Active; 'I' for Inactive)
REMARK    1  A    between atoms: C2_2  and  C3_5 
REMARK    2  A    between atoms: C3_5  and  N2_10 
REMARK    3  A    between atoms: N1_6  and  O1_8 
REMARK    4  A    between atoms: N2_10  and  C4_12 
ROOT
HETATM    1  C3  UNL     1       1.050  24.640  10.447  1.00  0.00     0.170 C 
HETATM    2  N1  UNL     1       0.189  25.513  10.824  1.00  0.00    -0.252 N 
ATOM      3  H1  UNL     1      -0.286  26.028  10.083  1.00  0.00     0.195 HD
ENDROOT
BRANCH   1   4
HETATM    4  C2  UNL     1       1.763  23.870  11.493  1.00  0.00     0.298 C 
HETATM    5  C1  UNL     1       2.716  22.890  10.845  1.00  0.00     0.099 C 
HETATM    6  F1  UNL     1       0.963  23.182  12.344  1.00  0.00    -0.198 F 
HETATM    7  F2  UNL     1       2.509  24.804  12.217  1.00  0.00    -0.198 F 
ENDBRANCH   1   4
BRANCH   1   8
HETATM    8  N2  UNL     1       1.334  24.395   9.095  1.00  0.00    -0.369 N 
ATOM      9  H2  UNL     1       2.157  23.826   8.897  1.00  0.00     0.161 HD
BRANCH   8  10
HETATM   10  C4  UNL     1       0.597  24.856   7.976  1.00  0.00     0.083 C 
HETATM   11  C5  UNL     1       0.218  23.787   6.976  1.00  0.00     0.025 C 
HETATM   12  C6  UNL     1      -0.420  24.667   5.887  1.00  0.00     0.002 C 
HETATM   13  C7  UNL     1       0.548  25.802   5.807  1.00  0.00     0.002 C 
HETATM   14  C8  UNL     1       1.342  25.833   7.094  1.00  0.00     0.025 C 
ENDBRANCH   8  10
ENDBRANCH   1   8
BRANCH   2  15
HETATM   15  O1  UNL     1      -0.161  25.829  12.089  1.00  0.00    -0.288 OA
ATOM     16  H1  UNL     1       0.414  25.935  12.839  1.00  0.00     0.244 HD
ENDBRANCH   2  15
TORSDOF 4
ENDMDL
MODEL 3
REMARK VINA RESULT: -6.803407476      2.970      5.022
REMARK  4 active torsions:
REMARK  status: ('A' for Active; 'I' for Inactive)
REMARK    1  A    between atoms: C2_2  and  C3_5 
REMARK    2  A    between atoms: C3_5  and  N2_10 
REMARK    3  A    between atoms: N1_6  and  O1_8 
REMARK    4  A    between atoms: N2_10  and  C4_12 
ROOT
HETATM    1  C3  UNL     1       0.451  24.322   8.249  1.00  0.00     0.170 C 
HETATM    2  N1  UNL     1       0.637  23.259   7.555  1.00  0.00    -0.252 N 
ATOM      3  H1  UNL     1       0.936  22.431   8.069  1.00  0.00     0.195 HD
ENDROOT
BRANCH   1   4
HETATM    4  C2  UNL     1       0.016  25.548   7.540  1.00  0.00     0.298 C 
HETATM    5  C1  UNL     1       1.195  26.172   6.827  1.00  0.00     0.099 C 
HETATM    6  F1  UNL     1      -0.551  26.495   8.328  1.00  0.00    -0.198 F 
HETATM    7  F2  UNL     1      -0.912  25.130   6.582  1.00  0.00    -0.198 F 
ENDBRANCH   1   4
BRANCH   1   8
HETATM    8  N2  UNL     1       0.646  24.360   9.638  1.00  0.00    -0.369 N 
ATOM      9  H2  UNL     1      -0.192  24.422  10.215  1.00  0.00     0.161 HD
BRANCH   8  10
HETATM   10  C4  UNL     1       1.887  24.322  10.322  1.00  0.00     0.083 C 
HETATM   11  C5  UNL     1       2.326  22.947  10.773  1.00  0.00     0.025 C 
HETATM   12  C6  UNL     1       3.590  23.326  11.563  1.00  0.00     0.002 C 
HETATM   13  C7  UNL     1       3.123  24.520  12.330  1.00  0.00     0.002 C 
HETATM   14  C8  UNL     1       1.905  25.080  11.630  1.00  0.00     0.025 C 
ENDBRANCH   8  10
ENDBRANCH   1   8
BRANCH   2  15
HETATM   15  O1  UNL     1       0.481  23.111   6.222  1.00  0.00    -0.288 OA
ATOM     16  H1  UNL     1       0.218  22.326   5.754  1.00  0.00     0.244 HD
ENDBRANCH   2  15
TORSDOF 4
ENDMDL
MODEL 4
REMARK VINA RESULT: -6.748800971      3.021      5.091
REMARK  4 active torsions:
REMARK  status: ('A' for Active; 'I' for Inactive)
REMARK    1  A    between atoms: C2_2  and  C3_5 
REMARK    2  A    between atoms: C3_5  and  N2_10 
REMARK    3  A    between atoms: N1_6  and  O1_8 
REMARK    4  A    between atoms: N2_10  and  C4_12 
ROOT
HETATM    1  C3  UNL     1       0.610  23.890   8.098  1.00  0.00     0.170 C 
HETATM    2  N1  UNL     1       0.919  22.725   7.660  1.00  0.00    -0.252 N 
ATOM      3  H1  UNL     1       1.217  22.044   8.360  1.00  0.00     0.195 HD
ENDROOT
BRANCH   1   4
HETATM    4  C2  UNL     1       0.173  24.909   7.114  1.00  0.00     0.298 C 
HETATM    5  C1  UNL     1      -0.330  26.136   7.840  1.00  0.00     0.099 C 
HETATM    6  F1  UNL     1      -0.794  24.499   6.256  1.00  0.00    -0.198 F 
HETATM    7  F2  UNL     1       1.315  25.257   6.388  1.00  0.00    -0.198 F 
ENDBRANCH   1   4
BRANCH   1   8
HETATM    8  N2  UNL     1       0.672  24.227   9.458  1.00  0.00    -0.369 N 
ATOM      9  H2  UNL     1      -0.217  24.411   9.924  1.00  0.00     0.161 HD
BRANCH   8  10
HETATM   10  C4  UNL     1       1.840  24.337  10.253  1.00  0.00     0.083 C 
HETATM   11  C5  UNL     1       2.336  23.037  10.845  1.00  0.00     0.025 C 
HETATM   12  C6  UNL     1       3.486  23.571  11.715  1.00  0.00     0.002 C 
HETATM   13  C7  UNL     1       2.859  24.773  12.343  1.00  0.00     0.002 C 
HETATM   14  C8  UNL     1       1.676  25.183  11.496  1.00  0.00     0.025 C 
ENDBRANCH   8  10
ENDBRANCH   1   8
BRANCH   2  15
HETATM   15  O1  UNL     1       0.897  22.295   6.380  1.00  0.00    -0.288 OA
ATOM     16  H1  UNL     1       0.548  21.474   6.052  1.00  0.00     0.244 HD
ENDBRANCH   2  15
TORSDOF 4
ENDMDL
MODEL 5
REMARK VINA RESULT: -6.723434194      2.075      2.508
REMARK  4 active torsions:
REMARK  status: ('A' for Active; 'I' for Inactive)
REMARK    1  A    between atoms: C2_2  and  C3_5 
REMARK    2  A    between atoms: C3_5  and  N2_10 
REMARK    3  A    between atoms: N1_6  and  O1_8 
REMARK    4  A    between atoms: N2_10  and  C4_12 
ROOT
HETATM    1  C3  UNL     1       1.413  23.426  10.014  1.00  0.00     0.170 C 
HETATM    2  N1  UNL     1       2.484  22.720  10.006  1.00  0.00    -0.252 N 
ATOM      3  H1  UNL     1       2.717  22.264   9.124  1.00  0.00     0.195 HD
ENDROOT
BRANCH   1   4
HETATM    4  C2  UNL     1       1.037  24.106  11.276  1.00  0.00     0.298 C 
HETATM    5  C1  UNL     1       2.082  25.140  11.628  1.00  0.00     0.099 C 
HETATM    6  F1  UNL     1       0.878  23.285  12.344  1.00  0.00    -0.198 F 
HETATM    7  F2  UNL     1      -0.169  24.762  11.015  1.00  0.00    -0.198 F 
ENDBRANCH   1   4
BRANCH   1   8
HETATM    8  N2  UNL     1       0.596  23.571   8.882  1.00  0.00    -0.369 N 
ATOM      9  H2  UNL     1      -0.184  22.920   8.794  1.00  0.00     0.161 HD
BRANCH   8  10
HETATM   10  C4  UNL     1       0.742  24.530   7.849  1.00  0.00     0.083 C 
HETATM   11  C5  UNL     1      -0.055  25.802   8.040  1.00  0.00     0.025 C 
HETATM   12  C6  UNL     1       0.246  26.498   6.702  1.00  0.00     0.002 C 
HETATM   13  C7  UNL     1       0.099  25.371   5.732  1.00  0.00     0.002 C 
HETATM   14  C8  UNL     1       0.246  24.074   6.495  1.00  0.00     0.025 C 
ENDBRANCH   8  10
ENDBRANCH   1   8
BRANCH   2  15
HETATM   15  O1  UNL     1       3.338  22.512  11.030  1.00  0.00    -0.288 OA
ATOM     16  H1  UNL     1       4.013  23.101  11.350  1.00  0.00     0.244 HD
ENDBRANCH   2  15
TORSDOF 4
ENDMDL
