MODEL 1
REMARK VINA RESULT: -5.912326189      0.000      0.000
REMARK  2 active torsions:
REMARK  status: ('A' for Active; 'I' for Inactive)
REMARK    1  A    between atoms: C5_5  and  C7_7 
REMARK    2  A    between atoms: C7_7  and  N1_8 
ROOT
HETATM    1  C1  UNL     1      -0.728  25.454   5.495  1.00  0.00     0.044 C 
HETATM    2  C2  UNL     1       0.082  26.534   4.880  1.00  0.00    -0.067 C 
HETATM    3  C3  UNL     1       1.128  27.039   5.519  1.00  0.00    -0.022 C 
HETATM    4  C4  UNL     1       1.879  28.106   4.843  1.00  0.00     0.044 C 
HETATM    5  C5  UNL     1       2.191  27.827   3.389  1.00  0.00     0.050 C 
HETATM    6  C6  UNL     1       3.463  26.965   3.402  1.00  0.00     0.023 C 
HETATM    7  C8  UNL     1       1.102  27.052   2.774  1.00  0.00     0.269 C 
HETATM    8  F1  UNL     1       0.836  27.369   1.458  1.00  0.00    -0.204 F 
HETATM    9  F2  UNL     1       1.441  25.698   2.774  1.00  0.00    -0.204 F 
HETATM   10  C9  UNL     1      -0.227  27.099   3.539  1.00  0.00     0.160 C 
HETATM   11  S1  UNL     1      -0.937  28.735   3.587  1.00  0.00    -0.081 SA
ENDROOT
BRANCH   5  12
HETATM   12  C7  UNL     1       2.554  29.104   2.700  1.00  0.00     0.245 C 
BRANCH  12  13
HETATM   13  N1  UNL     1       3.591  29.044   1.763  1.00  0.00    -0.078 N 
ATOM     14  H13 UNL     1       3.659  28.097   1.390  1.00  0.00     0.274 HD
ATOM     15  H12 UNL     1       3.323  29.557   0.924  1.00  0.00     0.274 HD
ATOM     16  H11 UNL     1       4.512  29.355   2.075  1.00  0.00     0.274 HD
ENDBRANCH  12  13
ENDBRANCH   5  12
TORSDOF 2
ENDMDL
MODEL 2
REMARK VINA RESULT: -5.899804542      3.240      4.117
REMARK  2 active torsions:
REMARK  status: ('A' for Active; 'I' for Inactive)
REMARK    1  A    between atoms: C5_5  and  C7_7 
REMARK    2  A    between atoms: C7_7  and  N1_8 
ROOT
HETATM    1  C1  UNL     1      -0.954  29.018   3.362  1.00  0.00     0.044 C 
HETATM    2  C2  UNL     1      -0.188  27.993   4.111  1.00  0.00    -0.067 C 
HETATM    3  C3  UNL     1       0.301  28.262   5.313  1.00  0.00    -0.022 C 
HETATM    4  C4  UNL     1       1.049  27.194   5.991  1.00  0.00     0.044 C 
HETATM    5  C5  UNL     1       0.377  25.839   5.950  1.00  0.00     0.050 C 
HETATM    6  C6  UNL     1      -0.630  25.846   7.112  1.00  0.00     0.023 C 
HETATM    7  C8  UNL     1      -0.359  25.672   4.688  1.00  0.00     0.269 C 
HETATM    8  F1  UNL     1      -0.341  24.394   4.169  1.00  0.00    -0.204 F 
HETATM    9  F2  UNL     1      -1.705  25.976   4.894  1.00  0.00    -0.204 F 
HETATM   10  C9  UNL     1       0.068  26.631   3.568  1.00  0.00     0.160 C 
HETATM   11  S1  UNL     1       1.750  26.367   3.038  1.00  0.00    -0.081 SA
ENDROOT
BRANCH   5  12
HETATM   12  C7  UNL     1       1.379  24.774   6.268  1.00  0.00     0.245 C 
BRANCH  12  13
HETATM   13  N1  UNL     1       0.938  23.707   7.058  1.00  0.00    -0.078 N 
ATOM     14  H13 UNL     1       0.019  23.402   6.737  1.00  0.00     0.274 HD
ATOM     15  H12 UNL     1       1.493  22.876   6.852  1.00  0.00     0.274 HD
ATOM     16  H11 UNL     1       0.914  23.860   8.067  1.00  0.00     0.274 HD
ENDBRANCH  12  13
ENDBRANCH   5  12
TORSDOF 2
ENDMDL
MODEL 3
REMARK VINA RESULT: -5.745455727      2.828      3.945
REMARK  2 active torsions:
REMARK  status: ('A' for Active; 'I' for Inactive)
REMARK    1  A    between atoms: C5_5  and  C7_7 
REMARK    2  A    between atoms: C7_7  and  N1_8 
ROOT
HETATM    1  C1  UNL     1       2.997  30.083   4.002  1.00  0.00     0.044 C 
HETATM    2  C2  UNL     1       2.281  28.784   4.024  1.00  0.00    -0.067 C 
HETATM    3  C3  UNL     1       2.812  27.733   4.632  1.00  0.00    -0.022 C 
HETATM    4  C4  UNL     1       2.041  26.482   4.609  1.00  0.00     0.044 C 
HETATM    5  C5  UNL     1       0.575  26.644   4.948  1.00  0.00     0.050 C 
HETATM    6  C6  UNL     1       0.507  26.637   6.484  1.00  0.00     0.023 C 
HETATM    7  C8  UNL     1       0.080  27.941   4.460  1.00  0.00     0.269 C 
HETATM    8  F1  UNL     1      -1.217  27.928   3.992  1.00  0.00    -0.204 F 
HETATM    9  F2  UNL     1       0.095  28.865   5.505  1.00  0.00    -0.204 F 
HETATM   10  C9  UNL     1       0.954  28.592   3.380  1.00  0.00     0.160 C 
HETATM   11  S1  UNL     1       1.011  27.641   1.871  1.00  0.00    -0.081 SA
ENDROOT
BRANCH   5  12
HETATM   12  C7  UNL     1      -0.183  25.440   4.487  1.00  0.00     0.245 C 
BRANCH  12  13
HETATM   13  N1  UNL     1      -1.278  25.047   5.264  1.00  0.00    -0.078 N 
ATOM     14  H13 UNL     1      -1.014  24.256   5.851  1.00  0.00     0.274 HD
ATOM     15  H12 UNL     1      -1.464  25.754   5.975  1.00  0.00     0.274 HD
ATOM     16  H11 UNL     1      -2.142  24.830   4.765  1.00  0.00     0.274 HD
ENDBRANCH  12  13
ENDBRANCH   5  12
TORSDOF 2
ENDMDL
MODEL 4
REMARK VINA RESULT: -5.652477349      2.846      4.051
REMARK  2 active torsions:
REMARK  status: ('A' for Active; 'I' for Inactive)
REMARK    1  A    between atoms: C5_5  and  C7_7 
REMARK    2  A    between atoms: C7_7  and  N1_8 
ROOT
HETATM    1  C1  UNL     1       4.548  27.995   4.059  1.00  0.00     0.044 C 
HETATM    2  C2  UNL     1       3.136  27.550   3.982  1.00  0.00    -0.067 C 
HETATM    3  C3  UNL     1       2.828  26.372   3.460  1.00  0.00    -0.022 C 
HETATM    4  C4  UNL     1       1.406  26.004   3.419  1.00  0.00     0.044 C 
HETATM    5  C5  UNL     1       0.658  26.257   4.710  1.00  0.00     0.050 C 
HETATM    6  C6  UNL     1       0.933  25.027   5.591  1.00  0.00     0.023 C 
HETATM    7  C8  UNL     1       1.194  27.449   5.385  1.00  0.00     0.269 C 
HETATM    8  F1  UNL     1       0.255  28.219   6.038  1.00  0.00    -0.204 F 
HETATM    9  F2  UNL     1       2.106  27.055   6.364  1.00  0.00    -0.204 F 
HETATM   10  C9  UNL     1       2.008  28.384   4.479  1.00  0.00     0.160 C 
HETATM   11  S1  UNL     1       1.024  29.118   3.185  1.00  0.00    -0.081 SA
ENDROOT
BRANCH   5  12
HETATM   12  C7  UNL     1      -0.814  26.264   4.443  1.00  0.00     0.245 C 
BRANCH  12  13
HETATM   13  N1  UNL     1      -1.568  25.245   5.036  1.00  0.00    -0.078 N 
ATOM     14  H13 UNL     1      -2.473  25.615   5.327  1.00  0.00     0.274 HD
ATOM     15  H12 UNL     1      -1.860  24.577   4.323  1.00  0.00     0.274 HD
ATOM     16  H11 UNL     1      -1.137  24.746   5.815  1.00  0.00     0.274 HD
ENDBRANCH  12  13
ENDBRANCH   5  12
TORSDOF 2
ENDMDL
MODEL 5
REMARK VINA RESULT: -5.589932595      1.853      2.291
REMARK  2 active torsions:
REMARK  status: ('A' for Active; 'I' for Inactive)
REMARK    1  A    between atoms: C5_5  and  C7_7 
REMARK    2  A    between atoms: C7_7  and  N1_8 
ROOT
HETATM    1  C1  UNL     1      -1.840  28.485   3.618  1.00  0.00     0.044 C 
HETATM    2  C2  UNL     1      -0.377  28.279   3.749  1.00  0.00    -0.067 C 
HETATM    3  C3  UNL     1       0.280  28.763   4.793  1.00  0.00    -0.022 C 
HETATM    4  C4  UNL     1       1.728  28.517   4.851  1.00  0.00     0.044 C 
HETATM    5  C5  UNL     1       2.132  27.092   4.545  1.00  0.00     0.050 C 
HETATM    6  C6  UNL     1       1.969  26.327   5.869  1.00  0.00     0.023 C 
HETATM    7  C8  UNL     1       1.224  26.506   3.547  1.00  0.00     0.269 C 
HETATM    8  F1  UNL     1       1.822  25.647   2.650  1.00  0.00    -0.204 F 
HETATM    9  F2  UNL     1       0.247  25.752   4.197  1.00  0.00    -0.204 F 
HETATM   10  C9  UNL     1       0.418  27.532   2.738  1.00  0.00     0.160 C 
HETATM   11  S1  UNL     1       1.450  28.569   1.717  1.00  0.00    -0.081 SA
ENDROOT
BRANCH   5  12
HETATM   12  C7  UNL     1       3.589  27.045   4.209  1.00  0.00     0.245 C 
BRANCH  12  13
HETATM   13  N1  UNL     1       4.273  28.266   4.191  1.00  0.00    -0.078 N 
ATOM     14  H13 UNL     1       3.825  28.917   4.836  1.00  0.00     0.274 HD
ATOM     15  H12 UNL     1       5.183  28.155   4.638  1.00  0.00     0.274 HD
ATOM     16  H11 UNL     1       4.392  28.713   3.281  1.00  0.00     0.274 HD
ENDBRANCH  12  13
ENDBRANCH   5  12
TORSDOF 2
ENDMDL
