MODEL 1
REMARK VINA RESULT: -7.486234861      0.000      0.000
REMARK  5 active torsions:
REMARK  status: ('A' for Active; 'I' for Inactive)
REMARK    1  A    between atoms: N1_6  and  C6_8 
REMARK    2  A    between atoms: C6_8  and  O1_12 
REMARK    3  A    between atoms: C10_18  and  O2_19 
REMARK       I    between atoms: N3_22  and  C12_23 
REMARK    4  A    between atoms: C12_23  and  O4_25 
REMARK    5  A    between atoms: O4_25  and  C13_26 
ROOT
HETATM    1  C1  UNL     1     -15.208  36.574  -2.931  1.00  0.00     0.033 C 
HETATM    2  C2  UNL     1     -15.586  35.137  -3.134  1.00  0.00     0.090 C 
HETATM    3  C3  UNL     1     -15.342  34.565  -4.422  1.00  0.00     0.031 C 
HETATM    4  C4  UNL     1     -15.723  34.816  -5.787  1.00  0.00     0.058 C 
HETATM    5  C5  UNL     1     -14.950  33.728  -6.512  1.00  0.00     0.027 C 
HETATM    6  N1  UNL     1     -15.611  33.070  -7.374  1.00  0.00    -0.327 N 
ATOM      7  H1  UNL     1     -15.152  32.324  -7.897  1.00  0.00     0.169 HD
HETATM    8  C7  UNL     1     -13.508  33.481  -6.207  1.00  0.00     0.238 C 
HETATM    9  F1  UNL     1     -13.005  33.313  -7.544  1.00  0.00    -0.239 F 
HETATM   10  C8  UNL     1     -13.069  32.281  -5.547  1.00  0.00     0.014 C 
HETATM   11  C9  UNL     1     -13.225  31.826  -4.185  1.00  0.00     0.009 C 
HETATM   12  C10 UNL     1     -12.975  32.576  -2.981  1.00  0.00     0.179 C 
HETATM   13  C11 UNL     1     -13.394  33.899  -2.592  1.00  0.00     0.105 C 
HETATM   14  N3  UNL     1     -14.740  34.255  -2.267  1.00  0.00    -0.300 N 
HETATM   15  C12 UNL     1     -15.386  33.801  -1.088  1.00  0.00     0.367 C 
HETATM   16  O3  UNL     1     -14.736  33.057  -0.313  1.00  0.00    -0.238 OA
ENDROOT
BRANCH   6  17
HETATM   17  C6  UNL     1     -16.966  33.355  -7.616  1.00  0.00     0.214 C 
HETATM   18  N2  UNL     1     -17.268  33.992  -8.688  1.00  0.00    -0.365 N 
ATOM     19  H22 UNL     1     -16.511  34.262  -9.315  1.00  0.00     0.159 HD
ATOM     20  H21 UNL     1     -18.251  34.199  -8.863  1.00  0.00     0.159 HD
BRANCH  17  21
HETATM   21  O1  UNL     1     -17.994  32.988  -6.764  1.00  0.00    -0.333 OA
ATOM     22  H1  UNL     1     -18.540  32.222  -6.896  1.00  0.00     0.220 HD
ENDBRANCH  17  21
ENDBRANCH   6  17
BRANCH  12  23
HETATM   23  O2  UNL     1     -11.554  32.553  -2.804  1.00  0.00    -0.387 OA
ATOM     24  H2  UNL     1     -11.362  33.263  -2.202  1.00  0.00     0.210 HD
ENDBRANCH  12  23
BRANCH  15  25
HETATM   25  O4  UNL     1     -16.666  34.125  -0.749  1.00  0.00    -0.294 OA
BRANCH  25  26
HETATM   26  C13 UNL     1     -17.040  35.015   0.281  1.00  0.00     0.061 C 
HETATM   27  C14 UNL     1     -15.844  35.643   0.955  1.00  0.00     0.046 C 
HETATM   28  C15 UNL     1     -17.820  36.141  -0.376  1.00  0.00     0.046 C 
HETATM   29  C16 UNL     1     -17.936  34.334   1.263  1.00  0.00     0.046 C 
ENDBRANCH  25  26
ENDBRANCH  15  25
TORSDOF 5
ENDMDL
MODEL 2
REMARK VINA RESULT: -7.353526045      2.942      5.177
REMARK  5 active torsions:
REMARK  status: ('A' for Active; 'I' for Inactive)
REMARK    1  A    between atoms: N1_6  and  C6_8 
REMARK    2  A    between atoms: C6_8  and  O1_12 
REMARK    3  A    between atoms: C10_18  and  O2_19 
REMARK       I    between atoms: N3_22  and  C12_23 
REMARK    4  A    between atoms: C12_23  and  O4_25 
REMARK    5  A    between atoms: O4_25  and  C13_26 
ROOT
HETATM    1  C1  UNL     1     -17.676  34.787  -2.290  1.00  0.00     0.033 C 
HETATM    2  C2  UNL     1     -16.860  35.292  -3.444  1.00  0.00     0.090 C 
HETATM    3  C3  UNL     1     -15.760  34.488  -3.878  1.00  0.00     0.031 C 
HETATM    4  C4  UNL     1     -14.552  33.943  -3.315  1.00  0.00     0.058 C 
HETATM    5  C5  UNL     1     -14.003  33.164  -4.497  1.00  0.00     0.027 C 
HETATM    6  N1  UNL     1     -12.768  33.336  -4.738  1.00  0.00    -0.327 N 
ATOM      7  H1  UNL     1     -12.335  32.843  -5.519  1.00  0.00     0.169 HD
HETATM    8  C7  UNL     1     -14.887  32.264  -5.297  1.00  0.00     0.238 C 
HETATM    9  F1  UNL     1     -14.007  31.136  -5.449  1.00  0.00    -0.239 F 
HETATM   10  C8  UNL     1     -15.250  32.570  -6.655  1.00  0.00     0.014 C 
HETATM   11  C9  UNL     1     -16.122  33.580  -7.208  1.00  0.00     0.009 C 
HETATM   12  C10 UNL     1     -17.458  33.909  -6.779  1.00  0.00     0.179 C 
HETATM   13  C11 UNL     1     -17.989  34.163  -5.464  1.00  0.00     0.105 C 
HETATM   14  N3  UNL     1     -17.695  35.327  -4.688  1.00  0.00    -0.300 N 
HETATM   15  C12 UNL     1     -18.176  36.616  -5.033  1.00  0.00     0.367 C 
HETATM   16  O3  UNL     1     -18.884  36.720  -6.065  1.00  0.00    -0.238 OA
ENDROOT
BRANCH   6  17
HETATM   17  C6  UNL     1     -11.990  34.196  -3.943  1.00  0.00     0.214 C 
HETATM   18  N2  UNL     1     -11.319  33.686  -2.977  1.00  0.00    -0.365 N 
ATOM     19  H22 UNL     1     -11.381  32.678  -2.829  1.00  0.00     0.159 HD
ATOM     20  H21 UNL     1     -10.755  34.310  -2.401  1.00  0.00     0.159 HD
BRANCH  17  21
HETATM   21  O1  UNL     1     -11.906  35.564  -4.145  1.00  0.00    -0.333 OA
ATOM     22  H1  UNL     1     -11.982  36.205  -3.449  1.00  0.00     0.220 HD
ENDBRANCH  17  21
ENDBRANCH   6  17
BRANCH  12  23
HETATM   23  O2  UNL     1     -18.301  32.899  -7.348  1.00  0.00    -0.387 OA
ATOM     24  H2  UNL     1     -18.237  32.155  -6.761  1.00  0.00     0.210 HD
ENDBRANCH  12  23
BRANCH  15  25
HETATM   25  O4  UNL     1     -17.916  37.744  -4.312  1.00  0.00    -0.294 OA
BRANCH  25  26
HETATM   26  C13 UNL     1     -18.825  38.389  -3.446  1.00  0.00     0.061 C 
HETATM   27  C14 UNL     1     -20.033  37.534  -3.144  1.00  0.00     0.046 C 
HETATM   28  C15 UNL     1     -18.097  38.607  -2.131  1.00  0.00     0.046 C 
HETATM   29  C16 UNL     1     -19.214  39.724  -3.995  1.00  0.00     0.046 C 
ENDBRANCH  25  26
ENDBRANCH  15  25
TORSDOF 5
ENDMDL
MODEL 3
REMARK VINA RESULT: -7.089592545      1.373      1.526
REMARK  5 active torsions:
REMARK  status: ('A' for Active; 'I' for Inactive)
REMARK    1  A    between atoms: N1_6  and  C6_8 
REMARK    2  A    between atoms: C6_8  and  O1_12 
REMARK    3  A    between atoms: C10_18  and  O2_19 
REMARK       I    between atoms: N3_22  and  C12_23 
REMARK    4  A    between atoms: C12_23  and  O4_25 
REMARK    5  A    between atoms: O4_25  and  C13_26 
ROOT
HETATM    1  C1  UNL     1     -15.110  36.585  -4.410  1.00  0.00     0.033 C 
HETATM    2  C2  UNL     1     -15.393  35.115  -4.504  1.00  0.00     0.090 C 
HETATM    3  C3  UNL     1     -15.327  34.510  -5.797  1.00  0.00     0.031 C 
HETATM    4  C4  UNL     1     -15.957  34.672  -7.082  1.00  0.00     0.058 C 
HETATM    5  C5  UNL     1     -15.231  33.619  -7.900  1.00  0.00     0.027 C 
HETATM    6  N1  UNL     1     -15.971  32.874  -8.614  1.00  0.00    -0.327 N 
ATOM      7  H1  UNL     1     -15.547  32.145  -9.187  1.00  0.00     0.169 HD
HETATM    8  C7  UNL     1     -13.742  33.500  -7.846  1.00  0.00     0.238 C 
HETATM    9  F1  UNL     1     -13.465  33.316  -9.245  1.00  0.00    -0.239 F 
HETATM   10  C8  UNL     1     -13.094  32.368  -7.240  1.00  0.00     0.014 C 
HETATM   11  C9  UNL     1     -12.973  31.960  -5.859  1.00  0.00     0.009 C 
HETATM   12  C10 UNL     1     -12.585  32.779  -4.739  1.00  0.00     0.179 C 
HETATM   13  C11 UNL     1     -13.042  34.079  -4.320  1.00  0.00     0.105 C 
HETATM   14  N3  UNL     1     -14.338  34.340  -3.774  1.00  0.00    -0.300 N 
HETATM   15  C12 UNL     1     -14.729  33.887  -2.487  1.00  0.00     0.367 C 
HETATM   16  O3  UNL     1     -13.894  33.231  -1.818  1.00  0.00    -0.238 OA
ENDROOT
BRANCH   6  17
HETATM   17  C6  UNL     1     -17.367  33.040  -8.622  1.00  0.00     0.214 C 
HETATM   18  N2  UNL     1     -17.914  33.509  -9.683  1.00  0.00    -0.365 N 
ATOM     19  H22 UNL     1     -17.311  33.741 -10.472  1.00  0.00     0.159 HD
ATOM     20  H21 UNL     1     -18.927  33.630  -9.689  1.00  0.00     0.159 HD
BRANCH  17  21
HETATM   21  O1  UNL     1     -18.187  32.725  -7.551  1.00  0.00    -0.333 OA
ATOM     22  H1  UNL     1     -19.087  32.437  -7.642  1.00  0.00     0.220 HD
ENDBRANCH  17  21
ENDBRANCH   6  17
BRANCH  12  23
HETATM   23  O2  UNL     1     -11.158  32.876  -4.813  1.00  0.00    -0.387 OA
ATOM     24  H2  UNL     1     -10.982  33.708  -5.237  1.00  0.00     0.210 HD
ENDBRANCH  12  23
BRANCH  15  25
HETATM   25  O4  UNL     1     -15.955  34.122  -1.939  1.00  0.00    -0.294 OA
BRANCH  25  26
HETATM   26  C13 UNL     1     -16.210  34.969  -0.837  1.00  0.00     0.061 C 
HETATM   27  C14 UNL     1     -15.071  35.926  -0.576  1.00  0.00     0.046 C 
HETATM   28  C15 UNL     1     -17.420  35.810  -1.203  1.00  0.00     0.046 C 
HETATM   29  C16 UNL     1     -16.547  34.164   0.375  1.00  0.00     0.046 C 
ENDBRANCH  25  26
ENDBRANCH  15  25
TORSDOF 5
ENDMDL
MODEL 4
REMARK VINA RESULT: -7.030723561      2.942      6.790
REMARK  5 active torsions:
REMARK  status: ('A' for Active; 'I' for Inactive)
REMARK    1  A    between atoms: N1_6  and  C6_8 
REMARK    2  A    between atoms: C6_8  and  O1_12 
REMARK    3  A    between atoms: C10_18  and  O2_19 
REMARK       I    between atoms: N3_22  and  C12_23 
REMARK    4  A    between atoms: C12_23  and  O4_25 
REMARK    5  A    between atoms: O4_25  and  C13_26 
ROOT
HETATM    1  C1  UNL     1     -13.108  35.061  -3.829  1.00  0.00     0.033 C 
HETATM    2  C2  UNL     1     -14.447  34.410  -3.642  1.00  0.00     0.090 C 
HETATM    3  C3  UNL     1     -15.368  35.039  -2.748  1.00  0.00     0.031 C 
HETATM    4  C4  UNL     1     -15.409  35.429  -1.362  1.00  0.00     0.058 C 
HETATM    5  C5  UNL     1     -16.776  36.085  -1.282  1.00  0.00     0.027 C 
HETATM    6  N1  UNL     1     -17.493  35.736  -0.293  1.00  0.00    -0.327 N 
ATOM      7  H1  UNL     1     -18.423  36.138  -0.180  1.00  0.00     0.169 HD
HETATM    8  C7  UNL     1     -17.212  37.073  -2.314  1.00  0.00     0.238 C 
HETATM    9  F1  UNL     1     -17.815  38.062  -1.461  1.00  0.00    -0.239 F 
HETATM   10  C8  UNL     1     -18.263  36.777  -3.251  1.00  0.00     0.014 C 
HETATM   11  C9  UNL     1     -18.311  35.880  -4.383  1.00  0.00     0.009 C 
HETATM   12  C10 UNL     1     -17.338  35.755  -5.438  1.00  0.00     0.179 C 
HETATM   13  C11 UNL     1     -15.905  35.620  -5.386  1.00  0.00     0.105 C 
HETATM   14  N3  UNL     1     -15.222  34.452  -4.924  1.00  0.00    -0.300 N 
HETATM   15  C12 UNL     1     -15.221  33.231  -5.648  1.00  0.00     0.367 C 
HETATM   16  O3  UNL     1     -15.851  33.194  -6.732  1.00  0.00    -0.238 OA
ENDROOT
BRANCH   6  17
HETATM   17  C6  UNL     1     -17.022  34.802   0.646  1.00  0.00     0.214 C 
HETATM   18  N2  UNL     1     -17.522  33.621   0.629  1.00  0.00    -0.365 N 
ATOM     19  H22 UNL     1     -18.239  33.414  -0.066  1.00  0.00     0.159 HD
ATOM     20  H21 UNL     1     -17.180  32.944   1.310  1.00  0.00     0.159 HD
BRANCH  17  21
HETATM   21  O1  UNL     1     -16.047  35.084   1.589  1.00  0.00    -0.333 OA
ATOM     22  H1  UNL     1     -15.258  34.568   1.702  1.00  0.00     0.220 HD
ENDBRANCH  17  21
ENDBRANCH   6  17
BRANCH  12  23
HETATM   23  O2  UNL     1     -17.591  36.852  -6.323  1.00  0.00    -0.387 OA
ATOM     24  H2  UNL     1     -17.715  37.608  -5.761  1.00  0.00     0.210 HD
ENDBRANCH  12  23
BRANCH  15  25
HETATM   25  O4  UNL     1     -14.578  32.103  -5.234  1.00  0.00    -0.294 OA
BRANCH  25  26
HETATM   26  C13 UNL     1     -13.365  31.611  -5.765  1.00  0.00     0.061 C 
HETATM   27  C14 UNL     1     -12.658  32.636  -6.619  1.00  0.00     0.046 C 
HETATM   28  C15 UNL     1     -12.458  31.316  -4.584  1.00  0.00     0.046 C 
HETATM   29  C16 UNL     1     -13.598  30.336  -6.508  1.00  0.00     0.046 C 
ENDBRANCH  25  26
ENDBRANCH  15  25
TORSDOF 5
ENDMDL
MODEL 5
REMARK VINA RESULT: -6.951876734      4.331      6.946
REMARK  5 active torsions:
REMARK  status: ('A' for Active; 'I' for Inactive)
REMARK    1  A    between atoms: N1_6  and  C6_8 
REMARK    2  A    between atoms: C6_8  and  O1_12 
REMARK    3  A    between atoms: C10_18  and  O2_19 
REMARK       I    between atoms: N3_22  and  C12_23 
REMARK    4  A    between atoms: C12_23  and  O4_25 
REMARK    5  A    between atoms: O4_25  and  C13_26 
ROOT
HETATM    1  C1  UNL     1     -17.935  34.408  -3.767  1.00  0.00     0.033 C 
HETATM    2  C2  UNL     1     -17.472  35.638  -3.044  1.00  0.00     0.090 C 
HETATM    3  C3  UNL     1     -18.473  36.504  -2.504  1.00  0.00     0.031 C 
HETATM    4  C4  UNL     1     -19.598  37.261  -2.986  1.00  0.00     0.058 C 
HETATM    5  C5  UNL     1     -20.129  37.855  -1.693  1.00  0.00     0.027 C 
HETATM    6  N1  UNL     1     -20.400  39.095  -1.731  1.00  0.00    -0.327 N 
ATOM      7  H1  UNL     1     -20.760  39.557  -0.896  1.00  0.00     0.169 HD
HETATM    8  C7  UNL     1     -20.310  37.004  -0.478  1.00  0.00     0.238 C 
HETATM    9  F1  UNL     1     -21.589  37.488  -0.034  1.00  0.00    -0.239 F 
HETATM   10  C8  UNL     1     -19.484  37.165   0.689  1.00  0.00     0.014 C 
HETATM   11  C9  UNL     1     -18.094  36.854   0.928  1.00  0.00     0.009 C 
HETATM   12  C10 UNL     1     -17.408  35.627   0.615  1.00  0.00     0.179 C 
HETATM   13  C11 UNL     1     -17.379  34.847  -0.595  1.00  0.00     0.105 C 
HETATM   14  N3  UNL     1     -16.728  35.254  -1.801  1.00  0.00    -0.300 N 
HETATM   15  C12 UNL     1     -15.315  35.326  -1.919  1.00  0.00     0.367 C 
HETATM   16  O3  UNL     1     -14.627  35.017  -0.915  1.00  0.00    -0.238 OA
ENDROOT
BRANCH   6  17
HETATM   17  C6  UNL     1     -20.211  39.839  -2.909  1.00  0.00     0.214 C 
HETATM   18  N2  UNL     1     -21.245  40.158  -3.596  1.00  0.00    -0.365 N 
ATOM     19  H22 UNL     1     -22.159  39.857  -3.257  1.00  0.00     0.159 HD
ATOM     20  H21 UNL     1     -21.108  40.698  -4.451  1.00  0.00     0.159 HD
BRANCH  17  21
HETATM   21  O1  UNL     1     -18.970  40.249  -3.369  1.00  0.00    -0.333 OA
ATOM     22  H1  UNL     1     -18.388  39.698  -3.878  1.00  0.00     0.220 HD
ENDBRANCH  17  21
ENDBRANCH   6  17
BRANCH  12  23
HETATM   23  O2  UNL     1     -17.770  34.711   1.656  1.00  0.00    -0.387 OA
ATOM     24  H2  UNL     1     -17.604  33.846   1.302  1.00  0.00     0.210 HD
ENDBRANCH  12  23
BRANCH  15  25
HETATM   25  O4  UNL     1     -14.666  35.708  -3.055  1.00  0.00    -0.294 OA
BRANCH  25  26
HETATM   26  C13 UNL     1     -13.996  34.841  -3.946  1.00  0.00     0.061 C 
HETATM   27  C14 UNL     1     -14.229  33.386  -3.612  1.00  0.00     0.046 C 
HETATM   28  C15 UNL     1     -14.593  35.080  -5.322  1.00  0.00     0.046 C 
HETATM   29  C16 UNL     1     -12.540  35.170  -4.002  1.00  0.00     0.046 C 
ENDBRANCH  25  26
ENDBRANCH  15  25
TORSDOF 5
ENDMDL
