MODEL 1
REMARK VINA RESULT: -7.550557313      0.000      0.000
REMARK  3 active torsions:
REMARK  status: ('A' for Active; 'I' for Inactive)
REMARK    1  A    between atoms: C8_10  and  O3_11 
REMARK    2  A    between atoms: C9_13  and  O4_14 
REMARK    3  A    between atoms: C13_19  and  C15_21 
ROOT
HETATM    1  C1  UNL     1     -17.972  37.318  -5.883  1.00  0.00     0.025 C 
HETATM    2  C2  UNL     1     -17.818  36.831  -4.671  1.00  0.00     0.008 C 
HETATM    3  C3  UNL     1     -16.484  36.614  -4.048  1.00  0.00     0.167 C 
HETATM    4  O1  UNL     1     -15.371  36.659  -4.572  1.00  0.00    -0.292 OA
HETATM    5  C4  UNL     1     -16.915  36.332  -2.630  1.00  0.00     0.045 C 
HETATM    6  C5  UNL     1     -17.984  35.397  -3.013  1.00  0.00     0.056 C 
HETATM    7  C6  UNL     1     -18.883  36.419  -3.762  1.00  0.00     0.159 C 
HETATM    8  O2  UNL     1     -19.377  37.182  -2.805  1.00  0.00    -0.373 OA
HETATM    9  C7  UNL     1     -18.666  37.626  -1.755  1.00  0.00     0.158 C 
HETATM   10  C8  UNL     1     -18.698  37.022  -0.427  1.00  0.00     0.176 C 
HETATM   11  C9  UNL     1     -17.958  35.844  -0.034  1.00  0.00     0.158 C 
HETATM   12  C10 UNL     1     -16.634  35.438  -0.410  1.00  0.00    -0.007 C 
HETATM   13  C11 UNL     1     -16.598  33.896  -0.248  1.00  0.00     0.018 C 
HETATM   14  C12 UNL     1     -15.647  35.836   0.715  1.00  0.00     0.018 C 
HETATM   15  C13 UNL     1     -15.954  35.697  -1.715  1.00  0.00    -0.001 C 
HETATM   16  C14 UNL     1     -14.759  36.627  -1.629  1.00  0.00     0.021 C 
HETATM   17  C17 UNL     1     -17.213  37.693  -2.144  1.00  0.00     0.031 C 
HETATM   18  C18 UNL     1     -17.017  38.876  -3.017  1.00  0.00     0.014 C 
ENDROOT
BRANCH  15  19
HETATM   19  C15 UNL     1     -15.417  34.459  -2.379  1.00  0.00    -0.004 C 
HETATM   20  C16 UNL     1     -14.134  34.285  -2.646  1.00  0.00     0.081 C 
HETATM   21 CL1  UNL     1     -13.589  32.812  -3.424  1.00  0.00    -0.097 Cl
ENDBRANCH  15  19
BRANCH  11  22
HETATM   22  O4  UNL     1     -17.966  35.889   1.415  1.00  0.00    -0.392 OA
ATOM     23  H4  UNL     1     -17.858  34.982   1.675  1.00  0.00     0.210 HD
ENDBRANCH  11  22
BRANCH  10  24
HETATM   24  O3  UNL     1     -20.073  36.843  -0.115  1.00  0.00    -0.390 OA
ATOM     25  H3  UNL     1     -20.189  37.196   0.760  1.00  0.00     0.210 HD
ENDBRANCH  10  24
TORSDOF 3
ENDMDL
MODEL 2
REMARK VINA RESULT: -7.479908146      2.654      4.379
REMARK  3 active torsions:
REMARK  status: ('A' for Active; 'I' for Inactive)
REMARK    1  A    between atoms: C8_10  and  O3_11 
REMARK    2  A    between atoms: C9_13  and  O4_14 
REMARK    3  A    between atoms: C13_19  and  C15_21 
ROOT
HETATM    1  C1  UNL     1     -15.001  36.113  -4.650  1.00  0.00     0.025 C 
HETATM    2  C2  UNL     1     -15.836  36.487  -3.706  1.00  0.00     0.008 C 
HETATM    3  C3  UNL     1     -17.240  36.898  -3.979  1.00  0.00     0.167 C 
HETATM    4  O1  UNL     1     -17.779  37.133  -5.061  1.00  0.00    -0.292 OA
HETATM    5  C4  UNL     1     -17.769  36.932  -2.567  1.00  0.00     0.045 C 
HETATM    6  C5  UNL     1     -16.619  37.670  -2.025  1.00  0.00     0.056 C 
HETATM    7  C6  UNL     1     -15.545  36.577  -2.278  1.00  0.00     0.159 C 
HETATM    8  O2  UNL     1     -15.829  35.631  -1.402  1.00  0.00    -0.373 OA
HETATM    9  C7  UNL     1     -17.077  35.227  -1.112  1.00  0.00     0.158 C 
HETATM   10  C8  UNL     1     -17.830  35.664   0.060  1.00  0.00     0.176 C 
HETATM   11  C9  UNL     1     -18.544  36.917   0.165  1.00  0.00     0.158 C 
HETATM   12  C10 UNL     1     -19.298  37.618  -0.835  1.00  0.00    -0.007 C 
HETATM   13  C11 UNL     1     -19.289  39.109  -0.409  1.00  0.00     0.018 C 
HETATM   14  C12 UNL     1     -20.803  37.306  -0.642  1.00  0.00     0.018 C 
HETATM   15  C13 UNL     1     -19.030  37.643  -2.305  1.00  0.00    -0.001 C 
HETATM   16  C14 UNL     1     -20.092  36.967  -3.150  1.00  0.00     0.021 C 
HETATM   17  C17 UNL     1     -17.965  35.494  -2.298  1.00  0.00     0.031 C 
HETATM   18  C18 UNL     1     -17.675  34.477  -3.337  1.00  0.00     0.014 C 
ENDROOT
BRANCH  15  19
HETATM   19  C15 UNL     1     -18.920  39.028  -2.880  1.00  0.00    -0.004 C 
HETATM   20  C16 UNL     1     -19.835  39.551  -3.679  1.00  0.00     0.081 C 
HETATM   21 CL1  UNL     1     -19.629  41.173  -4.309  1.00  0.00    -0.097 Cl
ENDBRANCH  15  19
BRANCH  11  22
HETATM   22  O4  UNL     1     -19.450  36.714   1.279  1.00  0.00    -0.392 OA
ATOM     23  H4  UNL     1     -19.188  37.372   1.913  1.00  0.00     0.210 HD
ENDBRANCH  11  22
BRANCH  10  24
HETATM   24  O3  UNL     1     -16.944  35.529   1.163  1.00  0.00    -0.390 OA
ATOM     25  H3  UNL     1     -16.799  34.596   1.266  1.00  0.00     0.210 HD
ENDBRANCH  10  24
TORSDOF 3
ENDMDL
MODEL 3
REMARK VINA RESULT: -7.426797670      2.348      4.253
REMARK  3 active torsions:
REMARK  status: ('A' for Active; 'I' for Inactive)
REMARK    1  A    between atoms: C8_10  and  O3_11 
REMARK    2  A    between atoms: C9_13  and  O4_14 
REMARK    3  A    between atoms: C13_19  and  C15_21 
ROOT
HETATM    1  C1  UNL     1     -19.124  37.797  -5.384  1.00  0.00     0.025 C 
HETATM    2  C2  UNL     1     -18.194  37.327  -4.582  1.00  0.00     0.008 C 
HETATM    3  C3  UNL     1     -18.498  36.494  -3.387  1.00  0.00     0.167 C 
HETATM    4  O1  UNL     1     -19.588  36.272  -2.858  1.00  0.00    -0.292 OA
HETATM    5  C4  UNL     1     -17.105  36.030  -3.044  1.00  0.00     0.045 C 
HETATM    6  C5  UNL     1     -16.497  37.362  -3.184  1.00  0.00     0.056 C 
HETATM    7  C6  UNL     1     -16.754  37.539  -4.705  1.00  0.00     0.159 C 
HETATM    8  O2  UNL     1     -15.926  36.687  -5.279  1.00  0.00    -0.373 OA
HETATM    9  C7  UNL     1     -15.693  35.445  -4.825  1.00  0.00     0.158 C 
HETATM   10  C8  UNL     1     -14.532  35.067  -4.026  1.00  0.00     0.176 C 
HETATM   11  C9  UNL     1     -14.402  35.277  -2.601  1.00  0.00     0.158 C 
HETATM   12  C10 UNL     1     -15.400  35.170  -1.574  1.00  0.00    -0.007 C 
HETATM   13  C11 UNL     1     -14.917  36.078  -0.414  1.00  0.00     0.018 C 
HETATM   14  C12 UNL     1     -15.269  33.787  -0.888  1.00  0.00     0.018 C 
HETATM   15  C13 UNL     1     -16.858  35.468  -1.707  1.00  0.00    -0.001 C 
HETATM   16  C14 UNL     1     -17.764  34.260  -1.571  1.00  0.00     0.021 C 
HETATM   17  C17 UNL     1     -16.898  34.973  -4.054  1.00  0.00     0.031 C 
HETATM   18  C18 UNL     1     -17.964  34.623  -5.022  1.00  0.00     0.014 C 
ENDROOT
BRANCH  15  19
HETATM   19  C15 UNL     1     -17.376  36.441  -0.684  1.00  0.00    -0.004 C 
HETATM   20  C16 UNL     1     -18.186  36.088   0.300  1.00  0.00     0.081 C 
HETATM   21 CL1  UNL     1     -18.746  37.284   1.451  1.00  0.00    -0.097 Cl
ENDBRANCH  15  19
BRANCH  11  22
HETATM   22  O4  UNL     1     -13.328  34.386  -2.209  1.00  0.00    -0.392 OA
ATOM     23  H4  UNL     1     -12.972  34.076  -3.033  1.00  0.00     0.210 HD
ENDBRANCH  11  22
BRANCH  10  24
HETATM   24  O3  UNL     1     -13.405  35.622  -4.691  1.00  0.00    -0.390 OA
ATOM     25  H3  UNL     1     -13.756  36.225  -5.336  1.00  0.00     0.210 HD
ENDBRANCH  10  24
TORSDOF 3
ENDMDL
MODEL 4
REMARK VINA RESULT: -7.126454117      1.799      4.322
REMARK  3 active torsions:
REMARK  status: ('A' for Active; 'I' for Inactive)
REMARK    1  A    between atoms: C8_10  and  O3_11 
REMARK    2  A    between atoms: C9_13  and  O4_14 
REMARK    3  A    between atoms: C13_19  and  C15_21 
ROOT
HETATM    1  C1  UNL     1     -19.241  39.192  -0.546  1.00  0.00     0.025 C 
HETATM    2  C2  UNL     1     -18.622  38.451  -1.439  1.00  0.00     0.008 C 
HETATM    3  C3  UNL     1     -18.490  36.974  -1.318  1.00  0.00     0.167 C 
HETATM    4  O1  UNL     1     -18.740  36.254  -0.351  1.00  0.00    -0.292 OA
HETATM    5  C4  UNL     1     -17.975  36.656  -2.699  1.00  0.00     0.045 C 
HETATM    6  C5  UNL     1     -16.975  37.733  -2.706  1.00  0.00     0.056 C 
HETATM    7  C6  UNL     1     -17.967  38.927  -2.655  1.00  0.00     0.159 C 
HETATM    8  O2  UNL     1     -18.533  38.933  -3.848  1.00  0.00    -0.373 OA
HETATM    9  C7  UNL     1     -18.920  37.825  -4.501  1.00  0.00     0.158 C 
HETATM   10  C8  UNL     1     -18.148  37.186  -5.563  1.00  0.00     0.176 C 
HETATM   11  C9  UNL     1     -17.028  36.296  -5.353  1.00  0.00     0.158 C 
HETATM   12  C10 UNL     1     -16.840  35.300  -4.337  1.00  0.00    -0.007 C 
HETATM   13  C11 UNL     1     -15.306  35.122  -4.193  1.00  0.00     0.018 C 
HETATM   14  C12 UNL     1     -17.205  33.912  -4.919  1.00  0.00     0.018 C 
HETATM   15  C13 UNL     1     -17.349  35.345  -2.933  1.00  0.00    -0.001 C 
HETATM   16  C14 UNL     1     -18.399  34.300  -2.609  1.00  0.00     0.021 C 
HETATM   17  C17 UNL     1     -19.214  36.743  -3.496  1.00  0.00     0.031 C 
HETATM   18  C18 UNL     1     -20.516  37.046  -2.853  1.00  0.00     0.014 C 
ENDROOT
BRANCH  15  19
HETATM   19  C15 UNL     1     -16.283  35.139  -1.891  1.00  0.00    -0.004 C 
HETATM   20  C16 UNL     1     -16.342  34.183  -0.980  1.00  0.00     0.081 C 
HETATM   21 CL1  UNL     1     -15.059  34.011   0.200  1.00  0.00    -0.097 Cl
ENDBRANCH  15  19
BRANCH  11  22
HETATM   22  O4  UNL     1     -16.882  35.607  -6.620  1.00  0.00    -0.392 OA
ATOM     23  H4  UNL     1     -16.392  36.216  -7.160  1.00  0.00     0.210 HD
ENDBRANCH  11  22
BRANCH  10  24
HETATM   24  O3  UNL     1     -17.763  38.232  -6.446  1.00  0.00    -0.390 OA
ATOM     25  H3  UNL     1     -18.500  38.362  -7.030  1.00  0.00     0.210 HD
ENDBRANCH  10  24
TORSDOF 3
ENDMDL
MODEL 5
REMARK VINA RESULT: -6.888217924      2.329      4.253
REMARK  3 active torsions:
REMARK  status: ('A' for Active; 'I' for Inactive)
REMARK    1  A    between atoms: C8_10  and  O3_11 
REMARK    2  A    between atoms: C9_13  and  O4_14 
REMARK    3  A    between atoms: C13_19  and  C15_21 
ROOT
HETATM    1  C1  UNL     1     -14.170  32.659  -4.665  1.00  0.00     0.025 C 
HETATM    2  C2  UNL     1     -15.053  33.585  -4.359  1.00  0.00     0.008 C 
HETATM    3  C3  UNL     1     -15.109  34.242  -3.025  1.00  0.00     0.167 C 
HETATM    4  O1  UNL     1     -14.523  33.933  -1.987  1.00  0.00    -0.292 OA
HETATM    5  C4  UNL     1     -16.074  35.358  -3.339  1.00  0.00     0.045 C 
HETATM    6  C5  UNL     1     -17.029  34.496  -4.050  1.00  0.00     0.056 C 
HETATM    7  C6  UNL     1     -16.102  34.104  -5.232  1.00  0.00     0.159 C 
HETATM    8  O2  UNL     1     -15.993  35.210  -5.944  1.00  0.00    -0.373 OA
HETATM    9  C7  UNL     1     -15.845  36.434  -5.411  1.00  0.00     0.158 C 
HETATM   10  C8  UNL     1     -16.931  37.395  -5.244  1.00  0.00     0.176 C 
HETATM   11  C9  UNL     1     -17.890  37.381  -4.162  1.00  0.00     0.158 C 
HETATM   12  C10 UNL     1     -17.692  37.054  -2.778  1.00  0.00    -0.007 C 
HETATM   13  C11 UNL     1     -19.073  36.591  -2.247  1.00  0.00     0.018 C 
HETATM   14  C12 UNL     1     -17.533  38.366  -1.970  1.00  0.00     0.018 C 
HETATM   15  C13 UNL     1     -16.721  36.064  -2.222  1.00  0.00    -0.001 C 
HETATM   16  C14 UNL     1     -15.608  36.672  -1.391  1.00  0.00     0.021 C 
HETATM   17  C17 UNL     1     -15.197  36.302  -4.058  1.00  0.00     0.031 C 
HETATM   18  C18 UNL     1     -13.757  36.008  -4.257  1.00  0.00     0.014 C 
ENDROOT
BRANCH  15  19
HETATM   19  C15 UNL     1     -17.347  35.040  -1.316  1.00  0.00    -0.004 C 
HETATM   20  C16 UNL     1     -17.133  35.006  -0.012  1.00  0.00     0.081 C 
HETATM   21 CL1  UNL     1     -17.901  33.777   0.974  1.00  0.00    -0.097 Cl
ENDBRANCH  15  19
BRANCH  11  22
HETATM   22  O4  UNL     1     -18.463  38.713  -4.181  1.00  0.00    -0.392 OA
ATOM     23  H4  UNL     1     -19.244  38.636  -3.647  1.00  0.00     0.210 HD
ENDBRANCH  11  22
BRANCH  10  24
HETATM   24  O3  UNL     1     -17.619  37.423  -6.487  1.00  0.00    -0.390 OA
ATOM     25  H3  UNL     1     -17.440  36.587  -6.901  1.00  0.00     0.210 HD
ENDBRANCH  10  24
TORSDOF 3
ENDMDL
