MODEL 1
REMARK VINA RESULT: -10.211144647      0.000      0.000
REMARK  13 active torsions:
REMARK  status: ('A' for Active; 'I' for Inactive)
REMARK    1  A    between atoms: C2_2  and  C3_3 
REMARK    2  A    between atoms: C3_3  and  C4_4 
REMARK    3  A    between atoms: C4_4  and  C5_5 
REMARK       I    between atoms: C5_5  and  N1_7 
REMARK    4  A    between atoms: N1_7  and  C6_9 
REMARK    5  A    between atoms: C6_9  and  C7_10 
REMARK    6  A    between atoms: C7_10  and  C8_11 
REMARK    7  A    between atoms: C8_11  and  N2_12 
REMARK       I    between atoms: N2_12  and  C9_14 
REMARK    8  A    between atoms: C9_14  and  C10_16 
REMARK    9  A    between atoms: C10_16  and  C11_17 
REMARK   10  A    between atoms: N3_23  and  C17_24 
REMARK   11  A    between atoms: C18_27  and  N5_28 
REMARK   12  A    between atoms: C25_36  and  C26_37 
REMARK   13  A    between atoms: C26_37  and  N6_38 
ROOT
HETATM    1  C3  UNL     1     -12.627  20.627 -17.679  1.00  0.00    -0.014 C 
HETATM    2  C15 UNL     1     -13.527  19.459 -17.256  1.00  0.00     0.032 C 
HETATM    3  C16 UNL     1     -12.717  18.270 -17.694  1.00  0.00     0.142 C 
HETATM    4  N3  UNL     1     -11.361  18.667 -17.338  1.00  0.00    -0.217 N 
HETATM    5  C29 UNL     1     -11.256  20.104 -17.339  1.00  0.00     0.151 C 
ENDROOT
BRANCH   4   6
HETATM    6  C17 UNL     1     -10.332  17.732 -17.035  1.00  0.00     0.683 A 
HETATM    7  N4  UNL     1      -9.383  17.414 -17.945  1.00  0.00    -0.176 N 
HETATM    8  C18 UNL     1      -8.389  16.524 -17.674  1.00  0.00     0.133 A 
ATOM      9  H4  UNL     1      -9.412  17.856 -18.864  1.00  0.00     0.186 HD
HETATM   10  C23 UNL     1      -8.390  15.955 -16.429  1.00  0.00     0.054 A 
HETATM   11  C24 UNL     1      -7.446  15.050 -16.064  1.00  0.00     0.029 A 
HETATM   12  C28 UNL     1      -9.378  16.295 -15.502  1.00  0.00     0.135 A 
HETATM   13  C25 UNL     1      -7.439  14.468 -14.817  1.00  0.00    -0.017 A 
HETATM   14  C27 UNL     1      -8.432  14.835 -13.939  1.00  0.00     0.098 A 
HETATM   15  N7  UNL     1      -9.384  15.731 -14.273  1.00  0.00    -0.351 N 
ATOM     16  H7  UNL     1     -10.107  15.983 -13.599  1.00  0.00     0.166 HD
HETATM   17  N8  UNL     1     -10.340  17.183 -15.817  1.00  0.00    -0.176 N 
ATOM     18  H8  UNL     1     -11.061  17.431 -15.140  1.00  0.00     0.186 HD
BRANCH   8  19
HETATM   19  N5  UNL     1      -7.391  16.241 -18.675  1.00  0.00    -0.362 N 
HETATM   20  C19 UNL     1      -7.756  15.509 -19.849  1.00  0.00     0.150 C 
HETATM   21  C20 UNL     1      -6.935  15.913 -21.031  1.00  0.00     0.187 C 
HETATM   22  O3  UNL     1      -5.594  15.911 -20.690  1.00  0.00    -0.388 OA
HETATM   23  C21 UNL     1      -5.347  16.948 -19.784  1.00  0.00     0.187 C 
HETATM   24  C22 UNL     1      -6.031  16.677 -18.480  1.00  0.00     0.150 C 
ENDBRANCH   8  19
BRANCH  13  25
HETATM   25  C26 UNL     1      -6.376  13.484 -14.493  1.00  0.00     0.269 C 
BRANCH  25  26
HETATM   26  N6  UNL     1      -5.299  13.599 -15.454  1.00  0.00    -0.075 N 
ATOM     27  H63 UNL     1      -5.562  14.163 -16.262  1.00  0.00     0.274 HD
ATOM     28  H62 UNL     1      -4.537  14.182 -15.110  1.00  0.00     0.274 HD
ATOM     29  H61 UNL     1      -4.979  12.668 -15.723  1.00  0.00     0.274 HD
ENDBRANCH  25  26
ENDBRANCH  13  25
ENDBRANCH   4   6
BRANCH   1  30
HETATM   30  C2  UNL     1     -12.797  20.907 -19.132  1.00  0.00     0.007 C 
HETATM   31  C1  UNL     1     -11.476  21.117 -19.845  1.00  0.00     0.006 C 
ENDBRANCH   1  30
BRANCH   1  32
HETATM   32  C4  UNL     1     -12.916  21.837 -16.853  1.00  0.00     0.114 C 
BRANCH  32  33
HETATM   33  C5  UNL     1     -13.680  21.593 -15.630  1.00  0.00     0.218 C 
HETATM   34  O1  UNL     1     -13.186  21.235 -14.530  1.00  0.00    -0.274 OA
HETATM   35  N1  UNL     1     -15.117  21.755 -15.601  1.00  0.00    -0.361 N 
ATOM     36  H1  UNL     1     -15.586  22.043 -16.460  1.00  0.00     0.162 HD
BRANCH  35  37
HETATM   37  C6  UNL     1     -15.920  21.534 -14.439  1.00  0.00     0.124 C 
BRANCH  37  38
HETATM   38  C7  UNL     1     -16.632  22.806 -14.090  1.00  0.00     0.039 C 
BRANCH  38  39
HETATM   39  C8  UNL     1     -17.781  23.075 -15.012  1.00  0.00     0.124 C 
BRANCH  39  40
HETATM   40  N2  UNL     1     -17.444  24.065 -16.027  1.00  0.00    -0.361 N 
HETATM   41  C9  UNL     1     -17.980  23.957 -17.338  1.00  0.00     0.218 C 
HETATM   42  O2  UNL     1     -18.746  23.015 -17.651  1.00  0.00    -0.274 OA
ATOM     43  H2  UNL     1     -16.821  24.839 -15.796  1.00  0.00     0.162 HD
BRANCH  41  44
HETATM   44  C10 UNL     1     -17.625  24.969 -18.339  1.00  0.00     0.111 C 
BRANCH  44  45
HETATM   45  C11 UNL     1     -16.264  24.691 -18.969  1.00  0.00    -0.043 C 
HETATM   46  C12 UNL     1     -15.188  25.528 -18.305  1.00  0.00     0.015 C 
HETATM   47  C13 UNL     1     -16.392  25.005 -20.448  1.00  0.00     0.015 C 
HETATM   48  C14 UNL     1     -15.853  23.249 -18.817  1.00  0.00     0.015 C 
ENDBRANCH  44  45
ENDBRANCH  41  44
ENDBRANCH  39  40
ENDBRANCH  38  39
ENDBRANCH  37  38
ENDBRANCH  35  37
ENDBRANCH  32  33
ENDBRANCH   1  32
TORSDOF 13
ENDMDL
MODEL 2
REMARK VINA RESULT: -9.942233127      0.864      1.310
REMARK  13 active torsions:
REMARK  status: ('A' for Active; 'I' for Inactive)
REMARK    1  A    between atoms: C2_2  and  C3_3 
REMARK    2  A    between atoms: C3_3  and  C4_4 
REMARK    3  A    between atoms: C4_4  and  C5_5 
REMARK       I    between atoms: C5_5  and  N1_7 
REMARK    4  A    between atoms: N1_7  and  C6_9 
REMARK    5  A    between atoms: C6_9  and  C7_10 
REMARK    6  A    between atoms: C7_10  and  C8_11 
REMARK    7  A    between atoms: C8_11  and  N2_12 
REMARK       I    between atoms: N2_12  and  C9_14 
REMARK    8  A    between atoms: C9_14  and  C10_16 
REMARK    9  A    between atoms: C10_16  and  C11_17 
REMARK   10  A    between atoms: N3_23  and  C17_24 
REMARK   11  A    between atoms: C18_27  and  N5_28 
REMARK   12  A    between atoms: C25_36  and  C26_37 
REMARK   13  A    between atoms: C26_37  and  N6_38 
ROOT
HETATM    1  C3  UNL     1     -13.146  19.912 -16.647  1.00  0.00    -0.014 C 
HETATM    2  C15 UNL     1     -12.487  20.038 -18.027  1.00  0.00     0.032 C 
HETATM    3  C16 UNL     1     -11.046  19.752 -17.708  1.00  0.00     0.142 C 
HETATM    4  N3  UNL     1     -11.149  18.662 -16.746  1.00  0.00    -0.217 N 
HETATM    5  C29 UNL     1     -12.412  18.737 -16.057  1.00  0.00     0.151 C 
ENDROOT
BRANCH   4   6
HETATM    6  C17 UNL     1     -10.125  17.692 -16.559  1.00  0.00     0.683 A 
HETATM    7  N4  UNL     1      -9.264  17.378 -17.555  1.00  0.00    -0.176 N 
HETATM    8  C18 UNL     1      -8.278  16.455 -17.395  1.00  0.00     0.133 A 
ATOM      9  H4  UNL     1      -9.358  17.850 -18.454  1.00  0.00     0.186 HD
HETATM   10  C23 UNL     1      -8.191  15.847 -16.171  1.00  0.00     0.054 A 
HETATM   11  C24 UNL     1      -7.246  14.906 -15.914  1.00  0.00     0.029 A 
HETATM   12  C28 UNL     1      -9.088  16.183 -15.154  1.00  0.00     0.135 A 
HETATM   13  C25 UNL     1      -7.152  14.285 -14.689  1.00  0.00    -0.017 A 
HETATM   14  C27 UNL     1      -8.057  14.650 -13.720  1.00  0.00     0.098 A 
HETATM   15  N7  UNL     1      -9.007  15.581 -13.946  1.00  0.00    -0.351 N 
ATOM     16  H7  UNL     1      -9.664  15.829 -13.207  1.00  0.00     0.166 HD
HETATM   17  N8  UNL     1     -10.047  17.105 -15.362  1.00  0.00    -0.176 N 
ATOM     18  H8  UNL     1     -10.702  17.350 -14.619  1.00  0.00     0.186 HD
BRANCH   8  19
HETATM   19  N5  UNL     1      -7.375  16.179 -18.484  1.00  0.00    -0.362 N 
HETATM   20  C19 UNL     1      -7.844  15.449 -19.623  1.00  0.00     0.150 C 
HETATM   21  C20 UNL     1      -7.137  15.859 -20.873  1.00  0.00     0.187 C 
HETATM   22  O3  UNL     1      -5.769  15.860 -20.656  1.00  0.00    -0.388 OA
HETATM   23  C21 UNL     1      -5.443  16.895 -19.773  1.00  0.00     0.187 C 
HETATM   24  C22 UNL     1      -6.004  16.617 -18.413  1.00  0.00     0.150 C 
ENDBRANCH   8  19
BRANCH  13  25
HETATM   25  C26 UNL     1      -6.093  13.265 -14.485  1.00  0.00     0.269 C 
BRANCH  25  26
HETATM   26  N6  UNL     1      -5.061  13.427 -15.488  1.00  0.00    -0.075 N 
ATOM     27  H63 UNL     1      -4.528  12.570 -15.634  1.00  0.00     0.274 HD
ATOM     28  H62 UNL     1      -5.448  13.521 -16.427  1.00  0.00     0.274 HD
ATOM     29  H61 UNL     1      -4.462  14.214 -15.239  1.00  0.00     0.274 HD
ENDBRANCH  25  26
ENDBRANCH  13  25
ENDBRANCH   4   6
BRANCH   1  30
HETATM   30  C2  UNL     1     -12.954  21.167 -15.868  1.00  0.00     0.007 C 
HETATM   31  C1  UNL     1     -12.998  22.407 -16.738  1.00  0.00     0.006 C 
ENDBRANCH   1  30
BRANCH   1  32
HETATM   32  C4  UNL     1     -14.594  19.573 -16.788  1.00  0.00     0.114 C 
BRANCH  32  33
HETATM   33  C5  UNL     1     -15.433  19.915 -15.640  1.00  0.00     0.218 C 
HETATM   34  O1  UNL     1     -15.417  19.321 -14.532  1.00  0.00    -0.274 OA
HETATM   35  N1  UNL     1     -16.379  21.008 -15.704  1.00  0.00    -0.361 N 
ATOM     36  H1  UNL     1     -16.446  21.535 -16.575  1.00  0.00     0.162 HD
BRANCH  35  37
HETATM   37  C6  UNL     1     -17.225  21.394 -14.619  1.00  0.00     0.124 C 
BRANCH  37  38
HETATM   38  C7  UNL     1     -17.093  22.871 -14.399  1.00  0.00     0.039 C 
BRANCH  38  39
HETATM   39  C8  UNL     1     -18.229  23.631 -15.011  1.00  0.00     0.124 C 
BRANCH  39  40
HETATM   40  N2  UNL     1     -17.796  24.434 -16.148  1.00  0.00    -0.361 N 
HETATM   41  C9  UNL     1     -18.156  24.055 -17.469  1.00  0.00     0.218 C 
HETATM   42  O2  UNL     1     -18.846  23.031 -17.687  1.00  0.00    -0.274 OA
ATOM     43  H2  UNL     1     -17.234  25.270 -15.995  1.00  0.00     0.162 HD
BRANCH  41  44
HETATM   44  C10 UNL     1     -17.709  24.883 -18.594  1.00  0.00     0.111 C 
BRANCH  44  45
HETATM   45  C11 UNL     1     -16.283  24.545 -19.015  1.00  0.00    -0.043 C 
HETATM   46  C12 UNL     1     -15.288  25.427 -18.285  1.00  0.00     0.015 C 
HETATM   47  C13 UNL     1     -16.211  24.739 -20.519  1.00  0.00     0.015 C 
HETATM   48  C14 UNL     1     -15.920  23.118 -18.695  1.00  0.00     0.015 C 
ENDBRANCH  44  45
ENDBRANCH  41  44
ENDBRANCH  39  40
ENDBRANCH  38  39
ENDBRANCH  37  38
ENDBRANCH  35  37
ENDBRANCH  32  33
ENDBRANCH   1  32
TORSDOF 13
ENDMDL
MODEL 3
REMARK VINA RESULT: -9.383474084      1.558      3.099
REMARK  13 active torsions:
REMARK  status: ('A' for Active; 'I' for Inactive)
REMARK    1  A    between atoms: C2_2  and  C3_3 
REMARK    2  A    between atoms: C3_3  and  C4_4 
REMARK    3  A    between atoms: C4_4  and  C5_5 
REMARK       I    between atoms: C5_5  and  N1_7 
REMARK    4  A    between atoms: N1_7  and  C6_9 
REMARK    5  A    between atoms: C6_9  and  C7_10 
REMARK    6  A    between atoms: C7_10  and  C8_11 
REMARK    7  A    between atoms: C8_11  and  N2_12 
REMARK       I    between atoms: N2_12  and  C9_14 
REMARK    8  A    between atoms: C9_14  and  C10_16 
REMARK    9  A    between atoms: C10_16  and  C11_17 
REMARK   10  A    between atoms: N3_23  and  C17_24 
REMARK   11  A    between atoms: C18_27  and  N5_28 
REMARK   12  A    between atoms: C25_36  and  C26_37 
REMARK   13  A    between atoms: C26_37  and  N6_38 
ROOT
HETATM    1  C3  UNL     1     -12.802  20.548 -17.776  1.00  0.00    -0.014 C 
HETATM    2  C15 UNL     1     -13.674  19.309 -17.536  1.00  0.00     0.032 C 
HETATM    3  C16 UNL     1     -12.764  18.198 -17.983  1.00  0.00     0.142 C 
HETATM    4  N3  UNL     1     -11.471  18.626 -17.465  1.00  0.00    -0.217 N 
HETATM    5  C29 UNL     1     -11.443  20.061 -17.345  1.00  0.00     0.151 C 
ENDROOT
BRANCH   4   6
HETATM    6  C17 UNL     1     -10.427  17.717 -17.136  1.00  0.00     0.683 A 
HETATM    7  N4  UNL     1      -9.459  17.407 -18.029  1.00  0.00    -0.176 N 
HETATM    8  C18 UNL     1      -8.451  16.542 -17.732  1.00  0.00     0.133 A 
ATOM      9  H4  UNL     1      -9.485  17.835 -18.954  1.00  0.00     0.186 HD
HETATM   10  C23 UNL     1      -8.456  15.990 -16.479  1.00  0.00     0.054 A 
HETATM   11  C24 UNL     1      -7.499  15.110 -16.089  1.00  0.00     0.029 A 
HETATM   12  C28 UNL     1      -9.464  16.322 -15.570  1.00  0.00     0.135 A 
HETATM   13  C25 UNL     1      -7.497  14.545 -14.835  1.00  0.00    -0.017 A 
HETATM   14  C27 UNL     1      -8.508  14.903 -13.975  1.00  0.00     0.098 A 
HETATM   15  N7  UNL     1      -9.474  15.774 -14.334  1.00  0.00    -0.351 N 
ATOM     16  H7  UNL     1     -10.211  16.020 -13.673  1.00  0.00     0.166 HD
HETATM   17  N8  UNL     1     -10.440  17.184 -15.911  1.00  0.00    -0.176 N 
ATOM     18  H8  UNL     1     -11.175  17.427 -15.247  1.00  0.00     0.186 HD
BRANCH   8  19
HETATM   19  N5  UNL     1      -7.434  16.267 -18.716  1.00  0.00    -0.362 N 
HETATM   20  C19 UNL     1      -7.754  15.468 -19.859  1.00  0.00     0.150 C 
HETATM   21  C20 UNL     1      -6.947  15.862 -21.054  1.00  0.00     0.187 C 
HETATM   22  O3  UNL     1      -5.609  15.941 -20.707  1.00  0.00    -0.388 OA
HETATM   23  C21 UNL     1      -5.420  17.027 -19.845  1.00  0.00     0.187 C 
HETATM   24  C22 UNL     1      -6.098  16.777 -18.534  1.00  0.00     0.150 C 
ENDBRANCH   8  19
BRANCH  13  25
HETATM   25  C26 UNL     1      -6.417  13.589 -14.483  1.00  0.00     0.269 C 
BRANCH  25  26
HETATM   26  N6  UNL     1      -5.366  13.656 -15.477  1.00  0.00    -0.075 N 
ATOM     27  H63 UNL     1      -4.883  12.764 -15.586  1.00  0.00     0.274 HD
ATOM     28  H62 UNL     1      -5.736  13.740 -16.423  1.00  0.00     0.274 HD
ATOM     29  H61 UNL     1      -4.724  14.414 -15.246  1.00  0.00     0.274 HD
ENDBRANCH  25  26
ENDBRANCH  13  25
ENDBRANCH   4   6
BRANCH   1  30
HETATM   30  C2  UNL     1     -12.848  20.938 -19.213  1.00  0.00     0.007 C 
HETATM   31  C1  UNL     1     -11.472  21.184 -19.797  1.00  0.00     0.006 C 
ENDBRANCH   1  30
BRANCH   1  32
HETATM   32  C4  UNL     1     -13.232  21.671 -16.891  1.00  0.00     0.114 C 
BRANCH  32  33
HETATM   33  C5  UNL     1     -14.366  22.455 -17.378  1.00  0.00     0.218 C 
HETATM   34  O1  UNL     1     -14.281  23.578 -17.936  1.00  0.00    -0.274 OA
HETATM   35  N1  UNL     1     -15.723  21.969 -17.245  1.00  0.00    -0.361 N 
ATOM     36  H1  UNL     1     -15.867  21.062 -16.800  1.00  0.00     0.162 HD
BRANCH  35  37
HETATM   37  C6  UNL     1     -16.873  22.684 -17.701  1.00  0.00     0.124 C 
BRANCH  37  38
HETATM   38  C7  UNL     1     -17.469  23.436 -16.549  1.00  0.00     0.039 C 
BRANCH  38  39
HETATM   39  C8  UNL     1     -18.420  22.589 -15.761  1.00  0.00     0.124 C 
BRANCH  39  40
HETATM   40  N2  UNL     1     -17.768  21.411 -15.205  1.00  0.00    -0.361 N 
HETATM   41  C9  UNL     1     -17.257  21.435 -13.879  1.00  0.00     0.218 C 
HETATM   42  O2  UNL     1     -17.353  22.460 -13.165  1.00  0.00    -0.274 OA
ATOM     43  H2  UNL     1     -17.678  20.566 -15.769  1.00  0.00     0.162 HD
BRANCH  41  44
HETATM   44  C10 UNL     1     -16.608  20.233 -13.344  1.00  0.00     0.111 C 
BRANCH  44  45
HETATM   45  C11 UNL     1     -15.097  20.407 -13.234  1.00  0.00    -0.043 C 
HETATM   46  C12 UNL     1     -14.377  19.352 -14.051  1.00  0.00     0.015 C 
HETATM   47  C13 UNL     1     -14.750  20.312 -11.759  1.00  0.00     0.015 C 
HETATM   48  C14 UNL     1     -14.641  21.747 -13.751  1.00  0.00     0.015 C 
ENDBRANCH  44  45
ENDBRANCH  41  44
ENDBRANCH  39  40
ENDBRANCH  38  39
ENDBRANCH  37  38
ENDBRANCH  35  37
ENDBRANCH  32  33
ENDBRANCH   1  32
TORSDOF 13
ENDMDL
MODEL 4
REMARK VINA RESULT: -9.374197173      1.634      3.307
REMARK  13 active torsions:
REMARK  status: ('A' for Active; 'I' for Inactive)
REMARK    1  A    between atoms: C2_2  and  C3_3 
REMARK    2  A    between atoms: C3_3  and  C4_4 
REMARK    3  A    between atoms: C4_4  and  C5_5 
REMARK       I    between atoms: C5_5  and  N1_7 
REMARK    4  A    between atoms: N1_7  and  C6_9 
REMARK    5  A    between atoms: C6_9  and  C7_10 
REMARK    6  A    between atoms: C7_10  and  C8_11 
REMARK    7  A    between atoms: C8_11  and  N2_12 
REMARK       I    between atoms: N2_12  and  C9_14 
REMARK    8  A    between atoms: C9_14  and  C10_16 
REMARK    9  A    between atoms: C10_16  and  C11_17 
REMARK   10  A    between atoms: N3_23  and  C17_24 
REMARK   11  A    between atoms: C18_27  and  N5_28 
REMARK   12  A    between atoms: C25_36  and  C26_37 
REMARK   13  A    between atoms: C26_37  and  N6_38 
ROOT
HETATM    1  C3  UNL     1     -12.963  20.746 -17.948  1.00  0.00    -0.014 C 
HETATM    2  C15 UNL     1     -12.229  20.701 -19.295  1.00  0.00     0.032 C 
HETATM    3  C16 UNL     1     -10.836  20.322 -18.875  1.00  0.00     0.142 C 
HETATM    4  N3  UNL     1     -11.081  19.329 -17.837  1.00  0.00    -0.217 N 
HETATM    5  C29 UNL     1     -12.365  19.567 -17.227  1.00  0.00     0.151 C 
ENDROOT
BRANCH   4   6
HETATM    6  C17 UNL     1     -10.157  18.295 -17.517  1.00  0.00     0.683 A 
HETATM    7  N4  UNL     1      -9.247  17.863 -18.420  1.00  0.00    -0.176 N 
HETATM    8  C18 UNL     1      -8.354  16.877 -18.132  1.00  0.00     0.133 A 
ATOM      9  H4  UNL     1      -9.230  18.290 -19.345  1.00  0.00     0.186 HD
HETATM   10  C23 UNL     1      -8.415  16.332 -16.877  1.00  0.00     0.054 A 
HETATM   11  C24 UNL     1      -7.573  15.338 -16.496  1.00  0.00     0.029 A 
HETATM   12  C28 UNL     1      -9.362  16.791 -15.958  1.00  0.00     0.135 A 
HETATM   13  C25 UNL     1      -7.628  14.780 -15.239  1.00  0.00    -0.017 A 
HETATM   14  C27 UNL     1      -8.576  15.266 -14.369  1.00  0.00     0.098 A 
HETATM   15  N7  UNL     1      -9.427  16.252 -14.720  1.00  0.00    -0.351 N 
ATOM     16  H7  UNL     1     -10.119  16.590 -14.052  1.00  0.00     0.166 HD
HETATM   17  N8  UNL     1     -10.224  17.771 -16.290  1.00  0.00    -0.176 N 
ATOM     18  H8  UNL     1     -10.914  18.106 -15.618  1.00  0.00     0.186 HD
BRANCH   8  19
HETATM   19  N5  UNL     1      -7.392  16.473 -19.127  1.00  0.00    -0.362 N 
HETATM   20  C19 UNL     1      -7.774  15.539 -20.141  1.00  0.00     0.150 C 
HETATM   21  C20 UNL     1      -7.033  15.773 -21.417  1.00  0.00     0.187 C 
HETATM   22  O3  UNL     1      -5.678  15.886 -21.155  1.00  0.00    -0.388 OA
HETATM   23  C21 UNL     1      -5.442  17.071 -20.449  1.00  0.00     0.187 C 
HETATM   24  C22 UNL     1      -6.048  16.993 -19.082  1.00  0.00     0.150 C 
ENDBRANCH   8  19
BRANCH  13  25
HETATM   25  C26 UNL     1      -6.675  13.695 -14.897  1.00  0.00     0.269 C 
BRANCH  25  26
HETATM   26  N6  UNL     1      -5.427  13.903 -15.602  1.00  0.00    -0.075 N 
ATOM     27  H63 UNL     1      -5.448  14.743 -16.180  1.00  0.00     0.274 HD
ATOM     28  H62 UNL     1      -4.672  14.176 -14.973  1.00  0.00     0.274 HD
ATOM     29  H61 UNL     1      -5.196  13.070 -16.142  1.00  0.00     0.274 HD
ENDBRANCH  25  26
ENDBRANCH  13  25
ENDBRANCH   4   6
BRANCH   1  30
HETATM   30  C2  UNL     1     -12.699  22.041 -17.262  1.00  0.00     0.007 C 
HETATM   31  C1  UNL     1     -12.005  21.863 -15.927  1.00  0.00     0.006 C 
ENDBRANCH   1  30
BRANCH   1  32
HETATM   32  C4  UNL     1     -14.427  20.519 -18.143  1.00  0.00     0.114 C 
BRANCH  32  33
HETATM   33  C5  UNL     1     -15.232  21.728 -18.310  1.00  0.00     0.218 C 
HETATM   34  O1  UNL     1     -15.115  22.547 -19.257  1.00  0.00    -0.274 OA
HETATM   35  N1  UNL     1     -16.262  22.079 -17.357  1.00  0.00    -0.361 N 
ATOM     36  H1  UNL     1     -16.411  21.459 -16.561  1.00  0.00     0.162 HD
BRANCH  35  37
HETATM   37  C6  UNL     1     -17.083  23.244 -17.465  1.00  0.00     0.124 C 
BRANCH  37  38
HETATM   38  C7  UNL     1     -18.508  22.863 -17.193  1.00  0.00     0.039 C 
BRANCH  38  39
HETATM   39  C8  UNL     1     -18.775  22.707 -15.728  1.00  0.00     0.124 C 
BRANCH  39  40
HETATM   40  N2  UNL     1     -18.119  21.527 -15.178  1.00  0.00    -0.361 N 
HETATM   41  C9  UNL     1     -17.471  21.592 -13.915  1.00  0.00     0.218 C 
HETATM   42  O2  UNL     1     -17.447  22.655 -13.251  1.00  0.00    -0.274 OA
ATOM     43  H2  UNL     1     -18.125  20.652 -15.701  1.00  0.00     0.162 HD
BRANCH  41  44
HETATM   44  C10 UNL     1     -16.822  20.389 -13.384  1.00  0.00     0.111 C 
BRANCH  44  45
HETATM   45  C11 UNL     1     -15.302  20.480 -13.471  1.00  0.00    -0.043 C 
HETATM   46  C12 UNL     1     -14.749  19.366 -14.339  1.00  0.00     0.015 C 
HETATM   47  C13 UNL     1     -14.775  20.402 -12.050  1.00  0.00     0.015 C 
HETATM   48  C14 UNL     1     -14.846  21.780 -14.083  1.00  0.00     0.015 C 
ENDBRANCH  44  45
ENDBRANCH  41  44
ENDBRANCH  39  40
ENDBRANCH  38  39
ENDBRANCH  37  38
ENDBRANCH  35  37
ENDBRANCH  32  33
ENDBRANCH   1  32
TORSDOF 13
ENDMDL
MODEL 5
REMARK VINA RESULT: -9.278638930      1.634      2.342
REMARK  13 active torsions:
REMARK  status: ('A' for Active; 'I' for Inactive)
REMARK    1  A    between atoms: C2_2  and  C3_3 
REMARK    2  A    between atoms: C3_3  and  C4_4 
REMARK    3  A    between atoms: C4_4  and  C5_5 
REMARK       I    between atoms: C5_5  and  N1_7 
REMARK    4  A    between atoms: N1_7  and  C6_9 
REMARK    5  A    between atoms: C6_9  and  C7_10 
REMARK    6  A    between atoms: C7_10  and  C8_11 
REMARK    7  A    between atoms: C8_11  and  N2_12 
REMARK       I    between atoms: N2_12  and  C9_14 
REMARK    8  A    between atoms: C9_14  and  C10_16 
REMARK    9  A    between atoms: C10_16  and  C11_17 
REMARK   10  A    between atoms: N3_23  and  C17_24 
REMARK   11  A    between atoms: C18_27  and  N5_28 
REMARK   12  A    between atoms: C25_36  and  C26_37 
REMARK   13  A    between atoms: C26_37  and  N6_38 
ROOT
HETATM    1  C3  UNL     1     -13.629  20.274 -15.292  1.00  0.00    -0.014 C 
HETATM    2  C15 UNL     1     -12.671  21.142 -16.118  1.00  0.00     0.032 C 
HETATM    3  C16 UNL     1     -11.329  20.619 -15.686  1.00  0.00     0.142 C 
HETATM    4  N3  UNL     1     -11.563  19.183 -15.610  1.00  0.00    -0.217 N 
HETATM    5  C29 UNL     1     -12.956  18.928 -15.347  1.00  0.00     0.151 C 
ENDROOT
BRANCH   4   6
HETATM    6  C17 UNL     1     -10.532  18.218 -15.785  1.00  0.00     0.683 A 
HETATM    7  N4  UNL     1      -9.922  18.050 -16.981  1.00  0.00    -0.176 N 
HETATM    8  C18 UNL     1      -8.933  17.135 -17.167  1.00  0.00     0.133 A 
ATOM      9  H4  UNL     1     -10.213  18.630 -17.768  1.00  0.00     0.186 HD
HETATM   10  C23 UNL     1      -8.576  16.379 -16.082  1.00  0.00     0.054 A 
HETATM   11  C24 UNL     1      -7.605  15.434 -16.167  1.00  0.00     0.029 A 
HETATM   12  C28 UNL     1      -9.216  16.565 -14.855  1.00  0.00     0.135 A 
HETATM   13  C25 UNL     1      -7.241  14.665 -15.086  1.00  0.00    -0.017 A 
HETATM   14  C27 UNL     1      -7.900  14.885 -13.899  1.00  0.00     0.098 A 
HETATM   15  N7  UNL     1      -8.869  15.817 -13.784  1.00  0.00    -0.351 N 
ATOM     16  H7  UNL     1      -9.339  15.957 -12.890  1.00  0.00     0.166 HD
HETATM   17  N8  UNL     1     -10.190  17.486 -14.721  1.00  0.00    -0.176 N 
ATOM     18  H8  UNL     1     -10.657  17.622 -13.825  1.00  0.00     0.186 HD
BRANCH   8  19
HETATM   19  N5  UNL     1      -8.302  17.017 -18.458  1.00  0.00    -0.362 N 
HETATM   20  C19 UNL     1      -8.076  18.192 -19.244  1.00  0.00     0.150 C 
HETATM   21  C20 UNL     1      -6.858  18.060 -20.099  1.00  0.00     0.187 C 
HETATM   22  O3  UNL     1      -6.895  16.856 -20.780  1.00  0.00    -0.388 OA
HETATM   23  C21 UNL     1      -6.737  15.805 -19.869  1.00  0.00     0.187 C 
HETATM   24  C22 UNL     1      -7.924  15.720 -18.960  1.00  0.00     0.150 C 
ENDBRANCH   8  19
BRANCH  13  25
HETATM   25  C26 UNL     1      -6.173  13.649 -15.258  1.00  0.00     0.269 C 
BRANCH  25  26
HETATM   26  N6  UNL     1      -5.948  12.961 -14.003  1.00  0.00    -0.075 N 
ATOM     27  H63 UNL     1      -6.583  13.281 -13.271  1.00  0.00     0.274 HD
ATOM     28  H62 UNL     1      -6.246  11.987 -14.041  1.00  0.00     0.274 HD
ATOM     29  H61 UNL     1      -4.970  13.055 -13.731  1.00  0.00     0.274 HD
ENDBRANCH  25  26
ENDBRANCH  13  25
ENDBRANCH   4   6
BRANCH   1  30
HETATM   30  C2  UNL     1     -13.742  20.809 -13.906  1.00  0.00     0.007 C 
HETATM   31  C1  UNL     1     -13.961  19.721 -12.875  1.00  0.00     0.006 C 
ENDBRANCH   1  30
BRANCH   1  32
HETATM   32  C4  UNL     1     -14.964  20.190 -15.956  1.00  0.00     0.114 C 
BRANCH  32  33
HETATM   33  C5  UNL     1     -15.947  21.181 -15.518  1.00  0.00     0.218 C 
HETATM   34  O1  UNL     1     -15.814  22.426 -15.628  1.00  0.00    -0.274 OA
HETATM   35  N1  UNL     1     -17.192  20.777 -14.901  1.00  0.00    -0.361 N 
ATOM     36  H1  UNL     1     -17.366  19.780 -14.779  1.00  0.00     0.162 HD
BRANCH  35  37
HETATM   37  C6  UNL     1     -18.192  21.694 -14.453  1.00  0.00     0.124 C 
BRANCH  37  38
HETATM   38  C7  UNL     1     -19.223  21.856 -15.530  1.00  0.00     0.039 C 
BRANCH  38  39
HETATM   39  C8  UNL     1     -19.073  23.157 -16.256  1.00  0.00     0.124 C 
BRANCH  39  40
HETATM   40  N2  UNL     1     -18.270  23.016 -17.465  1.00  0.00    -0.361 N 
HETATM   41  C9  UNL     1     -18.018  24.143 -18.291  1.00  0.00     0.218 C 
HETATM   42  O2  UNL     1     -18.476  25.275 -18.005  1.00  0.00    -0.274 OA
ATOM     43  H2  UNL     1     -17.889  22.105 -17.718  1.00  0.00     0.162 HD
BRANCH  41  44
HETATM   44  C10 UNL     1     -17.205  23.973 -19.501  1.00  0.00     0.111 C 
BRANCH  44  45
HETATM   45  C11 UNL     1     -15.713  24.050 -19.195  1.00  0.00    -0.043 C 
HETATM   46  C12 UNL     1     -15.465  24.881 -17.950  1.00  0.00     0.015 C 
HETATM   47  C13 UNL     1     -15.045  24.653 -20.417  1.00  0.00     0.015 C 
HETATM   48  C14 UNL     1     -15.115  22.691 -18.941  1.00  0.00     0.015 C 
ENDBRANCH  44  45
ENDBRANCH  41  44
ENDBRANCH  39  40
ENDBRANCH  38  39
ENDBRANCH  37  38
ENDBRANCH  35  37
ENDBRANCH  32  33
ENDBRANCH   1  32
TORSDOF 13
ENDMDL
