MODEL 1
REMARK VINA RESULT: -6.024944647      0.000      0.000
REMARK  13 active torsions:
REMARK  status: ('A' for Active; 'I' for Inactive)
REMARK    1  A    between atoms: C2_2  and  C4_4 
REMARK    2  A    between atoms: C4_4  and  C5_5 
REMARK    3  A    between atoms: C6_6  and  C7_7 
REMARK    4  A    between atoms: C9_12  and  C10_13 
REMARK    5  A    between atoms: C10_13  and  C11_14 
REMARK    6  A    between atoms: C15_21  and  C16_22 
REMARK    7  A    between atoms: C16_22  and  C17_23 
REMARK    8  A    between atoms: C21_30  and  C22_31 
REMARK    9  A    between atoms: C26_38  and  C27_39 
REMARK   10  A    between atoms: C27_39  and  C28_40 
REMARK   11  A    between atoms: C31_43  and  O5_44 
REMARK   12  A    between atoms: C32_48  and  C33_49 
REMARK   13  A    between atoms: C33_49  and  C34_50 
ROOT
HETATM    1  C7  UNL     1      23.692  26.637  16.440  1.00  0.00     0.172 C 
HETATM    2  C8  UNL     1      22.874  27.456  17.331  1.00  0.00     0.233 C 
HETATM    3  O1  UNL     1      22.325  28.487  16.815  1.00  0.00    -0.272 OA
HETATM    4  N1  UNL     1      22.599  27.263  18.696  1.00  0.00    -0.347 N 
ATOM      5  H1  UNL     1      22.399  28.102  19.239  1.00  0.00     0.163 HD
HETATM    6  C9  UNL     1      22.567  26.014  19.415  1.00  0.00     0.177 C 
HETATM    7  C14 UNL     1      23.613  26.100  20.475  1.00  0.00     0.241 C 
HETATM    8  O2  UNL     1      23.128  26.551  21.590  1.00  0.00    -0.271 OA
HETATM    9  N2  UNL     1      24.949  25.788  20.439  1.00  0.00    -0.346 N 
ATOM     10  H2  UNL     1      25.558  26.598  20.555  1.00  0.00     0.163 HD
HETATM   11  C15 UNL     1      25.676  24.536  20.271  1.00  0.00     0.177 C 
HETATM   12  C20 UNL     1      26.625  24.410  21.447  1.00  0.00     0.241 C 
HETATM   13  O3  UNL     1      26.513  23.371  22.144  1.00  0.00    -0.271 OA
HETATM   14  N3  UNL     1      27.590  25.329  21.820  1.00  0.00    -0.346 N 
ATOM     15  H3  UNL     1      27.608  25.515  22.822  1.00  0.00     0.163 HD
HETATM   16  C21 UNL     1      28.569  26.074  21.084  1.00  0.00     0.180 C 
HETATM   17  C25 UNL     1      28.567  26.007  19.647  1.00  0.00     0.241 C 
HETATM   18  O4  UNL     1      29.084  24.993  19.060  1.00  0.00    -0.271 OA
HETATM   19  N4  UNL     1      28.029  26.989  18.731  1.00  0.00    -0.347 N 
ATOM     20  H4  UNL     1      27.590  26.657  17.873  1.00  0.00     0.163 HD
HETATM   21  C26 UNL     1      28.080  28.414  18.964  1.00  0.00     0.159 C 
HETATM   22  C31 UNL     1      26.903  29.159  18.490  1.00  0.00     0.135 C 
HETATM   23  N5  UNL     1      25.875  28.831  17.607  1.00  0.00    -0.361 N 
ATOM     24  H5  UNL     1      24.950  29.068  17.968  1.00  0.00     0.162 HD
HETATM   25  C32 UNL     1      25.830  28.239  16.313  1.00  0.00     0.162 C 
HETATM   26  C35 UNL     1      25.068  26.985  16.189  1.00  0.00     0.166 C 
HETATM   27  O7  UNL     1      25.768  26.009  15.776  1.00  0.00    -0.294 OA
ENDROOT
BRANCH   1  28
HETATM   28  C6  UNL     1      22.975  26.318  15.170  1.00  0.00    -0.009 C 
HETATM   29  C5  UNL     1      21.698  26.298  15.065  1.00  0.00    -0.029 C 
BRANCH  29  30
HETATM   30  C4  UNL     1      21.069  25.963  13.732  1.00  0.00     0.030 C 
BRANCH  30  31
HETATM   31  C2  UNL     1      19.645  25.497  13.952  1.00  0.00    -0.019 C 
HETATM   32  C1  UNL     1      18.660  26.620  13.911  1.00  0.00     0.010 C 
HETATM   33  C3  UNL     1      19.562  24.799  15.276  1.00  0.00     0.010 C 
ENDBRANCH  30  31
ENDBRANCH  29  30
ENDBRANCH   1  28
BRANCH  25  34
HETATM   34  C33 UNL     1      25.447  29.264  15.278  1.00  0.00     0.132 C 
BRANCH  34  35
HETATM   35  C34 UNL     1      26.073  30.583  15.463  1.00  0.00     0.233 C 
HETATM   36  N6  UNL     1      25.452  31.518  16.350  1.00  0.00    -0.062 NA
HETATM   37  O6  UNL     1      27.110  30.949  14.901  1.00  0.00    -0.277 OA
ENDBRANCH  34  35
ENDBRANCH  25  34
BRANCH   6  38
HETATM   38  C10 UNL     1      21.285  25.679  20.094  1.00  0.00     0.038 C 
BRANCH  38  39
HETATM   39  C11 UNL     1      20.808  24.291  20.099  1.00  0.00    -0.020 C 
HETATM   40  C12 UNL     1      20.419  23.760  21.450  1.00  0.00     0.009 C 
HETATM   41  C13 UNL     1      19.744  23.996  19.061  1.00  0.00     0.009 C 
ENDBRANCH  38  39
ENDBRANCH   6  38
BRANCH  22  42
HETATM   42  O5  UNL     1      26.829  30.358  19.014  1.00  0.00    -0.348 OA
ATOM     43  H5  UNL     1      27.134  31.031  18.418  1.00  0.00     0.219 HD
ENDBRANCH  22  42
BRANCH  21  44
HETATM   44  C27 UNL     1      29.396  28.892  18.377  1.00  0.00     0.037 C 
BRANCH  44  45
HETATM   45  C28 UNL     1      29.817  28.203  17.126  1.00  0.00    -0.020 C 
HETATM   46  C29 UNL     1      31.298  27.810  17.362  1.00  0.00     0.009 C 
HETATM   47  C30 UNL     1      29.877  29.144  15.936  1.00  0.00     0.009 C 
ENDBRANCH  44  45
ENDBRANCH  21  44
BRANCH  11  48
HETATM   48  C16 UNL     1      24.802  23.348  20.096  1.00  0.00     0.038 C 
BRANCH  48  49
HETATM   49  C17 UNL     1      25.033  22.564  18.862  1.00  0.00    -0.020 C 
HETATM   50  C18 UNL     1      25.819  21.275  19.162  1.00  0.00     0.009 C 
HETATM   51  C19 UNL     1      26.041  23.392  18.022  1.00  0.00     0.009 C 
ENDBRANCH  48  49
ENDBRANCH  11  48
BRANCH  16  52
HETATM   52  C22 UNL     1      29.918  25.678  21.696  1.00  0.00     0.009 C 
HETATM   53  C23 UNL     1      30.987  26.690  21.476  1.00  0.00     0.012 C 
HETATM   54  C24 UNL     1      29.832  25.252  23.117  1.00  0.00     0.012 C 
ENDBRANCH  16  52
TORSDOF 13
ENDMDL
MODEL 2
REMARK VINA RESULT: -5.973118628      1.867      7.564
REMARK  13 active torsions:
REMARK  status: ('A' for Active; 'I' for Inactive)
REMARK    1  A    between atoms: C2_2  and  C4_4 
REMARK    2  A    between atoms: C4_4  and  C5_5 
REMARK    3  A    between atoms: C6_6  and  C7_7 
REMARK    4  A    between atoms: C9_12  and  C10_13 
REMARK    5  A    between atoms: C10_13  and  C11_14 
REMARK    6  A    between atoms: C15_21  and  C16_22 
REMARK    7  A    between atoms: C16_22  and  C17_23 
REMARK    8  A    between atoms: C21_30  and  C22_31 
REMARK    9  A    between atoms: C26_38  and  C27_39 
REMARK   10  A    between atoms: C27_39  and  C28_40 
REMARK   11  A    between atoms: C31_43  and  O5_44 
REMARK   12  A    between atoms: C32_48  and  C33_49 
REMARK   13  A    between atoms: C33_49  and  C34_50 
ROOT
HETATM    1  C7  UNL     1      28.452  28.573  17.972  1.00  0.00     0.172 C 
HETATM    2  C8  UNL     1      28.930  27.445  17.178  1.00  0.00     0.233 C 
HETATM    3  O1  UNL     1      29.321  27.706  15.991  1.00  0.00    -0.272 OA
HETATM    4  N1  UNL     1      29.028  26.091  17.545  1.00  0.00    -0.347 N 
ATOM      5  H1  UNL     1      28.960  25.412  16.788  1.00  0.00     0.163 HD
HETATM    6  C9  UNL     1      29.213  25.554  18.870  1.00  0.00     0.177 C 
HETATM    7  C14 UNL     1      28.023  24.704  19.162  1.00  0.00     0.241 C 
HETATM    8  O2  UNL     1      28.225  23.467  18.824  1.00  0.00    -0.271 OA
HETATM    9  N2  UNL     1      26.806  25.027  19.705  1.00  0.00    -0.346 N 
ATOM     10  H2  UNL     1      26.028  24.917  19.054  1.00  0.00     0.163 HD
HETATM   11  C15 UNL     1      26.396  25.494  21.024  1.00  0.00     0.177 C 
HETATM   12  C20 UNL     1      25.326  24.541  21.522  1.00  0.00     0.241 C 
HETATM   13  O3  UNL     1      25.547  23.983  22.625  1.00  0.00    -0.271 OA
HETATM   14  N3  UNL     1      24.143  24.232  20.875  1.00  0.00    -0.346 N 
ATOM     15  H3  UNL     1      23.932  23.234  20.869  1.00  0.00     0.163 HD
HETATM   16  C21 UNL     1      23.152  25.028  20.211  1.00  0.00     0.180 C 
HETATM   17  C25 UNL     1      23.389  26.435  20.031  1.00  0.00     0.241 C 
HETATM   18  O4  UNL     1      23.196  27.240  21.010  1.00  0.00    -0.271 OA
HETATM   19  N4  UNL     1      23.840  27.095  18.826  1.00  0.00    -0.347 N 
ATOM     20  H4  UNL     1      24.466  27.895  18.920  1.00  0.00     0.163 HD
HETATM   21  C26 UNL     1      23.453  26.685  17.496  1.00  0.00     0.159 C 
HETATM   22  C31 UNL     1      24.504  26.828  16.476  1.00  0.00     0.135 C 
HETATM   23  N5  UNL     1      25.701  27.543  16.452  1.00  0.00    -0.361 N 
ATOM     24  H5  UNL     1      26.488  26.989  16.112  1.00  0.00     0.162 HD
HETATM   25  C32 UNL     1      26.068  28.875  16.797  1.00  0.00     0.162 C 
HETATM   26  C35 UNL     1      27.088  29.024  17.848  1.00  0.00     0.166 C 
HETATM   27  O7  UNL     1      26.683  29.687  18.852  1.00  0.00    -0.294 OA
ENDROOT
BRANCH   1  28
HETATM   28  C6  UNL     1      29.406  29.721  17.932  1.00  0.00    -0.009 C 
HETATM   29  C5  UNL     1      30.470  29.780  18.643  1.00  0.00    -0.029 C 
BRANCH  29  30
HETATM   30  C4  UNL     1      31.372  30.987  18.529  1.00  0.00     0.030 C 
BRANCH  30  31
HETATM   31  C2  UNL     1      31.559  31.606  19.899  1.00  0.00    -0.019 C 
HETATM   32  C1  UNL     1      31.399  30.613  21.005  1.00  0.00     0.010 C 
HETATM   33  C3  UNL     1      30.568  32.716  20.069  1.00  0.00     0.010 C 
ENDBRANCH  30  31
ENDBRANCH  29  30
ENDBRANCH   1  28
BRANCH  25  34
HETATM   34  C33 UNL     1      26.378  29.673  15.558  1.00  0.00     0.132 C 
BRANCH  34  35
HETATM   35  C34 UNL     1      25.983  31.088  15.628  1.00  0.00     0.233 C 
HETATM   36  N6  UNL     1      26.480  31.989  14.633  1.00  0.00    -0.062 NA
HETATM   37  O6  UNL     1      25.243  31.565  16.495  1.00  0.00    -0.277 OA
ENDBRANCH  34  35
ENDBRANCH  25  34
BRANCH   6  38
HETATM   38  C10 UNL     1      30.418  24.702  19.072  1.00  0.00     0.038 C 
BRANCH  38  39
HETATM   39  C11 UNL     1      31.326  24.982  20.189  1.00  0.00    -0.020 C 
HETATM   40  C12 UNL     1      31.572  26.440  20.457  1.00  0.00     0.009 C 
HETATM   41  C13 UNL     1      30.990  24.235  21.465  1.00  0.00     0.009 C 
ENDBRANCH  38  39
ENDBRANCH   6  38
BRANCH  22  42
HETATM   42  O5  UNL     1      24.240  26.142  15.390  1.00  0.00    -0.348 OA
ATOM     43  H5  UNL     1      23.866  26.682  14.704  1.00  0.00     0.219 HD
ENDBRANCH  22  42
BRANCH  21  44
HETATM   44  C27 UNL     1      22.171  27.434  17.178  1.00  0.00     0.037 C 
BRANCH  44  45
HETATM   45  C28 UNL     1      21.208  26.700  16.312  1.00  0.00    -0.020 C 
HETATM   46  C29 UNL     1      20.714  27.747  15.282  1.00  0.00     0.009 C 
HETATM   47  C30 UNL     1      19.946  26.299  17.055  1.00  0.00     0.009 C 
ENDBRANCH  44  45
ENDBRANCH  21  44
BRANCH  11  48
HETATM   48  C16 UNL     1      27.518  25.664  21.981  1.00  0.00     0.038 C 
BRANCH  48  49
HETATM   49  C17 UNL     1      27.668  27.021  22.551  1.00  0.00    -0.020 C 
HETATM   50  C18 UNL     1      28.314  27.982  21.536  1.00  0.00     0.009 C 
HETATM   51  C19 UNL     1      28.761  26.897  23.647  1.00  0.00     0.009 C 
ENDBRANCH  48  49
ENDBRANCH  11  48
BRANCH  16  52
HETATM   52  C22 UNL     1      21.841  24.734  20.949  1.00  0.00     0.009 C 
HETATM   53  C23 UNL     1      20.677  25.489  20.409  1.00  0.00     0.012 C 
HETATM   54  C24 UNL     1      21.549  23.286  21.103  1.00  0.00     0.012 C 
ENDBRANCH  16  52
TORSDOF 13
ENDMDL
MODEL 3
REMARK VINA RESULT: -5.918224085      2.381      5.166
REMARK  13 active torsions:
REMARK  status: ('A' for Active; 'I' for Inactive)
REMARK    1  A    between atoms: C2_2  and  C4_4 
REMARK    2  A    between atoms: C4_4  and  C5_5 
REMARK    3  A    between atoms: C6_6  and  C7_7 
REMARK    4  A    between atoms: C9_12  and  C10_13 
REMARK    5  A    between atoms: C10_13  and  C11_14 
REMARK    6  A    between atoms: C15_21  and  C16_22 
REMARK    7  A    between atoms: C16_22  and  C17_23 
REMARK    8  A    between atoms: C21_30  and  C22_31 
REMARK    9  A    between atoms: C26_38  and  C27_39 
REMARK   10  A    between atoms: C27_39  and  C28_40 
REMARK   11  A    between atoms: C31_43  and  O5_44 
REMARK   12  A    between atoms: C32_48  and  C33_49 
REMARK   13  A    between atoms: C33_49  and  C34_50 
ROOT
HETATM    1  C7  UNL     1      24.841  24.652  20.534  1.00  0.00     0.172 C 
HETATM    2  C8  UNL     1      24.996  25.654  21.585  1.00  0.00     0.233 C 
HETATM    3  O1  UNL     1      23.932  26.243  21.974  1.00  0.00    -0.272 OA
HETATM    4  N1  UNL     1      26.169  26.063  22.242  1.00  0.00    -0.347 N 
ATOM      5  H1  UNL     1      26.176  27.017  22.602  1.00  0.00     0.163 HD
HETATM    6  C9  UNL     1      27.364  25.288  22.465  1.00  0.00     0.177 C 
HETATM    7  C14 UNL     1      28.477  26.001  21.772  1.00  0.00     0.241 C 
HETATM    8  O2  UNL     1      29.080  26.831  22.566  1.00  0.00    -0.271 OA
HETATM    9  N2  UNL     1      28.928  25.911  20.480  1.00  0.00    -0.346 N 
ATOM     10  H2  UNL     1      28.790  26.765  19.941  1.00  0.00     0.163 HD
HETATM   11  C15 UNL     1      29.566  24.842  19.720  1.00  0.00     0.177 C 
HETATM   12  C20 UNL     1      30.853  25.407  19.151  1.00  0.00     0.241 C 
HETATM   13  O3  UNL     1      31.909  24.795  19.447  1.00  0.00    -0.271 OA
HETATM   14  N3  UNL     1      30.968  26.528  18.348  1.00  0.00    -0.346 N 
ATOM     15  H3  UNL     1      31.729  27.149  18.623  1.00  0.00     0.163 HD
HETATM   16  C21 UNL     1      30.237  26.995  17.207  1.00  0.00     0.180 C 
HETATM   17  C25 UNL     1      29.057  26.284  16.791  1.00  0.00     0.241 C 
HETATM   18  O4  UNL     1      29.176  25.203  16.113  1.00  0.00    -0.271 OA
HETATM   19  N4  UNL     1      27.683  26.649  17.052  1.00  0.00    -0.347 N 
ATOM     20  H4  UNL     1      27.009  25.902  17.220  1.00  0.00     0.163 HD
HETATM   21  C26 UNL     1      27.211  28.014  17.090  1.00  0.00     0.159 C 
HETATM   22  C31 UNL     1      26.162  28.278  18.088  1.00  0.00     0.135 C 
HETATM   23  N5  UNL     1      25.319  27.435  18.812  1.00  0.00    -0.361 N 
ATOM     24  H5  UNL     1      25.280  27.669  19.804  1.00  0.00     0.162 HD
HETATM   25  C32 UNL     1      24.500  26.321  18.471  1.00  0.00     0.162 C 
HETATM   26  C35 UNL     1      24.806  25.050  19.149  1.00  0.00     0.166 C 
HETATM   27  O7  UNL     1      25.099  24.110  18.346  1.00  0.00    -0.294 OA
ENDROOT
BRANCH   1  28
HETATM   28  C6  UNL     1      23.745  23.688  20.847  1.00  0.00    -0.009 C 
HETATM   29  C5  UNL     1      22.606  23.697  20.259  1.00  0.00    -0.029 C 
BRANCH  29  30
HETATM   30  C4  UNL     1      21.562  22.677  20.649  1.00  0.00     0.030 C 
BRANCH  30  31
HETATM   31  C2  UNL     1      20.185  23.297  20.529  1.00  0.00    -0.019 C 
HETATM   32  C1  UNL     1      20.054  24.178  19.329  1.00  0.00     0.010 C 
HETATM   33  C3  UNL     1      19.899  24.086  21.770  1.00  0.00     0.010 C 
ENDBRANCH  30  31
ENDBRANCH  29  30
ENDBRANCH   1  28
BRANCH  25  34
HETATM   34  C33 UNL     1      23.044  26.694  18.551  1.00  0.00     0.132 C 
BRANCH  34  35
HETATM   35  C34 UNL     1      22.494  27.279  17.317  1.00  0.00     0.233 C 
HETATM   36  N6  UNL     1      21.084  27.505  17.234  1.00  0.00    -0.062 NA
HETATM   37  O6  UNL     1      23.171  27.594  16.332  1.00  0.00    -0.277 OA
ENDBRANCH  34  35
ENDBRANCH  25  34
BRANCH   6  38
HETATM   38  C10 UNL     1      27.778  25.110  23.884  1.00  0.00     0.038 C 
BRANCH  38  39
HETATM   39  C11 UNL     1      27.467  23.856  24.579  1.00  0.00    -0.020 C 
HETATM   40  C12 UNL     1      26.545  23.996  25.758  1.00  0.00     0.009 C 
HETATM   41  C13 UNL     1      27.027  22.731  23.664  1.00  0.00     0.009 C 
ENDBRANCH  38  39
ENDBRANCH   6  38
BRANCH  22  42
HETATM   42  O5  UNL     1      26.012  29.558  18.326  1.00  0.00    -0.348 OA
ATOM     43  H5  UNL     1      26.537  29.853  19.060  1.00  0.00     0.219 HD
ENDBRANCH  22  42
BRANCH  21  44
HETATM   44  C27 UNL     1      26.815  28.365  15.666  1.00  0.00     0.037 C 
BRANCH  44  45
HETATM   45  C28 UNL     1      27.658  29.405  15.014  1.00  0.00    -0.020 C 
HETATM   46  C29 UNL     1      28.625  28.620  14.092  1.00  0.00     0.009 C 
HETATM   47  C30 UNL     1      28.582  30.104  15.997  1.00  0.00     0.009 C 
ENDBRANCH  44  45
ENDBRANCH  21  44
BRANCH  11  48
HETATM   48  C16 UNL     1      29.768  23.589  20.490  1.00  0.00     0.038 C 
BRANCH  48  49
HETATM   49  C17 UNL     1      29.181  22.371  19.890  1.00  0.00    -0.020 C 
HETATM   50  C18 UNL     1      27.644  22.395  19.976  1.00  0.00     0.009 C 
HETATM   51  C19 UNL     1      29.559  21.209  20.846  1.00  0.00     0.009 C 
ENDBRANCH  48  49
ENDBRANCH  11  48
BRANCH  16  52
HETATM   52  C22 UNL     1      31.277  27.126  16.089  1.00  0.00     0.009 C 
HETATM   53  C23 UNL     1      31.911  28.472  16.025  1.00  0.00     0.012 C 
HETATM   54  C24 UNL     1      32.281  26.031  16.070  1.00  0.00     0.012 C 
ENDBRANCH  16  52
TORSDOF 13
ENDMDL
MODEL 4
REMARK VINA RESULT: -5.903301565      2.009      7.376
REMARK  13 active torsions:
REMARK  status: ('A' for Active; 'I' for Inactive)
REMARK    1  A    between atoms: C2_2  and  C4_4 
REMARK    2  A    between atoms: C4_4  and  C5_5 
REMARK    3  A    between atoms: C6_6  and  C7_7 
REMARK    4  A    between atoms: C9_12  and  C10_13 
REMARK    5  A    between atoms: C10_13  and  C11_14 
REMARK    6  A    between atoms: C15_21  and  C16_22 
REMARK    7  A    between atoms: C16_22  and  C17_23 
REMARK    8  A    between atoms: C21_30  and  C22_31 
REMARK    9  A    between atoms: C26_38  and  C27_39 
REMARK   10  A    between atoms: C27_39  and  C28_40 
REMARK   11  A    between atoms: C31_43  and  O5_44 
REMARK   12  A    between atoms: C32_48  and  C33_49 
REMARK   13  A    between atoms: C33_49  and  C34_50 
ROOT
HETATM    1  C7  UNL     1      27.562  27.345  18.115  1.00  0.00     0.172 C 
HETATM    2  C8  UNL     1      27.902  26.198  17.277  1.00  0.00     0.233 C 
HETATM    3  O1  UNL     1      28.554  26.445  16.207  1.00  0.00    -0.272 OA
HETATM    4  N1  UNL     1      27.612  24.839  17.489  1.00  0.00    -0.347 N 
ATOM      5  H1  UNL     1      27.527  24.260  16.654  1.00  0.00     0.163 HD
HETATM    6  C9  UNL     1      27.420  24.171  18.751  1.00  0.00     0.177 C 
HETATM    7  C14 UNL     1      26.032  23.626  18.746  1.00  0.00     0.241 C 
HETATM    8  O2  UNL     1      25.998  22.409  18.298  1.00  0.00    -0.271 OA
HETATM    9  N2  UNL     1      24.845  24.200  19.124  1.00  0.00    -0.346 N 
ATOM     10  H2  UNL     1      24.197  24.340  18.350  1.00  0.00     0.163 HD
HETATM   11  C15 UNL     1      24.321  24.651  20.408  1.00  0.00     0.177 C 
HETATM   12  C20 UNL     1      22.986  23.961  20.611  1.00  0.00     0.241 C 
HETATM   13  O3  UNL     1      22.865  23.280  21.660  1.00  0.00    -0.271 OA
HETATM   14  N3  UNL     1      21.902  24.010  19.752  1.00  0.00    -0.346 N 
ATOM     15  H3  UNL     1      21.469  23.100  19.592  1.00  0.00     0.163 HD
HETATM   16  C21 UNL     1      21.264  25.078  19.041  1.00  0.00     0.180 C 
HETATM   17  C25 UNL     1      21.851  26.391  19.072  1.00  0.00     0.241 C 
HETATM   18  O4  UNL     1      21.675  27.139  20.098  1.00  0.00    -0.271 OA
HETATM   19  N4  UNL     1      22.657  27.009  18.043  1.00  0.00    -0.347 N 
ATOM     20  H4  UNL     1      23.424  27.616  18.330  1.00  0.00     0.163 HD
HETATM   21  C26 UNL     1      22.435  26.814  16.628  1.00  0.00     0.159 C 
HETATM   22  C31 UNL     1      23.659  26.769  15.812  1.00  0.00     0.135 C 
HETATM   23  N5  UNL     1      24.974  27.160  16.065  1.00  0.00    -0.361 N 
ATOM     24  H5  UNL     1      25.658  26.455  15.790  1.00  0.00     0.162 HD
HETATM   25  C32 UNL     1      25.572  28.326  16.622  1.00  0.00     0.162 C 
HETATM   26  C35 UNL     1      26.389  28.131  17.832  1.00  0.00     0.166 C 
HETATM   27  O7  UNL     1      25.972  28.794  18.832  1.00  0.00    -0.294 OA
ENDROOT
BRANCH   1  28
HETATM   28  C6  UNL     1      28.749  28.216  18.366  1.00  0.00    -0.009 C 
HETATM   29  C5  UNL     1      29.651  27.948  19.235  1.00  0.00    -0.029 C 
BRANCH  29  30
HETATM   30  C4  UNL     1      30.814  28.896  19.412  1.00  0.00     0.030 C 
BRANCH  30  31
HETATM   31  C2  UNL     1      30.973  29.228  20.882  1.00  0.00    -0.019 C 
HETATM   32  C1  UNL     1      30.766  28.039  21.765  1.00  0.00     0.010 C 
HETATM   33  C3  UNL     1      29.996  30.304  21.244  1.00  0.00     0.010 C 
ENDBRANCH  30  31
ENDBRANCH  29  30
ENDBRANCH   1  28
BRANCH  25  34
HETATM   34  C33 UNL     1      26.282  29.115  15.554  1.00  0.00     0.132 C 
BRANCH  34  35
HETATM   35  C34 UNL     1      26.176  30.575  15.701  1.00  0.00     0.233 C 
HETATM   36  N6  UNL     1      27.166  31.400  15.079  1.00  0.00    -0.062 NA
HETATM   37  O6  UNL     1      25.284  31.151  16.332  1.00  0.00    -0.277 OA
ENDBRANCH  34  35
ENDBRANCH  25  34
BRANCH   6  38
HETATM   38  C10 UNL     1      28.335  23.031  19.037  1.00  0.00     0.038 C 
BRANCH  38  39
HETATM   39  C11 UNL     1      29.037  22.968  20.324  1.00  0.00    -0.020 C 
HETATM   40  C12 UNL     1      29.588  24.279  20.810  1.00  0.00     0.009 C 
HETATM   41  C13 UNL     1      28.269  22.252  21.417  1.00  0.00     0.009 C 
ENDBRANCH  38  39
ENDBRANCH   6  38
BRANCH  22  42
HETATM   42  O5  UNL     1      23.446  26.258  14.624  1.00  0.00    -0.348 OA
ATOM     43  H5  UNL     1      22.974  26.854  14.055  1.00  0.00     0.219 HD
ENDBRANCH  22  42
BRANCH  21  44
HETATM   44  C27 UNL     1      21.444  27.884  16.204  1.00  0.00     0.037 C 
BRANCH  44  45
HETATM   45  C28 UNL     1      20.240  27.380  15.487  1.00  0.00    -0.020 C 
HETATM   46  C29 UNL     1      20.239  25.849  15.730  1.00  0.00     0.009 C 
HETATM   47  C30 UNL     1      20.366  27.507  13.979  1.00  0.00     0.009 C 
ENDBRANCH  44  45
ENDBRANCH  21  44
BRANCH  11  48
HETATM   48  C16 UNL     1      25.257  24.458  21.545  1.00  0.00     0.038 C 
BRANCH  48  49
HETATM   49  C17 UNL     1      25.624  25.687  22.283  1.00  0.00    -0.020 C 
HETATM   50  C18 UNL     1      26.732  26.465  21.549  1.00  0.00     0.009 C 
HETATM   51  C19 UNL     1      26.341  25.204  23.571  1.00  0.00     0.009 C 
ENDBRANCH  48  49
ENDBRANCH  11  48
BRANCH  16  52
HETATM   52  C22 UNL     1      19.808  25.066  19.521  1.00  0.00     0.009 C 
HETATM   53  C23 UNL     1      18.866  24.465  18.537  1.00  0.00     0.012 C 
HETATM   54  C24 UNL     1      19.629  24.506  20.885  1.00  0.00     0.012 C 
ENDBRANCH  16  52
TORSDOF 13
ENDMDL
MODEL 5
REMARK VINA RESULT: -5.713614174      2.353      4.903
REMARK  13 active torsions:
REMARK  status: ('A' for Active; 'I' for Inactive)
REMARK    1  A    between atoms: C2_2  and  C4_4 
REMARK    2  A    between atoms: C4_4  and  C5_5 
REMARK    3  A    between atoms: C6_6  and  C7_7 
REMARK    4  A    between atoms: C9_12  and  C10_13 
REMARK    5  A    between atoms: C10_13  and  C11_14 
REMARK    6  A    between atoms: C15_21  and  C16_22 
REMARK    7  A    between atoms: C16_22  and  C17_23 
REMARK    8  A    between atoms: C21_30  and  C22_31 
REMARK    9  A    between atoms: C26_38  and  C27_39 
REMARK   10  A    between atoms: C27_39  and  C28_40 
REMARK   11  A    between atoms: C31_43  and  O5_44 
REMARK   12  A    between atoms: C32_48  and  C33_49 
REMARK   13  A    between atoms: C33_49  and  C34_50 
ROOT
HETATM    1  C7  UNL     1      24.248  24.742  20.591  1.00  0.00     0.172 C 
HETATM    2  C8  UNL     1      24.232  25.835  21.559  1.00  0.00     0.233 C 
HETATM    3  O1  UNL     1      23.121  26.448  21.712  1.00  0.00    -0.272 OA
HETATM    4  N1  UNL     1      25.282  26.312  22.363  1.00  0.00    -0.347 N 
ATOM      5  H1  UNL     1      25.235  27.295  22.632  1.00  0.00     0.163 HD
HETATM    6  C9  UNL     1      26.419  25.571  22.849  1.00  0.00     0.177 C 
HETATM    7  C14 UNL     1      27.635  26.229  22.290  1.00  0.00     0.241 C 
HETATM    8  O2  UNL     1      28.103  27.132  23.095  1.00  0.00    -0.271 OA
HETATM    9  N2  UNL     1      28.295  26.028  21.104  1.00  0.00    -0.346 N 
ATOM     10  H2  UNL     1      28.253  26.830  20.475  1.00  0.00     0.163 HD
HETATM   11  C15 UNL     1      29.043  24.902  20.558  1.00  0.00     0.177 C 
HETATM   12  C20 UNL     1      30.410  25.426  20.163  1.00  0.00     0.241 C 
HETATM   13  O3  UNL     1      31.399  24.852  20.684  1.00  0.00    -0.271 OA
HETATM   14  N3  UNL     1      30.664  26.472  19.293  1.00  0.00    -0.346 N 
ATOM     15  H3  UNL     1      31.372  27.122  19.634  1.00  0.00     0.163 HD
HETATM   16  C21 UNL     1      30.135  26.828  18.009  1.00  0.00     0.180 C 
HETATM   17  C25 UNL     1      29.036  26.072  17.469  1.00  0.00     0.241 C 
HETATM   18  O4  UNL     1      29.260  24.936  16.920  1.00  0.00    -0.271 OA
HETATM   19  N4  UNL     1      27.640  26.447  17.465  1.00  0.00    -0.347 N 
ATOM     20  H4  UNL     1      26.943  25.711  17.584  1.00  0.00     0.163 HD
HETATM   21  C26 UNL     1      27.176  27.805  17.301  1.00  0.00     0.159 C 
HETATM   22  C31 UNL     1      25.978  28.147  18.084  1.00  0.00     0.135 C 
HETATM   23  N5  UNL     1      25.021  27.365  18.730  1.00  0.00    -0.361 N 
ATOM     24  H5  UNL     1      24.819  27.686  19.677  1.00  0.00     0.162 HD
HETATM   25  C32 UNL     1      24.264  26.217  18.359  1.00  0.00     0.162 C 
HETATM   26  C35 UNL     1      24.445  25.014  19.189  1.00  0.00     0.166 C 
HETATM   27  O7  UNL     1      24.862  24.009  18.534  1.00  0.00    -0.294 OA
ENDROOT
BRANCH   1  28
HETATM   28  C6  UNL     1      23.109  23.800  20.803  1.00  0.00    -0.009 C 
HETATM   29  C5  UNL     1      22.032  23.827  20.110  1.00  0.00    -0.029 C 
BRANCH  29  30
HETATM   30  C4  UNL     1      20.937  22.828  20.404  1.00  0.00     0.030 C 
BRANCH  30  31
HETATM   31  C2  UNL     1      19.601  23.408  19.984  1.00  0.00    -0.019 C 
HETATM   32  C1  UNL     1      18.954  24.205  21.071  1.00  0.00     0.010 C 
HETATM   33  C3  UNL     1      18.696  22.289  19.570  1.00  0.00     0.010 C 
ENDBRANCH  30  31
ENDBRANCH  29  30
ENDBRANCH   1  28
BRANCH  25  34
HETATM   34  C33 UNL     1      22.817  26.583  18.162  1.00  0.00     0.132 C 
BRANCH  34  35
HETATM   35  C34 UNL     1      22.511  27.183  16.854  1.00  0.00     0.233 C 
HETATM   36  N6  UNL     1      23.475  27.067  15.804  1.00  0.00    -0.062 NA
HETATM   37  O6  UNL     1      21.467  27.790  16.591  1.00  0.00    -0.277 OA
ENDBRANCH  34  35
ENDBRANCH  25  34
BRANCH   6  38
HETATM   38  C10 UNL     1      26.590  25.525  24.328  1.00  0.00     0.038 C 
BRANCH  38  39
HETATM   39  C11 UNL     1      26.869  24.244  24.986  1.00  0.00    -0.020 C 
HETATM   40  C12 UNL     1      28.325  23.880  25.073  1.00  0.00     0.009 C 
HETATM   41  C13 UNL     1      26.174  24.066  26.321  1.00  0.00     0.009 C 
ENDBRANCH  38  39
ENDBRANCH   6  38
BRANCH  22  42
HETATM   42  O5  UNL     1      25.798  29.442  18.178  1.00  0.00    -0.348 OA
ATOM     43  H5  UNL     1      24.937  29.664  18.510  1.00  0.00     0.219 HD
ENDBRANCH  22  42
BRANCH  21  44
HETATM   44  C27 UNL     1      27.025  28.023  15.805  1.00  0.00     0.037 C 
BRANCH  44  45
HETATM   45  C28 UNL     1      27.911  29.071  15.227  1.00  0.00    -0.020 C 
HETATM   46  C29 UNL     1      28.967  28.294  14.401  1.00  0.00     0.009 C 
HETATM   47  C30 UNL     1      28.733  29.786  16.286  1.00  0.00     0.009 C 
ENDBRANCH  44  45
ENDBRANCH  21  44
BRANCH  11  48
HETATM   48  C16 UNL     1      29.108  23.725  21.461  1.00  0.00     0.038 C 
BRANCH  48  49
HETATM   49  C17 UNL     1      28.489  22.487  20.937  1.00  0.00    -0.020 C 
HETATM   50  C18 UNL     1      27.846  22.727  19.559  1.00  0.00     0.009 C 
HETATM   51  C19 UNL     1      27.260  22.216  21.845  1.00  0.00     0.009 C 
ENDBRANCH  48  49
ENDBRANCH  11  48
BRANCH  16  52
HETATM   52  C22 UNL     1      31.347  26.868  17.072  1.00  0.00     0.009 C 
HETATM   53  C23 UNL     1      32.051  28.180  17.072  1.00  0.00     0.012 C 
HETATM   54  C24 UNL     1      32.283  25.728  17.250  1.00  0.00     0.012 C 
ENDBRANCH  16  52
TORSDOF 13
ENDMDL
