MODEL 1
REMARK VINA RESULT: -6.162914284      0.000      0.000
REMARK  15 active torsions:
REMARK  status: ('A' for Active; 'I' for Inactive)
REMARK    1  A    between atoms: C2_2  and  C4_4 
REMARK    2  A    between atoms: C4_4  and  C5_5 
REMARK    3  A    between atoms: C5_5  and  C6_6 
REMARK    4  A    between atoms: C7_9  and  C8_10 
REMARK    5  A    between atoms: C8_10  and  C9_11 
REMARK    6  A    between atoms: C9_11  and  C10_12 
REMARK    7  A    between atoms: C10_12  and  N2_13 
REMARK    8  A    between atoms: C12_18  and  O1_19 
REMARK    9  A    between atoms: C14_23  and  C15_24 
REMARK   10  A    between atoms: C15_24  and  C16_25 
REMARK   11  A    between atoms: C19_28  and  O2_29 
REMARK   12  A    between atoms: C20_33  and  C21_34 
REMARK   13  A    between atoms: C21_34  and  C22_35 
REMARK   14  A    between atoms: C26_42  and  C27_43 
REMARK   15  A    between atoms: C31_50  and  C32_51 
ROOT
HETATM    1  C6  UNL     1      26.071  24.287  19.358  1.00  0.00     0.184 C 
HETATM    2  N1  UNL     1      25.132  25.265  19.102  1.00  0.00    -0.368 N 
ATOM      3  H1  UNL     1      24.500  25.327  19.901  1.00  0.00     0.161 HD
HETATM    4  C7  UNL     1      24.771  26.108  18.241  1.00  0.00     0.058 C 
HETATM    5  C12 UNL     1      25.363  26.360  16.925  1.00  0.00     0.161 C 
HETATM    6  N5  UNL     1      26.642  26.774  16.510  1.00  0.00    -0.349 N 
HETATM    7  C13 UNL     1      27.370  25.808  15.650  1.00  0.00     0.153 C 
HETATM    8  C14 UNL     1      27.310  28.035  16.805  1.00  0.00     0.183 C 
HETATM    9  C19 UNL     1      27.053  28.540  18.193  1.00  0.00     0.139 C 
HETATM   10  N6  UNL     1      27.615  28.167  19.388  1.00  0.00    -0.359 N 
ATOM     11  H6  UNL     1      26.983  27.621  19.973  1.00  0.00     0.162 HD
HETATM   12  C20 UNL     1      28.915  28.381  20.003  1.00  0.00     0.175 C 
HETATM   13  C25 UNL     1      28.578  28.989  21.341  1.00  0.00     0.241 C 
HETATM   14  O3  UNL     1      27.812  30.015  21.233  1.00  0.00    -0.271 OA
HETATM   15  N7  UNL     1      29.000  28.553  22.584  1.00  0.00    -0.346 N 
ATOM     16  H7  UNL     1      29.302  29.284  23.227  1.00  0.00     0.163 HD
HETATM   17  C26 UNL     1      29.072  27.200  23.098  1.00  0.00     0.180 C 
HETATM   18  C30 UNL     1      27.771  26.511  23.175  1.00  0.00     0.241 C 
HETATM   19  O4  UNL     1      26.908  26.993  23.984  1.00  0.00    -0.271 OA
HETATM   20  N8  UNL     1      27.352  25.376  22.467  1.00  0.00    -0.346 N 
ATOM     21  H8  UNL     1      26.353  25.316  22.270  1.00  0.00     0.163 HD
HETATM   22  C31 UNL     1      28.162  24.281  21.982  1.00  0.00     0.180 C 
HETATM   23  C35 UNL     1      28.361  24.342  20.519  1.00  0.00     0.242 C 
HETATM   24  O5  UNL     1      29.579  24.108  20.149  1.00  0.00    -0.271 OA
HETATM   25  N9  UNL     1      27.457  24.607  19.501  1.00  0.00    -0.338 N 
ATOM     26  H9  UNL     1      27.852  25.122  18.715  1.00  0.00     0.164 HD
ENDROOT
BRANCH   4  27
HETATM   27  C8  UNL     1      23.556  26.969  18.558  1.00  0.00     0.063 C 
BRANCH  27  28
HETATM   28  C9  UNL     1      22.329  26.110  18.778  1.00  0.00     0.026 C 
BRANCH  28  29
HETATM   29  C10 UNL     1      21.216  26.574  17.869  1.00  0.00     0.122 C 
BRANCH  29  30
HETATM   30  N2  UNL     1      21.604  26.363  16.512  1.00  0.00    -0.367 N 
HETATM   31  C11 UNL     1      21.289  27.056  15.493  1.00  0.00     0.196 C 
HETATM   32  N3  UNL     1      20.451  28.223  15.534  1.00  0.00    -0.067 NA
HETATM   33  N4  UNL     1      21.797  26.648  14.234  1.00  0.00    -0.067 NA
ATOM     34  H2  UNL     1      22.207  25.559  16.339  1.00  0.00     0.161 HD
ENDBRANCH  29  30
ENDBRANCH  28  29
ENDBRANCH  27  28
ENDBRANCH   4  27
BRANCH   5  35
HETATM   35  O1  UNL     1      24.505  26.148  15.951  1.00  0.00    -0.345 OA
ATOM     36  H1  UNL     1      23.617  26.369  16.206  1.00  0.00     0.219 HD
ENDBRANCH   5  35
BRANCH   1  37
HETATM   37  C5  UNL     1      25.990  23.059  18.441  1.00  0.00     0.051 C 
BRANCH  37  38
HETATM   38  C4  UNL     1      25.290  21.902  19.062  1.00  0.00     0.036 C 
BRANCH  38  39
HETATM   39  C2  UNL     1      26.218  20.719  19.031  1.00  0.00    -0.093 C 
HETATM   40  C1  UNL     1      27.374  20.741  19.673  1.00  0.00     0.014 C 
HETATM   41  C3  UNL     1      25.858  19.488  18.273  1.00  0.00     0.042 C 
ENDBRANCH  38  39
ENDBRANCH  37  38
ENDBRANCH   1  37
BRANCH   8  42
HETATM   42  C15 UNL     1      27.050  29.162  15.901  1.00  0.00     0.008 C 
BRANCH  42  43
HETATM   43  C16 UNL     1      28.057  29.857  15.122  1.00  0.00    -0.089 C 
HETATM   44  C17 UNL     1      28.799  30.972  15.822  1.00  0.00     0.042 C 
HETATM   45  C18 UNL     1      28.985  28.998  14.290  1.00  0.00     0.042 C 
ENDBRANCH  42  43
ENDBRANCH   8  42
BRANCH   9  46
HETATM   46  O2  UNL     1      26.146  29.483  18.233  1.00  0.00    -0.348 OA
ATOM     47  H2  UNL     1      26.231  30.046  18.993  1.00  0.00     0.219 HD
ENDBRANCH   9  46
BRANCH  22  48
HETATM   48  C32 UNL     1      27.696  22.925  22.474  1.00  0.00     0.009 C 
HETATM   49  C33 UNL     1      28.454  22.507  23.721  1.00  0.00     0.012 C 
HETATM   50  C34 UNL     1      26.235  23.032  22.941  1.00  0.00     0.012 C 
ENDBRANCH  22  48
BRANCH  12  51
HETATM   51  C21 UNL     1      29.859  29.161  19.189  1.00  0.00     0.038 C 
BRANCH  51  52
HETATM   52  C22 UNL     1      31.022  28.444  18.632  1.00  0.00    -0.020 C 
HETATM   53  C23 UNL     1      31.256  27.230  19.576  1.00  0.00     0.009 C 
HETATM   54  C24 UNL     1      30.935  27.867  17.271  1.00  0.00     0.009 C 
ENDBRANCH  51  52
ENDBRANCH  12  51
BRANCH  17  55
HETATM   55  C27 UNL     1      29.808  27.257  24.434  1.00  0.00     0.009 C 
HETATM   56  C28 UNL     1      30.970  28.191  24.448  1.00  0.00     0.012 C 
HETATM   57  C29 UNL     1      30.163  25.905  24.983  1.00  0.00     0.012 C 
ENDBRANCH  17  55
TORSDOF 15
ENDMDL
MODEL 2
REMARK VINA RESULT: -6.016294264     14.546     19.190
REMARK  15 active torsions:
REMARK  status: ('A' for Active; 'I' for Inactive)
REMARK    1  A    between atoms: C2_2  and  C4_4 
REMARK    2  A    between atoms: C4_4  and  C5_5 
REMARK    3  A    between atoms: C5_5  and  C6_6 
REMARK    4  A    between atoms: C7_9  and  C8_10 
REMARK    5  A    between atoms: C8_10  and  C9_11 
REMARK    6  A    between atoms: C9_11  and  C10_12 
REMARK    7  A    between atoms: C10_12  and  N2_13 
REMARK    8  A    between atoms: C12_18  and  O1_19 
REMARK    9  A    between atoms: C14_23  and  C15_24 
REMARK   10  A    between atoms: C15_24  and  C16_25 
REMARK   11  A    between atoms: C19_28  and  O2_29 
REMARK   12  A    between atoms: C20_33  and  C21_34 
REMARK   13  A    between atoms: C21_34  and  C22_35 
REMARK   14  A    between atoms: C26_42  and  C27_43 
REMARK   15  A    between atoms: C31_50  and  C32_51 
ROOT
HETATM    1  C6  UNL     1      12.562  19.421  14.328  1.00  0.00     0.184 C 
HETATM    2  N1  UNL     1      12.879  18.191  13.788  1.00  0.00    -0.368 N 
ATOM      3  H1  UNL     1      13.836  17.956  14.053  1.00  0.00     0.161 HD
HETATM    4  C7  UNL     1      12.418  17.254  13.087  1.00  0.00     0.058 C 
HETATM    5  C12 UNL     1      11.095  17.163  12.464  1.00  0.00     0.161 C 
HETATM    6  N5  UNL     1       9.787  17.159  12.981  1.00  0.00    -0.349 N 
HETATM    7  C13 UNL     1       8.926  18.282  12.529  1.00  0.00     0.153 C 
HETATM    8  C14 UNL     1       9.186  16.180  13.877  1.00  0.00     0.183 C 
HETATM    9  C19 UNL     1      10.130  15.659  14.917  1.00  0.00     0.139 C 
HETATM   10  N6  UNL     1      10.544  16.221  16.099  1.00  0.00    -0.359 N 
ATOM     11  H6  UNL     1      11.506  16.558  16.065  1.00  0.00     0.162 HD
HETATM   12  C20 UNL     1       9.910  16.442  17.388  1.00  0.00     0.175 C 
HETATM   13  C25 UNL     1      10.860  15.796  18.365  1.00  0.00     0.241 C 
HETATM   14  O3  UNL     1      11.130  14.580  18.052  1.00  0.00    -0.271 OA
HETATM   15  N7  UNL     1      11.423  16.377  19.487  1.00  0.00    -0.346 N 
ATOM     16  H7  UNL     1      11.433  15.795  20.325  1.00  0.00     0.163 HD
HETATM   17  C26 UNL     1      11.999  17.697  19.638  1.00  0.00     0.180 C 
HETATM   18  C30 UNL     1      13.175  17.947  18.784  1.00  0.00     0.241 C 
HETATM   19  O4  UNL     1      14.215  17.241  19.012  1.00  0.00    -0.271 OA
HETATM   20  N8  UNL     1      13.303  18.874  17.740  1.00  0.00    -0.346 N 
ATOM     21  H8  UNL     1      13.939  18.612  16.986  1.00  0.00     0.163 HD
HETATM   22  C31 UNL     1      12.645  20.153  17.600  1.00  0.00     0.180 C 
HETATM   23  C35 UNL     1      11.567  20.117  16.590  1.00  0.00     0.242 C 
HETATM   24  O5  UNL     1      10.480  20.710  16.967  1.00  0.00    -0.271 OA
HETATM   25  N9  UNL     1      11.545  19.555  15.323  1.00  0.00    -0.338 N 
ATOM     26  H9  UNL     1      10.641  19.168  15.053  1.00  0.00     0.164 HD
ENDROOT
BRANCH   4  27
HETATM   27  C8  UNL     1      13.327  16.065  12.807  1.00  0.00     0.063 C 
BRANCH  27  28
HETATM   28  C9  UNL     1      14.581  16.504  12.083  1.00  0.00     0.026 C 
BRANCH  28  29
HETATM   29  C10 UNL     1      15.343  15.290  11.606  1.00  0.00     0.122 C 
BRANCH  29  30
HETATM   30  N2  UNL     1      16.643  15.695  11.180  1.00  0.00    -0.367 N 
HETATM   31  C11 UNL     1      17.260  15.353  10.120  1.00  0.00     0.196 C 
HETATM   32  N3  UNL     1      16.729  14.460   9.127  1.00  0.00    -0.067 NA
HETATM   33  N4  UNL     1      18.556  15.887   9.908  1.00  0.00    -0.067 NA
ATOM     34  H2  UNL     1      17.138  16.338  11.799  1.00  0.00     0.161 HD
ENDBRANCH  29  30
ENDBRANCH  28  29
ENDBRANCH  27  28
ENDBRANCH   4  27
BRANCH   5  35
HETATM   35  O1  UNL     1      11.175  17.070  11.154  1.00  0.00    -0.345 OA
ATOM     36  H1  UNL     1      10.517  17.600  10.720  1.00  0.00     0.219 HD
ENDBRANCH   5  35
BRANCH   1  37
HETATM   37  C5  UNL     1      12.329  20.535  13.299  1.00  0.00     0.051 C 
BRANCH  37  38
HETATM   38  C4  UNL     1      12.867  21.855  13.726  1.00  0.00     0.036 C 
BRANCH  38  39
HETATM   39  C2  UNL     1      14.242  22.015  13.139  1.00  0.00    -0.093 C 
HETATM   40  C1  UNL     1      14.578  21.408  12.013  1.00  0.00     0.014 C 
HETATM   41  C3  UNL     1      15.265  22.862  13.813  1.00  0.00     0.042 C 
ENDBRANCH  38  39
ENDBRANCH  37  38
ENDBRANCH   1  37
BRANCH   8  42
HETATM   42  C15 UNL     1       8.557  15.004  13.263  1.00  0.00     0.008 C 
BRANCH  42  43
HETATM   43  C16 UNL     1       8.503  14.735  11.838  1.00  0.00    -0.089 C 
HETATM   44  C17 UNL     1       9.593  13.851  11.278  1.00  0.00     0.042 C 
HETATM   45  C18 UNL     1       7.146  14.391  11.263  1.00  0.00     0.042 C 
ENDBRANCH  42  43
ENDBRANCH   8  42
BRANCH   9  46
HETATM   46  O2  UNL     1      10.617  14.480  14.619  1.00  0.00    -0.348 OA
ATOM     47  H2  UNL     1      11.238  14.507  13.901  1.00  0.00     0.219 HD
ENDBRANCH   9  46
BRANCH  22  48
HETATM   48  C32 UNL     1      13.609  21.308  17.417  1.00  0.00     0.009 C 
HETATM   49  C33 UNL     1      14.007  21.905  18.755  1.00  0.00     0.012 C 
HETATM   50  C34 UNL     1      14.930  20.776  16.837  1.00  0.00     0.012 C 
ENDBRANCH  22  48
BRANCH  12  51
HETATM   51  C21 UNL     1       8.519  15.975  17.477  1.00  0.00     0.038 C 
BRANCH  51  52
HETATM   52  C22 UNL     1       8.292  14.631  18.041  1.00  0.00    -0.020 C 
HETATM   53  C23 UNL     1       7.057  14.772  18.974  1.00  0.00     0.009 C 
HETATM   54  C24 UNL     1       7.967  13.508  17.131  1.00  0.00     0.009 C 
ENDBRANCH  51  52
ENDBRANCH  12  51
BRANCH  17  55
HETATM   55  C27 UNL     1      12.273  17.911  21.124  1.00  0.00     0.009 C 
HETATM   56  C28 UNL     1      13.216  19.029  21.413  1.00  0.00     0.012 C 
HETATM   57  C29 UNL     1      12.645  16.654  21.854  1.00  0.00     0.012 C 
ENDBRANCH  17  55
TORSDOF 15
ENDMDL
MODEL 3
REMARK VINA RESULT: -5.846719560     14.607     19.389
REMARK  15 active torsions:
REMARK  status: ('A' for Active; 'I' for Inactive)
REMARK    1  A    between atoms: C2_2  and  C4_4 
REMARK    2  A    between atoms: C4_4  and  C5_5 
REMARK    3  A    between atoms: C5_5  and  C6_6 
REMARK    4  A    between atoms: C7_9  and  C8_10 
REMARK    5  A    between atoms: C8_10  and  C9_11 
REMARK    6  A    between atoms: C9_11  and  C10_12 
REMARK    7  A    between atoms: C10_12  and  N2_13 
REMARK    8  A    between atoms: C12_18  and  O1_19 
REMARK    9  A    between atoms: C14_23  and  C15_24 
REMARK   10  A    between atoms: C15_24  and  C16_25 
REMARK   11  A    between atoms: C19_28  and  O2_29 
REMARK   12  A    between atoms: C20_33  and  C21_34 
REMARK   13  A    between atoms: C21_34  and  C22_35 
REMARK   14  A    between atoms: C26_42  and  C27_43 
REMARK   15  A    between atoms: C31_50  and  C32_51 
ROOT
HETATM    1  C6  UNL     1      12.621  19.259  14.239  1.00  0.00     0.184 C 
HETATM    2  N1  UNL     1      12.938  18.014  13.735  1.00  0.00    -0.368 N 
ATOM      3  H1  UNL     1      13.888  17.779  14.023  1.00  0.00     0.161 HD
HETATM    4  C7  UNL     1      12.481  17.064  13.050  1.00  0.00     0.058 C 
HETATM    5  C12 UNL     1      11.168  16.967  12.407  1.00  0.00     0.161 C 
HETATM    6  N5  UNL     1       9.852  16.986  12.901  1.00  0.00    -0.349 N 
HETATM    7  C13 UNL     1       9.008  18.103  12.407  1.00  0.00     0.153 C 
HETATM    8  C14 UNL     1       9.228  16.033  13.810  1.00  0.00     0.183 C 
HETATM    9  C19 UNL     1      10.150  15.531  14.879  1.00  0.00     0.139 C 
HETATM   10  N6  UNL     1      10.548  16.120  16.054  1.00  0.00    -0.359 N 
ATOM     11  H6  UNL     1      11.513  16.448  16.028  1.00  0.00     0.162 HD
HETATM   12  C20 UNL     1       9.894  16.377  17.326  1.00  0.00     0.175 C 
HETATM   13  C25 UNL     1      10.821  15.749  18.335  1.00  0.00     0.241 C 
HETATM   14  O3  UNL     1      11.087  14.524  18.057  1.00  0.00    -0.271 OA
HETATM   15  N7  UNL     1      11.369  16.353  19.452  1.00  0.00    -0.346 N 
ATOM     16  H7  UNL     1      11.361  15.792  20.303  1.00  0.00     0.163 HD
HETATM   17  C26 UNL     1      11.954  17.673  19.580  1.00  0.00     0.180 C 
HETATM   18  C30 UNL     1      13.146  17.892  18.741  1.00  0.00     0.241 C 
HETATM   19  O4  UNL     1      14.176  17.185  19.004  1.00  0.00    -0.271 OA
HETATM   20  N8  UNL     1      13.299  18.792  17.676  1.00  0.00    -0.346 N 
ATOM     21  H8  UNL     1      13.945  18.507  16.940  1.00  0.00     0.163 HD
HETATM   22  C31 UNL     1      12.654  20.073  17.494  1.00  0.00     0.180 C 
HETATM   23  C35 UNL     1      11.593  20.019  16.466  1.00  0.00     0.242 C 
HETATM   24  O5  UNL     1      10.504  20.629  16.809  1.00  0.00    -0.271 OA
HETATM   25  N9  UNL     1      11.588  19.426  15.213  1.00  0.00    -0.338 N 
ATOM     26  H9  UNL     1      10.685  19.039  14.937  1.00  0.00     0.164 HD
ENDROOT
BRANCH   4  27
HETATM   27  C8  UNL     1      13.385  15.861  12.815  1.00  0.00     0.063 C 
BRANCH  27  28
HETATM   28  C9  UNL     1      14.639  16.267  12.072  1.00  0.00     0.026 C 
BRANCH  28  29
HETATM   29  C10 UNL     1      14.838  15.361  10.880  1.00  0.00     0.122 C 
BRANCH  29  30
HETATM   30  N2  UNL     1      13.581  15.154  10.237  1.00  0.00    -0.367 N 
HETATM   31  C11 UNL     1      13.349  15.047   8.990  1.00  0.00     0.196 C 
HETATM   32  N3  UNL     1      14.358  15.118   7.970  1.00  0.00    -0.067 NA
HETATM   33  N4  UNL     1      12.006  14.846   8.583  1.00  0.00    -0.067 NA
ATOM     34  H2  UNL     1      12.770  15.083  10.852  1.00  0.00     0.161 HD
ENDBRANCH  29  30
ENDBRANCH  28  29
ENDBRANCH  27  28
ENDBRANCH   4  27
BRANCH   5  35
HETATM   35  O1  UNL     1      11.270  16.840  11.101  1.00  0.00    -0.345 OA
ATOM     36  H1  UNL     1      10.772  16.099  10.777  1.00  0.00     0.219 HD
ENDBRANCH   5  35
BRANCH   1  37
HETATM   37  C5  UNL     1      12.414  20.350  13.180  1.00  0.00     0.051 C 
BRANCH  37  38
HETATM   38  C4  UNL     1      12.848  21.700  13.628  1.00  0.00     0.036 C 
BRANCH  38  39
HETATM   39  C2  UNL     1      14.240  21.942  13.113  1.00  0.00    -0.093 C 
HETATM   40  C1  UNL     1      14.659  21.385  11.989  1.00  0.00     0.014 C 
HETATM   41  C3  UNL     1      15.187  22.817  13.859  1.00  0.00     0.042 C 
ENDBRANCH  38  39
ENDBRANCH  37  38
ENDBRANCH   1  37
BRANCH   8  42
HETATM   42  C15 UNL     1       8.601  14.847  13.215  1.00  0.00     0.008 C 
BRANCH  42  43
HETATM   43  C16 UNL     1       8.583  14.535  11.798  1.00  0.00    -0.089 C 
HETATM   44  C17 UNL     1       9.676  13.618  11.297  1.00  0.00     0.042 C 
HETATM   45  C18 UNL     1       7.239  14.191  11.194  1.00  0.00     0.042 C 
ENDBRANCH  42  43
ENDBRANCH   8  42
BRANCH   9  46
HETATM   46  O2  UNL     1      10.633  14.342  14.619  1.00  0.00    -0.348 OA
ATOM     47  H2  UNL     1      10.945  13.892  15.395  1.00  0.00     0.219 HD
ENDBRANCH   9  46
BRANCH  22  48
HETATM   48  C32 UNL     1      13.629  21.215  17.298  1.00  0.00     0.009 C 
HETATM   49  C33 UNL     1      13.943  21.897  18.618  1.00  0.00     0.012 C 
HETATM   50  C34 UNL     1      14.983  20.650  16.837  1.00  0.00     0.012 C 
ENDBRANCH  22  48
BRANCH  12  51
HETATM   51  C21 UNL     1       8.498  15.923  17.402  1.00  0.00     0.038 C 
BRANCH  51  52
HETATM   52  C22 UNL     1       8.249  14.602  18.011  1.00  0.00    -0.020 C 
HETATM   53  C23 UNL     1       7.044  14.805  18.972  1.00  0.00     0.009 C 
HETATM   54  C24 UNL     1       7.868  13.464  17.143  1.00  0.00     0.009 C 
ENDBRANCH  51  52
ENDBRANCH  12  51
BRANCH  17  55
HETATM   55  C27 UNL     1      12.203  17.922  21.064  1.00  0.00     0.009 C 
HETATM   56  C28 UNL     1      13.101  19.079  21.344  1.00  0.00     0.012 C 
HETATM   57  C29 UNL     1      12.615  16.692  21.820  1.00  0.00     0.012 C 
ENDBRANCH  17  55
TORSDOF 15
ENDMDL
MODEL 4
REMARK VINA RESULT: -5.636743044      1.338      1.910
REMARK  15 active torsions:
REMARK  status: ('A' for Active; 'I' for Inactive)
REMARK    1  A    between atoms: C2_2  and  C4_4 
REMARK    2  A    between atoms: C4_4  and  C5_5 
REMARK    3  A    between atoms: C5_5  and  C6_6 
REMARK    4  A    between atoms: C7_9  and  C8_10 
REMARK    5  A    between atoms: C8_10  and  C9_11 
REMARK    6  A    between atoms: C9_11  and  C10_12 
REMARK    7  A    between atoms: C10_12  and  N2_13 
REMARK    8  A    between atoms: C12_18  and  O1_19 
REMARK    9  A    between atoms: C14_23  and  C15_24 
REMARK   10  A    between atoms: C15_24  and  C16_25 
REMARK   11  A    between atoms: C19_28  and  O2_29 
REMARK   12  A    between atoms: C20_33  and  C21_34 
REMARK   13  A    between atoms: C21_34  and  C22_35 
REMARK   14  A    between atoms: C26_42  and  C27_43 
REMARK   15  A    between atoms: C31_50  and  C32_51 
ROOT
HETATM    1  C6  UNL     1      26.065  24.347  19.291  1.00  0.00     0.184 C 
HETATM    2  N1  UNL     1      25.139  25.329  19.003  1.00  0.00    -0.368 N 
ATOM      3  H1  UNL     1      24.490  25.402  19.786  1.00  0.00     0.161 HD
HETATM    4  C7  UNL     1      24.806  26.168  18.127  1.00  0.00     0.058 C 
HETATM    5  C12 UNL     1      25.432  26.405  16.824  1.00  0.00     0.161 C 
HETATM    6  N5  UNL     1      26.723  26.807  16.437  1.00  0.00    -0.349 N 
HETATM    7  C13 UNL     1      27.464  25.827  15.602  1.00  0.00     0.153 C 
HETATM    8  C14 UNL     1      27.393  28.065  16.738  1.00  0.00     0.183 C 
HETATM    9  C19 UNL     1      27.107  28.582  18.115  1.00  0.00     0.139 C 
HETATM   10  N6  UNL     1      27.637  28.216  19.327  1.00  0.00    -0.359 N 
ATOM     11  H6  UNL     1      26.986  27.679  19.900  1.00  0.00     0.162 HD
HETATM   12  C20 UNL     1      28.923  28.425  19.971  1.00  0.00     0.175 C 
HETATM   13  C25 UNL     1      28.559  29.047  21.295  1.00  0.00     0.241 C 
HETATM   14  O3  UNL     1      27.803  30.077  21.160  1.00  0.00    -0.271 OA
HETATM   15  N7  UNL     1      28.947  28.618  22.552  1.00  0.00    -0.346 N 
ATOM     16  H7  UNL     1      29.239  29.352  23.196  1.00  0.00     0.163 HD
HETATM   17  C26 UNL     1      28.996  27.269  23.078  1.00  0.00     0.180 C 
HETATM   18  C30 UNL     1      27.689  26.589  23.130  1.00  0.00     0.241 C 
HETATM   19  O4  UNL     1      26.810  27.084  23.913  1.00  0.00    -0.271 OA
HETATM   20  N8  UNL     1      27.279  25.451  22.420  1.00  0.00    -0.346 N 
ATOM     21  H8  UNL     1      26.284  25.397  22.199  1.00  0.00     0.163 HD
HETATM   22  C31 UNL     1      28.091  24.346  21.964  1.00  0.00     0.180 C 
HETATM   23  C35 UNL     1      28.327  24.394  20.505  1.00  0.00     0.242 C 
HETATM   24  O5  UNL     1      29.551  24.149  20.167  1.00  0.00    -0.271 OA
HETATM   25  N9  UNL     1      27.449  24.657  19.464  1.00  0.00    -0.338 N 
ATOM     26  H9  UNL     1      27.867  25.163  18.684  1.00  0.00     0.164 HD
ENDROOT
BRANCH   4  27
HETATM   27  C8  UNL     1      23.590  27.040  18.409  1.00  0.00     0.063 C 
BRANCH  27  28
HETATM   28  C9  UNL     1      22.329  26.205  18.467  1.00  0.00     0.026 C 
BRANCH  28  29
HETATM   29  C10 UNL     1      21.276  26.932  19.269  1.00  0.00     0.122 C 
BRANCH  29  30
HETATM   30  N2  UNL     1      21.784  27.194  20.576  1.00  0.00    -0.367 N 
HETATM   31  C11 UNL     1      21.736  26.438  21.600  1.00  0.00     0.196 C 
HETATM   32  N3  UNL     1      21.136  25.132  21.614  1.00  0.00    -0.067 NA
HETATM   33  N4  UNL     1      22.312  26.918  22.803  1.00  0.00    -0.067 NA
ATOM     34  H2  UNL     1      22.242  28.096  20.706  1.00  0.00     0.161 HD
ENDBRANCH  29  30
ENDBRANCH  28  29
ENDBRANCH  27  28
ENDBRANCH   4  27
BRANCH   5  35
HETATM   35  O1  UNL     1      24.595  26.191  15.832  1.00  0.00    -0.345 OA
ATOM     36  H1  UNL     1      25.030  25.812  15.077  1.00  0.00     0.219 HD
ENDBRANCH   5  35
BRANCH   1  37
HETATM   37  C5  UNL     1      25.996  23.112  18.382  1.00  0.00     0.051 C 
BRANCH  37  38
HETATM   38  C4  UNL     1      25.271  21.966  18.993  1.00  0.00     0.036 C 
BRANCH  38  39
HETATM   39  C2  UNL     1      26.189  20.776  18.997  1.00  0.00    -0.093 C 
HETATM   40  C1  UNL     1      27.328  20.793  19.669  1.00  0.00     0.014 C 
HETATM   41  C3  UNL     1      25.839  19.541  18.240  1.00  0.00     0.042 C 
ENDBRANCH  38  39
ENDBRANCH  37  38
ENDBRANCH   1  37
BRANCH   8  42
HETATM   42  C15 UNL     1      27.163  29.186  15.819  1.00  0.00     0.008 C 
BRANCH  42  43
HETATM   43  C16 UNL     1      28.198  29.888  15.084  1.00  0.00    -0.089 C 
HETATM   44  C17 UNL     1      28.942  30.968  15.835  1.00  0.00     0.042 C 
HETATM   45  C18 UNL     1      29.131  29.042  14.245  1.00  0.00     0.042 C 
ENDBRANCH  42  43
ENDBRANCH   8  42
BRANCH   9  46
HETATM   46  O2  UNL     1      26.206  29.533  18.125  1.00  0.00    -0.348 OA
ATOM     47  H2  UNL     1      26.380  30.201  18.778  1.00  0.00     0.219 HD
ENDBRANCH   9  46
BRANCH  22  48
HETATM   48  C32 UNL     1      27.604  22.999  22.455  1.00  0.00     0.009 C 
HETATM   49  C33 UNL     1      28.267  22.624  23.768  1.00  0.00     0.012 C 
HETATM   50  C34 UNL     1      26.110  23.098  22.804  1.00  0.00     0.012 C 
ENDBRANCH  22  48
BRANCH  12  51
HETATM   51  C21 UNL     1      29.892  29.191  19.173  1.00  0.00     0.038 C 
BRANCH  51  52
HETATM   52  C22 UNL     1      31.058  28.459  18.642  1.00  0.00    -0.020 C 
HETATM   53  C23 UNL     1      31.246  27.234  19.582  1.00  0.00     0.009 C 
HETATM   54  C24 UNL     1      30.998  27.894  17.274  1.00  0.00     0.009 C 
ENDBRANCH  51  52
ENDBRANCH  12  51
BRANCH  17  55
HETATM   55  C27 UNL     1      29.701  27.331  24.431  1.00  0.00     0.009 C 
HETATM   56  C28 UNL     1      30.768  28.369  24.513  1.00  0.00     0.012 C 
HETATM   57  C29 UNL     1      30.173  25.994  24.925  1.00  0.00     0.012 C 
ENDBRANCH  17  55
TORSDOF 15
ENDMDL
MODEL 5
REMARK VINA RESULT: -5.350649514      2.747      7.386
REMARK  15 active torsions:
REMARK  status: ('A' for Active; 'I' for Inactive)
REMARK    1  A    between atoms: C2_2  and  C4_4 
REMARK    2  A    between atoms: C4_4  and  C5_5 
REMARK    3  A    between atoms: C5_5  and  C6_6 
REMARK    4  A    between atoms: C7_9  and  C8_10 
REMARK    5  A    between atoms: C8_10  and  C9_11 
REMARK    6  A    between atoms: C9_11  and  C10_12 
REMARK    7  A    between atoms: C10_12  and  N2_13 
REMARK    8  A    between atoms: C12_18  and  O1_19 
REMARK    9  A    between atoms: C14_23  and  C15_24 
REMARK   10  A    between atoms: C15_24  and  C16_25 
REMARK   11  A    between atoms: C19_28  and  O2_29 
REMARK   12  A    between atoms: C20_33  and  C21_34 
REMARK   13  A    between atoms: C21_34  and  C22_35 
REMARK   14  A    between atoms: C26_42  and  C27_43 
REMARK   15  A    between atoms: C31_50  and  C32_51 
ROOT
HETATM    1  C6  UNL     1      26.662  28.613  17.341  1.00  0.00     0.184 C 
HETATM    2  N1  UNL     1      27.213  29.299  18.404  1.00  0.00    -0.368 N 
ATOM      3  H1  UNL     1      26.514  29.942  18.775  1.00  0.00     0.161 HD
HETATM    4  C7  UNL     1      28.266  29.418  19.083  1.00  0.00     0.058 C 
HETATM    5  C12 UNL     1      29.539  28.717  18.901  1.00  0.00     0.161 C 
HETATM    6  N5  UNL     1      29.901  27.358  18.939  1.00  0.00    -0.349 N 
HETATM    7  C13 UNL     1      30.459  26.818  17.674  1.00  0.00     0.153 C 
HETATM    8  C14 UNL     1      29.816  26.445  20.071  1.00  0.00     0.183 C 
HETATM    9  C19 UNL     1      28.600  26.656  20.922  1.00  0.00     0.139 C 
HETATM   10  N6  UNL     1      27.302  26.254  20.727  1.00  0.00    -0.359 N 
ATOM     11  H6  UNL     1      26.682  27.021  20.470  1.00  0.00     0.162 HD
HETATM   12  C20 UNL     1      26.620  24.973  20.808  1.00  0.00     0.175 C 
HETATM   13  C25 UNL     1      25.483  25.237  21.762  1.00  0.00     0.241 C 
HETATM   14  O3  UNL     1      25.883  25.751  22.868  1.00  0.00    -0.271 OA
HETATM   15  N7  UNL     1      24.139  24.988  21.546  1.00  0.00    -0.346 N 
ATOM     16  H7  UNL     1      23.639  24.566  22.328  1.00  0.00     0.163 HD
HETATM   17  C26 UNL     1      23.344  25.244  20.362  1.00  0.00     0.180 C 
HETATM   18  C30 UNL     1      23.254  26.667  19.988  1.00  0.00     0.241 C 
HETATM   19  O4  UNL     1      22.657  27.443  20.807  1.00  0.00    -0.271 OA
HETATM   20  N8  UNL     1      23.743  27.288  18.830  1.00  0.00    -0.346 N 
ATOM     21  H8  UNL     1      24.022  28.264  18.931  1.00  0.00     0.163 HD
HETATM   22  C31 UNL     1      23.900  26.716  17.512  1.00  0.00     0.180 C 
HETATM   23  C35 UNL     1      25.315  26.432  17.194  1.00  0.00     0.242 C 
HETATM   24  O5  UNL     1      25.503  25.278  16.639  1.00  0.00    -0.271 OA
HETATM   25  N9  UNL     1      26.451  27.200  17.396  1.00  0.00    -0.338 N 
ATOM     26  H9  UNL     1      27.285  26.661  17.626  1.00  0.00     0.164 HD
ENDROOT
BRANCH   4  27
HETATM   27  C8  UNL     1      28.263  30.428  20.222  1.00  0.00     0.063 C 
BRANCH  27  28
HETATM   28  C9  UNL     1      27.998  31.825  19.704  1.00  0.00     0.026 C 
BRANCH  28  29
HETATM   29  C10 UNL     1      27.013  32.525  20.609  1.00  0.00     0.122 C 
BRANCH  29  30
HETATM   30  N2  UNL     1      25.999  33.134  19.812  1.00  0.00    -0.367 N 
HETATM   31  C11 UNL     1      24.771  33.301  20.101  1.00  0.00     0.196 C 
HETATM   32  N3  UNL     1      24.167  32.886  21.338  1.00  0.00    -0.067 NA
HETATM   33  N4  UNL     1      23.945  33.936  19.140  1.00  0.00    -0.067 NA
ATOM     34  H2  UNL     1      26.295  33.479  18.898  1.00  0.00     0.161 HD
ENDBRANCH  29  30
ENDBRANCH  28  29
ENDBRANCH  27  28
ENDBRANCH   4  27
BRANCH   5  35
HETATM   35  O1  UNL     1      30.527  29.548  18.649  1.00  0.00    -0.345 OA
ATOM     36  H1  UNL     1      31.351  29.093  18.527  1.00  0.00     0.219 HD
ENDBRANCH   5  35
BRANCH   1  37
HETATM   37  C5  UNL     1      27.300  28.915  15.978  1.00  0.00     0.051 C 
BRANCH  37  38
HETATM   38  C4  UNL     1      26.481  29.821  15.129  1.00  0.00     0.036 C 
BRANCH  38  39
HETATM   39  C2  UNL     1      26.650  31.225  15.639  1.00  0.00    -0.093 C 
HETATM   40  C1  UNL     1      27.790  31.877  15.478  1.00  0.00     0.014 C 
HETATM   41  C3  UNL     1      25.536  31.921  16.342  1.00  0.00     0.042 C 
ENDBRANCH  38  39
ENDBRANCH  37  38
ENDBRANCH   1  37
BRANCH   8  42
HETATM   42  C15 UNL     1      30.960  26.402  20.989  1.00  0.00     0.008 C 
BRANCH  42  43
HETATM   43  C16 UNL     1      31.614  25.192  21.453  1.00  0.00    -0.089 C 
HETATM   44  C17 UNL     1      31.280  24.743  22.857  1.00  0.00     0.042 C 
HETATM   45  C18 UNL     1      31.658  24.029  20.485  1.00  0.00     0.042 C 
ENDBRANCH  42  43
ENDBRANCH   8  42
BRANCH   9  46
HETATM   46  O2  UNL     1      28.854  27.333  22.014  1.00  0.00    -0.348 OA
ATOM     47  H2  UNL     1      29.349  28.127  21.850  1.00  0.00     0.219 HD
ENDBRANCH   9  46
BRANCH  22  48
HETATM   48  C32 UNL     1      23.181  27.495  16.429  1.00  0.00     0.009 C 
HETATM   49  C33 UNL     1      23.330  26.818  15.079  1.00  0.00     0.012 C 
HETATM   50  C34 UNL     1      21.668  27.458  16.701  1.00  0.00     0.012 C 
ENDBRANCH  22  48
BRANCH  12  51
HETATM   51  C21 UNL     1      27.482  23.839  21.170  1.00  0.00     0.038 C 
BRANCH  51  52
HETATM   52  C22 UNL     1      27.345  22.605  20.373  1.00  0.00    -0.020 C 
HETATM   53  C23 UNL     1      26.571  23.020  19.090  1.00  0.00     0.009 C 
HETATM   54  C24 UNL     1      28.563  21.916  19.887  1.00  0.00     0.009 C 
ENDBRANCH  51  52
ENDBRANCH  12  51
BRANCH  17  55
HETATM   55  C27 UNL     1      21.984  24.584  20.572  1.00  0.00     0.009 C 
HETATM   56  C28 UNL     1      22.060  23.151  20.978  1.00  0.00     0.012 C 
HETATM   57  C29 UNL     1      21.029  24.800  19.434  1.00  0.00     0.012 C 
ENDBRANCH  17  55
TORSDOF 15
ENDMDL
