MODEL 1
REMARK VINA RESULT: -6.183453526      0.000      0.000
REMARK  15 active torsions:
REMARK  status: ('A' for Active; 'I' for Inactive)
REMARK    1  A    between atoms: C2_2  and  C3_3 
REMARK    2  A    between atoms: C3_3  and  C4_4 
REMARK    3  A    between atoms: C4_4  and  C5_5 
REMARK    4  A    between atoms: C6_8  and  O1_9 
REMARK    5  A    between atoms: C7_11  and  C8_12 
REMARK    6  A    between atoms: C7_11  and  C9_15 
REMARK    7  A    between atoms: C12_20  and  O3_21 
REMARK    8  A    between atoms: C13_23  and  C14_24 
REMARK    9  A    between atoms: C14_24  and  C15_25 
REMARK   10  A    between atoms: C18_30  and  O4_31 
REMARK   11  A    between atoms: C19_33  and  C20_34 
REMARK   12  A    between atoms: C20_34  and  C21_35 
REMARK   13  A    between atoms: C25_42  and  C26_43 
REMARK   14  A    between atoms: C26_43  and  C27_44 
REMARK   15  A    between atoms: C34_55  and  O7_56 
ROOT
HETATM    1  C5  UNL     1      14.077  20.196  18.216  1.00  0.00     0.158 C 
HETATM    2  N1  UNL     1      13.225  19.920  17.104  1.00  0.00    -0.360 N 
ATOM      3  H1  UNL     1      12.998  18.929  17.024  1.00  0.00     0.162 HD
HETATM    4  C6  UNL     1      12.629  20.689  16.099  1.00  0.00     0.151 C 
HETATM    5  C7  UNL     1      13.049  21.248  14.833  1.00  0.00     0.179 C 
HETATM    6  N3  UNL     1      11.952  21.374  13.855  1.00  0.00    -0.345 N 
ATOM      7  H3  UNL     1      12.289  21.846  13.016  1.00  0.00     0.163 HD
HETATM    8  C12 UNL     1      10.630  21.062  13.711  1.00  0.00     0.164 C 
HETATM    9  C13 UNL     1       9.848  19.829  13.596  1.00  0.00     0.081 C 
HETATM   10  N4  UNL     1      10.647  18.713  13.085  1.00  0.00    -0.336 N 
ATOM     11  H4  UNL     1      10.978  18.859  12.132  1.00  0.00     0.168 HD
HETATM   12  C18 UNL     1      11.044  17.519  13.615  1.00  0.00     0.139 C 
HETATM   13  C19 UNL     1      10.509  16.574  14.596  1.00  0.00     0.160 C 
HETATM   14  N5  UNL     1      11.483  16.416  15.682  1.00  0.00    -0.344 N 
ATOM     15  H5  UNL     1      12.457  16.633  15.470  1.00  0.00     0.163 HD
HETATM   16  C24 UNL     1      11.182  15.980  17.021  1.00  0.00     0.268 C 
HETATM   17  O5  UNL     1      11.876  15.005  17.379  1.00  0.00    -0.266 OA
HETATM   18  C25 UNL     1      10.198  16.594  17.859  1.00  0.00     0.099 C 
HETATM   19  N6  UNL     1      10.634  17.810  18.537  1.00  0.00    -0.321 N 
ATOM     20  H6  UNL     1      10.271  18.679  18.146  1.00  0.00     0.169 HD
HETATM   21  C30 UNL     1      11.480  17.961  19.648  1.00  0.00     0.244 C 
HETATM   22  O6  UNL     1      11.001  18.748  20.550  1.00  0.00    -0.271 OA
HETATM   23  C31 UNL     1      12.767  17.392  19.936  1.00  0.00     0.174 C 
HETATM   24  C32 UNL     1      12.965  17.444  21.470  1.00  0.00     0.042 C 
HETATM   25  N7  UNL     1      13.952  17.751  19.245  1.00  0.00    -0.355 N 
HETATM   26  C33 UNL     1      14.773  16.595  18.767  1.00  0.00     0.152 C 
HETATM   27  C34 UNL     1      14.546  18.984  18.943  1.00  0.00     0.137 C 
ENDROOT
BRANCH   5  28
HETATM   28  C8  UNL     1      13.586  22.611  15.034  1.00  0.00     0.268 C 
HETATM   29  N2  UNL     1      14.913  23.017  14.869  1.00  0.00    -0.059 NA
HETATM   30  O2  UNL     1      12.784  23.510  15.386  1.00  0.00    -0.274 OA
ENDBRANCH   5  28
BRANCH   5  31
HETATM   31  C9  UNL     1      14.082  20.464  14.048  1.00  0.00     0.023 C 
HETATM   32  C10 UNL     1      13.788  18.988  14.053  1.00  0.00     0.013 C 
HETATM   33  C11 UNL     1      14.399  20.923  12.688  1.00  0.00     0.013 C 
ENDBRANCH   5  31
BRANCH   4  34
HETATM   34  O1  UNL     1      11.383  20.976  16.352  1.00  0.00    -0.347 OA
ATOM     35  H1  UNL     1      10.866  20.212  16.581  1.00  0.00     0.219 HD
ENDBRANCH   4  34
BRANCH   8  36
HETATM   36  O3  UNL     1       9.848  22.109  13.651  1.00  0.00    -0.345 OA
ATOM     37  H3  UNL     1       9.702  22.524  14.493  1.00  0.00     0.219 HD
ENDBRANCH   8  36
BRANCH   1  38
HETATM   38  C4  UNL     1      13.622  21.259  19.185  1.00  0.00     0.033 C 
BRANCH  38  39
HETATM   39  C3  UNL     1      14.081  22.641  18.827  1.00  0.00     0.002 C 
BRANCH  39  40
HETATM   40  C2  UNL     1      15.542  22.470  18.367  1.00  0.00    -0.004 C 
HETATM   41  C1  UNL     1      16.508  22.704  19.475  1.00  0.00     0.005 C 
ENDBRANCH  39  40
ENDBRANCH  38  39
ENDBRANCH   1  38
BRANCH   9  42
HETATM   42  C14 UNL     1       8.820  19.403  14.547  1.00  0.00     0.011 C 
BRANCH  42  43
HETATM   43  C15 UNL     1       7.563  18.719  14.185  1.00  0.00     0.002 C 
HETATM   44  C16 UNL     1       7.671  18.332  12.648  1.00  0.00     0.013 C 
HETATM   45  C17 UNL     1       7.269  17.386  14.807  1.00  0.00     0.013 C 
ENDBRANCH  42  43
ENDBRANCH   9  42
BRANCH  27  46
HETATM   46  O7  UNL     1      15.770  19.160  19.364  1.00  0.00    -0.348 OA
ATOM     47  H7  UNL     1      16.362  18.580  18.899  1.00  0.00     0.219 HD
ENDBRANCH  27  46
BRANCH  12  48
HETATM   48  O4  UNL     1      12.194  17.071  13.150  1.00  0.00    -0.348 OA
ATOM     49  H4  UNL     1      12.217  16.133  12.998  1.00  0.00     0.219 HD
ENDBRANCH  12  48
BRANCH  13  50
HETATM   50  C20 UNL     1      10.430  15.223  13.850  1.00  0.00     0.037 C 
BRANCH  50  51
HETATM   51  C21 UNL     1       9.478  14.264  14.457  1.00  0.00    -0.020 C 
HETATM   52  C22 UNL     1      10.046  12.957  14.895  1.00  0.00     0.009 C 
HETATM   53  C23 UNL     1       8.316  13.983  13.524  1.00  0.00     0.009 C 
ENDBRANCH  50  51
ENDBRANCH  13  50
BRANCH  18  54
HETATM   54  C26 UNL     1       9.324  15.826  18.763  1.00  0.00     0.012 C 
BRANCH  54  55
HETATM   55  C27 UNL     1       8.202  14.993  18.385  1.00  0.00     0.002 C 
HETATM   56  C28 UNL     1       6.953  14.910  19.183  1.00  0.00     0.013 C 
HETATM   57  C29 UNL     1       8.734  13.518  18.354  1.00  0.00     0.013 C 
ENDBRANCH  54  55
ENDBRANCH  18  54
TORSDOF 15
ENDMDL
MODEL 2
REMARK VINA RESULT: -6.004931304     14.474     18.216
REMARK  15 active torsions:
REMARK  status: ('A' for Active; 'I' for Inactive)
REMARK    1  A    between atoms: C2_2  and  C3_3 
REMARK    2  A    between atoms: C3_3  and  C4_4 
REMARK    3  A    between atoms: C4_4  and  C5_5 
REMARK    4  A    between atoms: C6_8  and  O1_9 
REMARK    5  A    between atoms: C7_11  and  C8_12 
REMARK    6  A    between atoms: C7_11  and  C9_15 
REMARK    7  A    between atoms: C12_20  and  O3_21 
REMARK    8  A    between atoms: C13_23  and  C14_24 
REMARK    9  A    between atoms: C14_24  and  C15_25 
REMARK   10  A    between atoms: C18_30  and  O4_31 
REMARK   11  A    between atoms: C19_33  and  C20_34 
REMARK   12  A    between atoms: C20_34  and  C21_35 
REMARK   13  A    between atoms: C25_42  and  C26_43 
REMARK   14  A    between atoms: C26_43  and  C27_44 
REMARK   15  A    between atoms: C34_55  and  O7_56 
ROOT
HETATM    1  C5  UNL     1      29.226  30.259  18.894  1.00  0.00     0.158 C 
HETATM    2  N1  UNL     1      28.268  29.280  18.494  1.00  0.00    -0.360 N 
ATOM      3  H1  UNL     1      28.463  28.360  18.888  1.00  0.00     0.162 HD
HETATM    4  C6  UNL     1      27.125  29.285  17.688  1.00  0.00     0.151 C 
HETATM    5  C7  UNL     1      26.854  29.216  16.268  1.00  0.00     0.179 C 
HETATM    6  N3  UNL     1      25.560  28.583  15.948  1.00  0.00    -0.345 N 
ATOM      7  H3  UNL     1      25.389  28.635  14.944  1.00  0.00     0.163 HD
HETATM    8  C12 UNL     1      24.518  27.951  16.563  1.00  0.00     0.164 C 
HETATM    9  C13 UNL     1      24.330  26.685  17.275  1.00  0.00     0.081 C 
HETATM   10  N4  UNL     1      25.319  25.678  16.884  1.00  0.00    -0.336 N 
ATOM     11  H4  UNL     1      25.243  25.399  15.906  1.00  0.00     0.168 HD
HETATM   12  C18 UNL     1      26.321  25.035  17.551  1.00  0.00     0.139 C 
HETATM   13  C19 UNL     1      26.566  24.613  18.930  1.00  0.00     0.160 C 
HETATM   14  N5  UNL     1      27.801  25.244  19.407  1.00  0.00    -0.344 N 
ATOM     15  H5  UNL     1      28.476  25.541  18.702  1.00  0.00     0.163 HD
HETATM   16  C24 UNL     1      28.144  25.481  20.786  1.00  0.00     0.268 C 
HETATM   17  O5  UNL     1      29.255  25.001  21.096  1.00  0.00    -0.266 OA
HETATM   18  C25 UNL     1      27.309  26.189  21.707  1.00  0.00     0.099 C 
HETATM   19  N6  UNL     1      27.384  27.643  21.618  1.00  0.00    -0.321 N 
ATOM     20  H6  UNL     1      26.589  28.092  21.163  1.00  0.00     0.169 HD
HETATM   21  C30 UNL     1      28.389  28.516  22.065  1.00  0.00     0.244 C 
HETATM   22  O6  UNL     1      27.933  29.516  22.739  1.00  0.00    -0.271 OA
HETATM   23  C31 UNL     1      29.815  28.476  21.896  1.00  0.00     0.174 C 
HETATM   24  C32 UNL     1      30.441  29.331  23.025  1.00  0.00     0.042 C 
HETATM   25  N7  UNL     1      30.461  28.701  20.654  1.00  0.00    -0.355 N 
HETATM   26  C33 UNL     1      31.496  27.681  20.293  1.00  0.00     0.152 C 
HETATM   27  C34 UNL     1      30.359  29.716  19.693  1.00  0.00     0.137 C 
ENDROOT
BRANCH   5  28
HETATM   28  C8  UNL     1      26.805  30.578  15.694  1.00  0.00     0.268 C 
HETATM   29  N2  UNL     1      27.825  31.221  14.987  1.00  0.00    -0.059 NA
HETATM   30  O2  UNL     1      25.750  31.239  15.845  1.00  0.00    -0.274 OA
ENDBRANCH   5  28
BRANCH   5  31
HETATM   31  C9  UNL     1      27.819  28.403  15.428  1.00  0.00     0.023 C 
HETATM   32  C10 UNL     1      28.777  27.613  16.280  1.00  0.00     0.013 C 
HETATM   33  C11 UNL     1      27.254  27.556  14.367  1.00  0.00     0.013 C 
ENDBRANCH   5  31
BRANCH   4  34
HETATM   34  O1  UNL     1      26.020  29.369  18.375  1.00  0.00    -0.347 OA
ATOM     35  H1  UNL     1      25.353  28.761  18.079  1.00  0.00     0.219 HD
ENDBRANCH   4  34
BRANCH   8  36
HETATM   36  O3  UNL     1      23.395  28.619  16.509  1.00  0.00    -0.345 OA
ATOM     37  H3  UNL     1      22.633  28.104  16.749  1.00  0.00     0.219 HD
ENDBRANCH   8  36
BRANCH   1  38
HETATM   38  C4  UNL     1      28.695  31.529  19.513  1.00  0.00     0.033 C 
BRANCH  38  39
HETATM   39  C3  UNL     1      28.592  32.674  18.551  1.00  0.00     0.002 C 
BRANCH  39  40
HETATM   40  C2  UNL     1      27.096  33.043  18.527  1.00  0.00    -0.004 C 
HETATM   41  C1  UNL     1      26.386  32.582  19.751  1.00  0.00     0.005 C 
ENDBRANCH  39  40
ENDBRANCH  38  39
ENDBRANCH   1  38
BRANCH   9  42
HETATM   42  C14 UNL     1      23.927  26.571  18.678  1.00  0.00     0.011 C 
BRANCH  42  43
HETATM   43  C15 UNL     1      22.620  26.068  19.144  1.00  0.00     0.002 C 
HETATM   44  C16 UNL     1      22.774  25.737  20.690  1.00  0.00     0.013 C 
HETATM   45  C17 UNL     1      21.454  27.012  19.157  1.00  0.00     0.013 C 
ENDBRANCH  42  43
ENDBRANCH   9  42
BRANCH  27  46
HETATM   46  O7  UNL     1      31.461  30.351  19.396  1.00  0.00    -0.348 OA
ATOM     47  H7  UNL     1      32.216  29.830  19.646  1.00  0.00     0.219 HD
ENDBRANCH  27  46
BRANCH  12  48
HETATM   48  O4  UNL     1      27.345  24.689  16.795  1.00  0.00    -0.348 OA
ATOM     49  H4  UNL     1      27.137  24.058  16.116  1.00  0.00     0.219 HD
ENDBRANCH  12  48
BRANCH  13  50
HETATM   50  C20 UNL     1      26.830  23.093  18.844  1.00  0.00     0.037 C 
BRANCH  50  51
HETATM   51  C21 UNL     1      25.606  22.289  18.620  1.00  0.00    -0.020 C 
HETATM   52  C22 UNL     1      24.452  22.578  19.519  1.00  0.00     0.009 C 
HETATM   53  C23 UNL     1      25.905  20.805  18.701  1.00  0.00     0.009 C 
ENDBRANCH  50  51
ENDBRANCH  13  50
BRANCH  18  54
HETATM   54  C26 UNL     1      27.166  25.801  23.121  1.00  0.00     0.012 C 
BRANCH  54  55
HETATM   55  C27 UNL     1      27.008  24.458  23.640  1.00  0.00     0.002 C 
HETATM   56  C28 UNL     1      26.172  23.428  22.975  1.00  0.00     0.013 C 
HETATM   57  C29 UNL     1      26.371  24.605  25.065  1.00  0.00     0.013 C 
ENDBRANCH  54  55
ENDBRANCH  18  54
TORSDOF 15
ENDMDL
MODEL 3
REMARK VINA RESULT: -5.939739429     14.900     18.822
REMARK  15 active torsions:
REMARK  status: ('A' for Active; 'I' for Inactive)
REMARK    1  A    between atoms: C2_2  and  C3_3 
REMARK    2  A    between atoms: C3_3  and  C4_4 
REMARK    3  A    between atoms: C4_4  and  C5_5 
REMARK    4  A    between atoms: C6_8  and  O1_9 
REMARK    5  A    between atoms: C7_11  and  C8_12 
REMARK    6  A    between atoms: C7_11  and  C9_15 
REMARK    7  A    between atoms: C12_20  and  O3_21 
REMARK    8  A    between atoms: C13_23  and  C14_24 
REMARK    9  A    between atoms: C14_24  and  C15_25 
REMARK   10  A    between atoms: C18_30  and  O4_31 
REMARK   11  A    between atoms: C19_33  and  C20_34 
REMARK   12  A    between atoms: C20_34  and  C21_35 
REMARK   13  A    between atoms: C25_42  and  C26_43 
REMARK   14  A    between atoms: C26_43  and  C27_44 
REMARK   15  A    between atoms: C34_55  and  O7_56 
ROOT
HETATM    1  C5  UNL     1      29.208  31.025  19.007  1.00  0.00     0.158 C 
HETATM    2  N1  UNL     1      28.434  29.899  18.593  1.00  0.00    -0.360 N 
ATOM      3  H1  UNL     1      28.758  29.028  19.013  1.00  0.00     0.162 HD
HETATM    4  C6  UNL     1      27.337  29.710  17.747  1.00  0.00     0.151 C 
HETATM    5  C7  UNL     1      27.137  29.577  16.320  1.00  0.00     0.179 C 
HETATM    6  N3  UNL     1      25.973  28.741  15.967  1.00  0.00    -0.345 N 
ATOM      7  H3  UNL     1      25.835  28.750  14.956  1.00  0.00     0.163 HD
HETATM    8  C12 UNL     1      25.022  27.959  16.557  1.00  0.00     0.164 C 
HETATM    9  C13 UNL     1      25.010  26.690  17.288  1.00  0.00     0.081 C 
HETATM   10  N4  UNL     1      26.162  25.849  16.954  1.00  0.00    -0.336 N 
ATOM     11  H4  UNL     1      26.169  25.547  15.980  1.00  0.00     0.168 HD
HETATM   12  C18 UNL     1      27.227  25.384  17.669  1.00  0.00     0.139 C 
HETATM   13  C19 UNL     1      27.482  25.027  19.065  1.00  0.00     0.160 C 
HETATM   14  N5  UNL     1      28.582  25.855  19.573  1.00  0.00    -0.344 N 
ATOM     15  H5  UNL     1      29.227  26.245  18.886  1.00  0.00     0.163 HD
HETATM   16  C24 UNL     1      28.829  26.164  20.958  1.00  0.00     0.268 C 
HETATM   17  O5  UNL     1      29.989  25.872  21.317  1.00  0.00    -0.266 OA
HETATM   18  C25 UNL     1      27.856  26.743  21.833  1.00  0.00     0.099 C 
HETATM   19  N6  UNL     1      27.702  28.188  21.717  1.00  0.00    -0.321 N 
ATOM     20  H6  UNL     1      26.865  28.498  21.225  1.00  0.00     0.169 HD
HETATM   21  C30 UNL     1      28.538  29.218  22.182  1.00  0.00     0.244 C 
HETATM   22  O6  UNL     1      27.903  30.141  22.818  1.00  0.00    -0.271 OA
HETATM   23  C31 UNL     1      29.958  29.404  22.065  1.00  0.00     0.174 C 
HETATM   24  C32 UNL     1      30.394  30.364  23.197  1.00  0.00     0.042 C 
HETATM   25  N7  UNL     1      30.607  29.710  20.843  1.00  0.00    -0.355 N 
HETATM   26  C33 UNL     1      31.804  28.864  20.540  1.00  0.00     0.152 C 
HETATM   27  C34 UNL     1      30.382  30.682  19.857  1.00  0.00     0.137 C 
ENDROOT
BRANCH   5  28
HETATM   28  C8  UNL     1      26.893  30.905  15.717  1.00  0.00     0.268 C 
HETATM   29  N2  UNL     1      27.812  31.675  14.999  1.00  0.00    -0.059 NA
HETATM   30  O2  UNL     1      25.752  31.409  15.849  1.00  0.00    -0.274 OA
ENDBRANCH   5  28
BRANCH   5  31
HETATM   31  C9  UNL     1      28.250  28.916  15.532  1.00  0.00     0.023 C 
HETATM   32  C10 UNL     1      29.256  28.251  16.433  1.00  0.00     0.013 C 
HETATM   33  C11 UNL     1      27.868  28.018  14.433  1.00  0.00     0.013 C 
ENDBRANCH   5  31
BRANCH   4  34
HETATM   34  O1  UNL     1      26.207  29.626  18.392  1.00  0.00    -0.347 OA
ATOM     35  H1  UNL     1      25.571  30.273  18.110  1.00  0.00     0.219 HD
ENDBRANCH   4  34
BRANCH   8  36
HETATM   36  O3  UNL     1      23.809  28.439  16.449  1.00  0.00    -0.345 OA
ATOM     37  H3  UNL     1      23.145  27.770  16.329  1.00  0.00     0.219 HD
ENDBRANCH   8  36
BRANCH   1  38
HETATM   38  C4  UNL     1      28.458  32.202  19.580  1.00  0.00     0.033 C 
BRANCH  38  39
HETATM   39  C3  UNL     1      28.072  33.230  18.559  1.00  0.00     0.002 C 
BRANCH  39  40
HETATM   40  C2  UNL     1      26.534  33.307  18.631  1.00  0.00    -0.004 C 
HETATM   41  C1  UNL     1      26.010  32.806  19.930  1.00  0.00     0.005 C 
ENDBRANCH  39  40
ENDBRANCH  38  39
ENDBRANCH   1  38
BRANCH   9  42
HETATM   42  C14 UNL     1      24.577  26.534  18.678  1.00  0.00     0.011 C 
BRANCH  42  43
HETATM   43  C15 UNL     1      23.209  26.175  19.102  1.00  0.00     0.002 C 
HETATM   44  C16 UNL     1      23.282  24.712  19.716  1.00  0.00     0.013 C 
HETATM   45  C17 UNL     1      22.585  26.941  20.230  1.00  0.00     0.013 C 
ENDBRANCH  42  43
ENDBRANCH   9  42
BRANCH  27  46
HETATM   46  O7  UNL     1      31.379  31.480  19.587  1.00  0.00    -0.348 OA
ATOM     47  H7  UNL     1      31.465  31.590  18.647  1.00  0.00     0.219 HD
ENDBRANCH  27  46
BRANCH  12  48
HETATM   48  O4  UNL     1      28.321  25.195  16.958  1.00  0.00    -0.348 OA
ATOM     49  H4  UNL     1      29.111  25.551  17.349  1.00  0.00     0.219 HD
ENDBRANCH  12  48
BRANCH  13  50
HETATM   50  C20 UNL     1      27.988  23.568  19.020  1.00  0.00     0.037 C 
BRANCH  50  51
HETATM   51  C21 UNL     1      27.019  22.586  19.561  1.00  0.00    -0.020 C 
HETATM   52  C22 UNL     1      25.879  22.225  18.671  1.00  0.00     0.009 C 
HETATM   53  C23 UNL     1      26.451  23.053  20.887  1.00  0.00     0.009 C 
ENDBRANCH  50  51
ENDBRANCH  13  50
BRANCH  18  54
HETATM   54  C26 UNL     1      27.723  26.357  23.249  1.00  0.00     0.012 C 
BRANCH  54  55
HETATM   55  C27 UNL     1      26.548  25.804  23.891  1.00  0.00     0.002 C 
HETATM   56  C28 UNL     1      26.492  24.417  24.415  1.00  0.00     0.013 C 
HETATM   57  C29 UNL     1      25.395  25.857  22.829  1.00  0.00     0.013 C 
ENDBRANCH  54  55
ENDBRANCH  18  54
TORSDOF 15
ENDMDL
MODEL 4
REMARK VINA RESULT: -5.883649690     13.990     18.785
REMARK  15 active torsions:
REMARK  status: ('A' for Active; 'I' for Inactive)
REMARK    1  A    between atoms: C2_2  and  C3_3 
REMARK    2  A    between atoms: C3_3  and  C4_4 
REMARK    3  A    between atoms: C4_4  and  C5_5 
REMARK    4  A    between atoms: C6_8  and  O1_9 
REMARK    5  A    between atoms: C7_11  and  C8_12 
REMARK    6  A    between atoms: C7_11  and  C9_15 
REMARK    7  A    between atoms: C12_20  and  O3_21 
REMARK    8  A    between atoms: C13_23  and  C14_24 
REMARK    9  A    between atoms: C14_24  and  C15_25 
REMARK   10  A    between atoms: C18_30  and  O4_31 
REMARK   11  A    between atoms: C19_33  and  C20_34 
REMARK   12  A    between atoms: C20_34  and  C21_35 
REMARK   13  A    between atoms: C25_42  and  C26_43 
REMARK   14  A    between atoms: C26_43  and  C27_44 
REMARK   15  A    between atoms: C34_55  and  O7_56 
ROOT
HETATM    1  C5  UNL     1      25.037  26.965  18.443  1.00  0.00     0.158 C 
HETATM    2  N1  UNL     1      26.456  26.814  18.423  1.00  0.00    -0.360 N 
ATOM      3  H1  UNL     1      26.810  26.350  19.259  1.00  0.00     0.162 HD
HETATM    4  C6  UNL     1      27.475  27.151  17.526  1.00  0.00     0.151 C 
HETATM    5  C7  UNL     1      28.229  28.346  17.213  1.00  0.00     0.179 C 
HETATM    6  N3  UNL     1      29.593  28.067  16.724  1.00  0.00    -0.345 N 
ATOM      7  H3  UNL     1      30.045  28.937  16.445  1.00  0.00     0.163 HD
HETATM    8  C12 UNL     1      30.444  27.018  16.525  1.00  0.00     0.164 C 
HETATM    9  C13 UNL     1      31.154  26.064  17.380  1.00  0.00     0.081 C 
HETATM   10  N4  UNL     1      31.366  26.585  18.733  1.00  0.00    -0.336 N 
ATOM     11  H4  UNL     1      31.973  27.403  18.758  1.00  0.00     0.168 HD
HETATM   12  C18 UNL     1      30.921  26.207  19.967  1.00  0.00     0.139 C 
HETATM   13  C19 UNL     1      30.533  24.949  20.606  1.00  0.00     0.160 C 
HETATM   14  N5  UNL     1      29.147  25.064  21.074  1.00  0.00    -0.344 N 
ATOM     15  H5  UNL     1      28.789  26.004  21.245  1.00  0.00     0.163 HD
HETATM   16  C24 UNL     1      28.249  23.963  21.314  1.00  0.00     0.268 C 
HETATM   17  O5  UNL     1      27.761  23.981  22.464  1.00  0.00    -0.266 OA
HETATM   18  C25 UNL     1      27.944  22.956  20.346  1.00  0.00     0.099 C 
HETATM   19  N6  UNL     1      26.941  23.333  19.355  1.00  0.00    -0.321 N 
ATOM     20  H6  UNL     1      27.307  23.554  18.429  1.00  0.00     0.169 HD
HETATM   21  C30 UNL     1      25.547  23.439  19.489  1.00  0.00     0.244 C 
HETATM   22  O6  UNL     1      24.898  22.845  18.546  1.00  0.00    -0.271 OA
HETATM   23  C31 UNL     1      24.742  24.089  20.486  1.00  0.00     0.174 C 
HETATM   24  C32 UNL     1      23.342  23.432  20.453  1.00  0.00     0.042 C 
HETATM   25  N7  UNL     1      24.654  25.497  20.622  1.00  0.00    -0.355 N 
HETATM   26  C33 UNL     1      24.835  26.004  22.019  1.00  0.00     0.152 C 
HETATM   27  C34 UNL     1      24.392  26.531  19.713  1.00  0.00     0.137 C 
ENDROOT
BRANCH   5  28
HETATM   28  C8  UNL     1      27.551  29.107  16.142  1.00  0.00     0.268 C 
HETATM   29  N2  UNL     1      28.117  30.102  15.340  1.00  0.00    -0.059 NA
HETATM   30  O2  UNL     1      26.345  28.847  15.912  1.00  0.00    -0.274 OA
ENDBRANCH   5  28
BRANCH   5  31
HETATM   31  C9  UNL     1      28.494  29.306  18.355  1.00  0.00     0.023 C 
HETATM   32  C10 UNL     1      29.823  29.997  18.210  1.00  0.00     0.013 C 
HETATM   33  C11 UNL     1      27.442  30.276  18.690  1.00  0.00     0.013 C 
ENDBRANCH   5  31
BRANCH   4  34
HETATM   34  O1  UNL     1      27.851  26.147  16.785  1.00  0.00    -0.347 OA
ATOM     35  H1  UNL     1      28.586  26.359  16.221  1.00  0.00     0.219 HD
ENDBRANCH   4  34
BRANCH   8  36
HETATM   36  O3  UNL     1      30.716  26.796  15.265  1.00  0.00    -0.345 OA
ATOM     37  H3  UNL     1      31.326  26.080  15.127  1.00  0.00     0.219 HD
ENDBRANCH   8  36
BRANCH   1  38
HETATM   38  C4  UNL     1      24.272  26.446  17.250  1.00  0.00     0.033 C 
BRANCH  38  39
HETATM   39  C3  UNL     1      23.500  27.502  16.518  1.00  0.00     0.002 C 
BRANCH  39  40
HETATM   40  C2  UNL     1      22.018  27.173  16.787  1.00  0.00    -0.004 C 
HETATM   41  C1  UNL     1      21.142  27.569  15.651  1.00  0.00     0.005 C 
ENDBRANCH  39  40
ENDBRANCH  38  39
ENDBRANCH   1  38
BRANCH   9  42
HETATM   42  C14 UNL     1      30.954  24.614  17.354  1.00  0.00     0.011 C 
BRANCH  42  43
HETATM   43  C15 UNL     1      31.962  23.629  16.917  1.00  0.00     0.002 C 
HETATM   44  C16 UNL     1      31.646  22.271  17.678  1.00  0.00     0.013 C 
HETATM   45  C17 UNL     1      31.948  23.178  15.486  1.00  0.00     0.013 C 
ENDBRANCH  42  43
ENDBRANCH   9  42
BRANCH  27  46
HETATM   46  O7  UNL     1      23.380  27.309  19.991  1.00  0.00    -0.348 OA
ATOM     47  H7  UNL     1      23.414  27.576  20.902  1.00  0.00     0.219 HD
ENDBRANCH  27  46
BRANCH  12  48
HETATM   48  O4  UNL     1      30.800  27.197  20.830  1.00  0.00    -0.348 OA
ATOM     49  H4  UNL     1      30.435  26.944  21.670  1.00  0.00     0.219 HD
ENDBRANCH  12  48
BRANCH  13  50
HETATM   50  C20 UNL     1      31.433  24.840  21.857  1.00  0.00     0.037 C 
BRANCH  50  51
HETATM   51  C21 UNL     1      31.808  23.447  22.198  1.00  0.00    -0.020 C 
HETATM   52  C22 UNL     1      31.583  22.424  21.138  1.00  0.00     0.009 C 
HETATM   53  C23 UNL     1      31.101  22.984  23.457  1.00  0.00     0.009 C 
ENDBRANCH  50  51
ENDBRANCH  13  50
BRANCH  18  54
HETATM   54  C26 UNL     1      27.762  21.536  20.696  1.00  0.00     0.012 C 
BRANCH  54  55
HETATM   55  C27 UNL     1      27.884  20.400  19.806  1.00  0.00     0.002 C 
HETATM   56  C28 UNL     1      26.711  19.673  19.260  1.00  0.00     0.013 C 
HETATM   57  C29 UNL     1      28.681  19.303  20.593  1.00  0.00     0.013 C 
ENDBRANCH  54  55
ENDBRANCH  18  54
TORSDOF 15
ENDMDL
MODEL 5
REMARK VINA RESULT: -5.843767340     13.773     18.416
REMARK  15 active torsions:
REMARK  status: ('A' for Active; 'I' for Inactive)
REMARK    1  A    between atoms: C2_2  and  C3_3 
REMARK    2  A    between atoms: C3_3  and  C4_4 
REMARK    3  A    between atoms: C4_4  and  C5_5 
REMARK    4  A    between atoms: C6_8  and  O1_9 
REMARK    5  A    between atoms: C7_11  and  C8_12 
REMARK    6  A    between atoms: C7_11  and  C9_15 
REMARK    7  A    between atoms: C12_20  and  O3_21 
REMARK    8  A    between atoms: C13_23  and  C14_24 
REMARK    9  A    between atoms: C14_24  and  C15_25 
REMARK   10  A    between atoms: C18_30  and  O4_31 
REMARK   11  A    between atoms: C19_33  and  C20_34 
REMARK   12  A    between atoms: C20_34  and  C21_35 
REMARK   13  A    between atoms: C25_42  and  C26_43 
REMARK   14  A    between atoms: C26_43  and  C27_44 
REMARK   15  A    between atoms: C34_55  and  O7_56 
ROOT
HETATM    1  C5  UNL     1      24.334  27.065  18.584  1.00  0.00     0.158 C 
HETATM    2  N1  UNL     1      25.741  26.993  18.357  1.00  0.00    -0.360 N 
ATOM      3  H1  UNL     1      26.239  26.555  19.132  1.00  0.00     0.162 HD
HETATM    4  C6  UNL     1      26.598  27.383  17.322  1.00  0.00     0.151 C 
HETATM    5  C7  UNL     1      27.230  28.616  16.906  1.00  0.00     0.179 C 
HETATM    6  N3  UNL     1      28.521  28.412  16.223  1.00  0.00    -0.345 N 
ATOM      7  H3  UNL     1      28.878  29.305  15.883  1.00  0.00     0.163 HD
HETATM    8  C12 UNL     1      29.393  27.412  15.898  1.00  0.00     0.164 C 
HETATM    9  C13 UNL     1      30.272  26.503  16.637  1.00  0.00     0.081 C 
HETATM   10  N4  UNL     1      30.649  27.042  17.946  1.00  0.00    -0.336 N 
ATOM     11  H4  UNL     1      31.207  27.893  17.885  1.00  0.00     0.168 HD
HETATM   12  C18 UNL     1      30.412  26.646  19.231  1.00  0.00     0.139 C 
HETATM   13  C19 UNL     1      30.192  25.372  19.916  1.00  0.00     0.160 C 
HETATM   14  N5  UNL     1      28.885  25.411  20.582  1.00  0.00    -0.344 N 
ATOM     15  H5  UNL     1      28.504  26.330  20.806  1.00  0.00     0.163 HD
HETATM   16  C24 UNL     1      28.095  24.263  20.947  1.00  0.00     0.268 C 
HETATM   17  O5  UNL     1      27.779  24.260  22.156  1.00  0.00    -0.266 OA
HETATM   18  C25 UNL     1      27.709  23.235  20.030  1.00  0.00     0.099 C 
HETATM   19  N6  UNL     1      26.553  23.550  19.198  1.00  0.00    -0.321 N 
ATOM     20  H6  UNL     1      26.767  23.786  18.229  1.00  0.00     0.169 HD
HETATM   21  C30 UNL     1      25.189  23.578  19.534  1.00  0.00     0.244 C 
HETATM   22  O6  UNL     1      24.445  22.944  18.695  1.00  0.00    -0.271 OA
HETATM   23  C31 UNL     1      24.504  24.187  20.640  1.00  0.00     0.174 C 
HETATM   24  C32 UNL     1      23.152  23.452  20.809  1.00  0.00     0.042 C 
HETATM   25  N7  UNL     1      24.357  25.589  20.792  1.00  0.00    -0.355 N 
HETATM   26  C33 UNL     1      24.711  26.112  22.149  1.00  0.00     0.152 C 
HETATM   27  C34 UNL     1      23.907  26.602  19.934  1.00  0.00     0.137 C 
ENDROOT
BRANCH   5  28
HETATM   28  C8  UNL     1      26.361  29.333  15.948  1.00  0.00     0.268 C 
HETATM   29  N2  UNL     1      25.560  30.445  16.220  1.00  0.00    -0.059 NA
HETATM   30  O2  UNL     1      26.326  28.917  14.765  1.00  0.00    -0.274 OA
ENDBRANCH   5  28
BRANCH   5  31
HETATM   31  C9  UNL     1      27.605  29.595  18.001  1.00  0.00     0.023 C 
HETATM   32  C10 UNL     1      27.574  28.953  19.362  1.00  0.00     0.013 C 
HETATM   33  C11 UNL     1      28.838  30.376  17.826  1.00  0.00     0.013 C 
ENDBRANCH   5  31
BRANCH   4  34
HETATM   34  O1  UNL     1      26.918  26.398  16.531  1.00  0.00    -0.347 OA
ATOM     35  H1  UNL     1      26.197  26.117  15.980  1.00  0.00     0.219 HD
ENDBRANCH   4  34
BRANCH   8  36
HETATM   36  O3  UNL     1      29.489  27.198  14.611  1.00  0.00    -0.345 OA
ATOM     37  H3  UNL     1      30.344  26.882  14.340  1.00  0.00     0.219 HD
ENDBRANCH   8  36
BRANCH   1  38
HETATM   38  C4  UNL     1      23.434  26.497  17.514  1.00  0.00     0.033 C 
BRANCH  38  39
HETATM   39  C3  UNL     1      23.112  27.467  16.417  1.00  0.00     0.002 C 
BRANCH  39  40
HETATM   40  C2  UNL     1      21.584  27.373  16.236  1.00  0.00    -0.004 C 
HETATM   41  C1  UNL     1      21.204  27.074  14.829  1.00  0.00     0.005 C 
ENDBRANCH  39  40
ENDBRANCH  38  39
ENDBRANCH   1  38
BRANCH   9  42
HETATM   42  C14 UNL     1      30.152  25.044  16.637  1.00  0.00     0.011 C 
BRANCH  42  43
HETATM   43  C15 UNL     1      31.176  24.112  16.126  1.00  0.00     0.002 C 
HETATM   44  C16 UNL     1      31.980  24.880  14.992  1.00  0.00     0.013 C 
HETATM   45  C17 UNL     1      32.284  23.693  17.044  1.00  0.00     0.013 C 
ENDBRANCH  42  43
ENDBRANCH   9  42
BRANCH  27  46
HETATM   46  O7  UNL     1      22.905  27.323  20.359  1.00  0.00    -0.348 OA
ATOM     47  H7  UNL     1      22.305  27.503  19.644  1.00  0.00     0.219 HD
ENDBRANCH  27  46
BRANCH  12  48
HETATM   48  O4  UNL     1      30.362  27.632  20.105  1.00  0.00    -0.348 OA
ATOM     49  H4  UNL     1      30.921  27.513  20.864  1.00  0.00     0.219 HD
ENDBRANCH  12  48
BRANCH  13  50
HETATM   50  C20 UNL     1      31.270  25.320  21.022  1.00  0.00     0.037 C 
BRANCH  50  51
HETATM   51  C21 UNL     1      31.762  23.951  21.306  1.00  0.00    -0.020 C 
HETATM   52  C22 UNL     1      31.408  22.901  20.309  1.00  0.00     0.009 C 
HETATM   53  C23 UNL     1      31.302  23.478  22.671  1.00  0.00     0.009 C 
ENDBRANCH  50  51
ENDBRANCH  13  50
BRANCH  18  54
HETATM   54  C26 UNL     1      27.661  21.809  20.399  1.00  0.00     0.012 C 
BRANCH  54  55
HETATM   55  C27 UNL     1      27.639  20.679  19.494  1.00  0.00     0.002 C 
HETATM   56  C28 UNL     1      26.388  19.987  19.096  1.00  0.00     0.013 C 
HETATM   57  C29 UNL     1      28.500  19.554  20.167  1.00  0.00     0.013 C 
ENDBRANCH  54  55
ENDBRANCH  18  54
TORSDOF 15
ENDMDL
