MODEL 1
REMARK VINA RESULT: -5.572289288      0.000      0.000
REMARK  7 active torsions:
REMARK  status: ('A' for Active; 'I' for Inactive)
REMARK    1  A    between atoms: C2_2  and  C3_3 
REMARK    2  A    between atoms: C3_3  and  C4_4 
REMARK    3  A    between atoms: C3_3  and  C7_10 
REMARK    4  A    between atoms: C4_4  and  C5_5 
REMARK    5  A    between atoms: C5_5  and  N1_6 
REMARK    6  A    between atoms: C7_10  and  O1_11 
REMARK    7  A    between atoms: O1_11  and  C8_12 
ROOT
HETATM    1  C3  UNL     1      20.232  -2.208  -3.481  1.00  0.00     0.010 C 
ENDROOT
BRANCH   1   2
HETATM    2  C2  UNL     1      19.715  -1.754  -4.876  1.00  0.00     0.002 C 
HETATM    3  C1  UNL     1      20.799  -1.481  -5.847  1.00  0.00     0.005 C 
ENDBRANCH   1   2
BRANCH   1   4
HETATM    4  C4  UNL     1      21.649  -2.662  -3.681  1.00  0.00     0.034 C 
BRANCH   4   5
HETATM    5  C5  UNL     1      22.648  -2.113  -2.748  1.00  0.00     0.232 C 
BRANCH   5   6
HETATM    6  N1  UNL     1      23.946  -2.672  -3.128  1.00  0.00    -0.079 N 
HETATM    7  C6  UNL     1      24.129  -2.639  -4.563  1.00  0.00     0.266 C 
ATOM      8  H12 UNL     1      24.712  -2.207  -2.642  1.00  0.00     0.276 HD
ATOM      9  H11 UNL     1      24.073  -3.613  -2.755  1.00  0.00     0.276 HD
ENDBRANCH   5   6
ENDBRANCH   4   5
ENDBRANCH   1   4
BRANCH   1  10
HETATM   10  C7  UNL     1      19.344  -3.291  -2.987  1.00  0.00     0.172 C 
BRANCH  10  11
HETATM   11  O1  UNL     1      18.019  -3.243  -3.290  1.00  0.00    -0.386 OA
BRANCH  11  12
HETATM   12  C8  UNL     1      17.290  -2.853  -2.169  1.00  0.00     0.121 A 
HETATM   13  C9  UNL     1      15.880  -2.392  -2.628  1.00  0.00     0.032 A 
HETATM   14  C10 UNL     1      15.265  -3.543  -1.883  1.00  0.00     0.005 A 
HETATM   15  C11 UNL     1      16.624  -3.903  -1.378  1.00  0.00     0.032 A 
ENDBRANCH  11  12
ENDBRANCH  10  11
ENDBRANCH   1  10
TORSDOF 7
ENDMDL
MODEL 2
REMARK VINA RESULT: -5.571310282      3.272      6.319
REMARK  7 active torsions:
REMARK  status: ('A' for Active; 'I' for Inactive)
REMARK    1  A    between atoms: C2_2  and  C3_3 
REMARK    2  A    between atoms: C3_3  and  C4_4 
REMARK    3  A    between atoms: C3_3  and  C7_10 
REMARK    4  A    between atoms: C4_4  and  C5_5 
REMARK    5  A    between atoms: C5_5  and  N1_6 
REMARK    6  A    between atoms: C7_10  and  O1_11 
REMARK    7  A    between atoms: O1_11  and  C8_12 
ROOT
HETATM    1  C3  UNL     1      15.887  -2.808  -3.106  1.00  0.00     0.010 C 
ENDROOT
BRANCH   1   2
HETATM    2  C2  UNL     1      15.661  -3.352  -1.667  1.00  0.00     0.002 C 
HETATM    3  C1  UNL     1      16.567  -4.466  -1.307  1.00  0.00     0.005 C 
ENDBRANCH   1   2
BRANCH   1   4
HETATM    4  C4  UNL     1      16.170  -4.003  -3.971  1.00  0.00     0.034 C 
BRANCH   4   5
HETATM    5  C5  UNL     1      15.058  -4.480  -4.810  1.00  0.00     0.232 C 
BRANCH   5   6
HETATM    6  N1  UNL     1      14.482  -5.647  -4.141  1.00  0.00    -0.079 N 
HETATM    7  C6  UNL     1      13.197  -5.993  -4.706  1.00  0.00     0.266 C 
ATOM      8  H12 UNL     1      15.123  -6.441  -4.153  1.00  0.00     0.276 HD
ATOM      9  H11 UNL     1      14.423  -5.509  -3.132  1.00  0.00     0.276 HD
ENDBRANCH   5   6
ENDBRANCH   4   5
ENDBRANCH   1   4
BRANCH   1  10
HETATM   10  C7  UNL     1      17.016  -1.845  -3.067  1.00  0.00     0.172 C 
BRANCH  10  11
HETATM   11  O1  UNL     1      18.035  -1.991  -3.955  1.00  0.00    -0.386 OA
BRANCH  11  12
HETATM   12  C8  UNL     1      19.258  -1.928  -3.290  1.00  0.00     0.121 A 
HETATM   13  C9  UNL     1      19.705  -3.371  -2.932  1.00  0.00     0.032 A 
HETATM   14  C10 UNL     1      20.883  -3.230  -3.855  1.00  0.00     0.005 A 
HETATM   15  C11 UNL     1      20.482  -1.813  -4.102  1.00  0.00     0.032 A 
ENDBRANCH  11  12
ENDBRANCH  10  11
ENDBRANCH   1  10
TORSDOF 7
ENDMDL
MODEL 3
REMARK VINA RESULT: -5.549702917      3.472      6.699
REMARK  7 active torsions:
REMARK  status: ('A' for Active; 'I' for Inactive)
REMARK    1  A    between atoms: C2_2  and  C3_3 
REMARK    2  A    between atoms: C3_3  and  C4_4 
REMARK    3  A    between atoms: C3_3  and  C7_10 
REMARK    4  A    between atoms: C4_4  and  C5_5 
REMARK    5  A    between atoms: C5_5  and  N1_6 
REMARK    6  A    between atoms: C7_10  and  O1_11 
REMARK    7  A    between atoms: O1_11  and  C8_12 
ROOT
HETATM    1  C3  UNL     1      15.470  -3.477  -2.328  1.00  0.00     0.010 C 
ENDROOT
BRANCH   1   2
HETATM    2  C2  UNL     1      16.183  -3.687  -0.963  1.00  0.00     0.002 C 
HETATM    3  C1  UNL     1      16.876  -4.991  -0.852  1.00  0.00     0.005 C 
ENDBRANCH   1   2
BRANCH   1   4
HETATM    4  C4  UNL     1      15.621  -4.764  -3.087  1.00  0.00     0.034 C 
BRANCH   4   5
HETATM    5  C5  UNL     1      14.447  -5.211  -3.857  1.00  0.00     0.232 C 
BRANCH   5   6
HETATM    6  N1  UNL     1      13.497  -5.782  -2.902  1.00  0.00    -0.079 N 
HETATM    7  C6  UNL     1      12.211  -6.015  -3.522  1.00  0.00     0.266 C 
ATOM      8  H12 UNL     1      13.863  -6.629  -2.469  1.00  0.00     0.276 HD
ATOM      9  H11 UNL     1      13.411  -5.203  -2.067  1.00  0.00     0.276 HD
ENDBRANCH   5   6
ENDBRANCH   4   5
ENDBRANCH   1   4
BRANCH   1  10
HETATM   10  C7  UNL     1      16.107  -2.325  -3.014  1.00  0.00     0.172 C 
BRANCH  10  11
HETATM   11  O1  UNL     1      17.077  -2.565  -3.936  1.00  0.00    -0.386 OA
BRANCH  11  12
HETATM   12  C8  UNL     1      18.289  -2.033  -3.501  1.00  0.00     0.121 A 
HETATM   13  C9  UNL     1      19.239  -3.201  -3.123  1.00  0.00     0.032 A 
HETATM   14  C10 UNL     1      20.159  -2.810  -4.245  1.00  0.00     0.005 A 
HETATM   15  C11 UNL     1      19.276  -1.637  -4.520  1.00  0.00     0.032 A 
ENDBRANCH  11  12
ENDBRANCH  10  11
ENDBRANCH   1  10
TORSDOF 7
ENDMDL
MODEL 4
REMARK VINA RESULT: -5.481458615      1.230      2.164
REMARK  7 active torsions:
REMARK  status: ('A' for Active; 'I' for Inactive)
REMARK    1  A    between atoms: C2_2  and  C3_3 
REMARK    2  A    between atoms: C3_3  and  C4_4 
REMARK    3  A    between atoms: C3_3  and  C7_10 
REMARK    4  A    between atoms: C4_4  and  C5_5 
REMARK    5  A    between atoms: C5_5  and  N1_6 
REMARK    6  A    between atoms: C7_10  and  O1_11 
REMARK    7  A    between atoms: O1_11  and  C8_12 
ROOT
HETATM    1  C3  UNL     1      19.650  -3.018  -4.240  1.00  0.00     0.010 C 
ENDROOT
BRANCH   1   2
HETATM    2  C2  UNL     1      20.335  -3.489  -2.926  1.00  0.00     0.002 C 
HETATM    3  C1  UNL     1      19.417  -4.192  -2.001  1.00  0.00     0.005 C 
ENDBRANCH   1   2
BRANCH   1   4
HETATM    4  C4  UNL     1      20.441  -1.840  -4.731  1.00  0.00     0.034 C 
BRANCH   4   5
HETATM    5  C5  UNL     1      21.682  -1.534  -3.998  1.00  0.00     0.232 C 
BRANCH   5   6
HETATM    6  N1  UNL     1      22.796  -1.788  -4.912  1.00  0.00    -0.079 N 
HETATM    7  C6  UNL     1      23.812  -2.603  -4.283  1.00  0.00     0.266 C 
ATOM      8  H12 UNL     1      22.477  -2.199  -5.789  1.00  0.00     0.276 HD
ATOM      9  H11 UNL     1      23.186  -0.920  -5.279  1.00  0.00     0.276 HD
ENDBRANCH   5   6
ENDBRANCH   4   5
ENDBRANCH   1   4
BRANCH   1  10
HETATM   10  C7  UNL     1      18.239  -2.677  -3.932  1.00  0.00     0.172 C 
BRANCH  10  11
HETATM   11  O1  UNL     1      17.261  -3.558  -4.274  1.00  0.00    -0.386 OA
BRANCH  11  12
HETATM   12  C8  UNL     1      16.035  -3.126  -3.772  1.00  0.00     0.121 A 
HETATM   13  C9  UNL     1      15.391  -4.284  -2.964  1.00  0.00     0.032 A 
HETATM   14  C10 UNL     1      15.512  -3.469  -1.707  1.00  0.00     0.005 A 
HETATM   15  C11 UNL     1      16.037  -2.337  -2.528  1.00  0.00     0.032 A 
ENDBRANCH  11  12
ENDBRANCH  10  11
ENDBRANCH   1  10
TORSDOF 7
ENDMDL
MODEL 5
REMARK VINA RESULT: -5.480185703      8.259     10.128
REMARK  7 active torsions:
REMARK  status: ('A' for Active; 'I' for Inactive)
REMARK    1  A    between atoms: C2_2  and  C3_3 
REMARK    2  A    between atoms: C3_3  and  C4_4 
REMARK    3  A    between atoms: C3_3  and  C7_10 
REMARK    4  A    between atoms: C4_4  and  C5_5 
REMARK    5  A    between atoms: C5_5  and  N1_6 
REMARK    6  A    between atoms: C7_10  and  O1_11 
REMARK    7  A    between atoms: O1_11  and  C8_12 
ROOT
HETATM    1  C3  UNL     1      15.089  -9.374  -0.658  1.00  0.00     0.010 C 
ENDROOT
BRANCH   1   2
HETATM    2  C2  UNL     1      16.427  -9.103   0.087  1.00  0.00     0.002 C 
HETATM    3  C1  UNL     1      17.446 -10.156  -0.126  1.00  0.00     0.005 C 
ENDBRANCH   1   2
BRANCH   1   4
HETATM    4  C4  UNL     1      14.611  -8.045  -1.167  1.00  0.00     0.034 C 
BRANCH   4   5
HETATM    5  C5  UNL     1      13.841  -8.066  -2.423  1.00  0.00     0.232 C 
BRANCH   5   6
HETATM    6  N1  UNL     1      13.145  -6.783  -2.524  1.00  0.00    -0.079 N 
HETATM    7  C6  UNL     1      13.010  -6.368  -3.902  1.00  0.00     0.266 C 
ATOM      8  H12 UNL     1      12.242  -6.807  -2.050  1.00  0.00     0.276 HD
ATOM      9  H11 UNL     1      13.598  -6.065  -1.958  1.00  0.00     0.276 HD
ENDBRANCH   5   6
ENDBRANCH   4   5
ENDBRANCH   1   4
BRANCH   1  10
HETATM   10  C7  UNL     1      14.143  -9.999   0.301  1.00  0.00     0.172 C 
BRANCH  10  11
HETATM   11  O1  UNL     1      14.437  -9.967   1.628  1.00  0.00    -0.386 OA
BRANCH  11  12
HETATM   12  C8  UNL     1      14.141 -11.198   2.210  1.00  0.00     0.121 A 
HETATM   13  C9  UNL     1      15.195 -12.237   1.741  1.00  0.00     0.032 A 
HETATM   14  C10 UNL     1      15.689 -12.367   3.155  1.00  0.00     0.005 A 
HETATM   15  C11 UNL     1      14.601 -11.440   3.589  1.00  0.00     0.032 A 
ENDBRANCH  11  12
ENDBRANCH  10  11
ENDBRANCH   1  10
TORSDOF 7
ENDMDL
