MODEL 1
REMARK VINA RESULT: -5.284031485      0.000      0.000
REMARK  7 active torsions:
REMARK  status: ('A' for Active; 'I' for Inactive)
REMARK    1  A    between atoms: C2_2  and  C3_3 
REMARK    2  A    between atoms: C3_3  and  C4_4 
REMARK    3  A    between atoms: C3_3  and  N1_6 
REMARK    4  A    between atoms: N1_6  and  C6_7 
REMARK    5  A    between atoms: N1_6  and  C8_13 
REMARK    6  A    between atoms: C6_7  and  C7_8 
REMARK    7  A    between atoms: C7_8  and  N2_9 
ROOT
HETATM    1  N1  UNL     1      17.760  -2.927  -3.249  1.00  0.00    -0.361 N 
ENDROOT
BRANCH   1   2
HETATM    2  C3  UNL     1      16.845  -3.967  -3.113  1.00  0.00    -0.012 C 
BRANCH   2   3
HETATM    3  C2  UNL     1      15.932  -4.218  -4.265  1.00  0.00     0.048 C 
HETATM    4  C1  UNL     1      14.924  -5.294  -4.117  1.00  0.00     0.011 C 
ENDBRANCH   2   3
BRANCH   2   5
HETATM    5  C4  UNL     1      16.245  -4.058  -1.750  1.00  0.00     0.048 C 
HETATM    6  C5  UNL     1      16.982  -4.999  -0.801  1.00  0.00     0.011 C 
ENDBRANCH   2   5
ENDBRANCH   1   2
BRANCH   1   7
HETATM    7  C6  UNL     1      17.657  -1.681  -2.666  1.00  0.00     0.091 C 
BRANCH   7   8
HETATM    8  C7  UNL     1      16.870  -0.594  -3.351  1.00  0.00     0.274 C 
BRANCH   8   9
HETATM    9  N2  UNL     1      15.422  -0.829  -3.152  1.00  0.00    -0.075 N 
ATOM     10  H23 UNL     1      15.241  -1.561  -2.466  1.00  0.00     0.274 HD
ATOM     11  H22 UNL     1      14.971  -0.055  -2.664  1.00  0.00     0.274 HD
ATOM     12  H21 UNL     1      14.981  -1.026  -4.050  1.00  0.00     0.274 HD
ENDBRANCH   8   9
ENDBRANCH   7   8
ENDBRANCH   1   7
BRANCH   1  13
HETATM   13  C8  UNL     1      19.040  -3.284  -3.791  1.00  0.00     0.088 C 
HETATM   14  C9  UNL     1      19.958  -2.194  -4.245  1.00  0.00     0.026 C 
HETATM   15  C10 UNL     1      21.097  -3.140  -3.820  1.00  0.00     0.004 C 
HETATM   16  C11 UNL     1      20.102  -3.622  -2.770  1.00  0.00     0.026 C 
ENDBRANCH   1  13
TORSDOF 7
ENDMDL
MODEL 2
REMARK VINA RESULT: -5.069895434      3.202      4.522
REMARK  7 active torsions:
REMARK  status: ('A' for Active; 'I' for Inactive)
REMARK    1  A    between atoms: C2_2  and  C3_3 
REMARK    2  A    between atoms: C3_3  and  C4_4 
REMARK    3  A    between atoms: C3_3  and  N1_6 
REMARK    4  A    between atoms: N1_6  and  C6_7 
REMARK    5  A    between atoms: N1_6  and  C8_13 
REMARK    6  A    between atoms: C6_7  and  C7_8 
REMARK    7  A    between atoms: C7_8  and  N2_9 
ROOT
HETATM    1  N1  UNL     1      14.931  -5.384  -3.529  1.00  0.00    -0.361 N 
ENDROOT
BRANCH   1   2
HETATM    2  C3  UNL     1      14.021  -6.422  -3.354  1.00  0.00    -0.012 C 
BRANCH   2   3
HETATM    3  C2  UNL     1      12.650  -6.049  -2.900  1.00  0.00     0.048 C 
HETATM    4  C1  UNL     1      11.604  -5.896  -3.939  1.00  0.00     0.011 C 
ENDBRANCH   2   3
BRANCH   2   5
HETATM    5  C4  UNL     1      14.621  -7.643  -2.741  1.00  0.00     0.048 C 
HETATM    6  C5  UNL     1      14.095  -7.967  -1.345  1.00  0.00     0.011 C 
ENDBRANCH   2   5
ENDBRANCH   1   2
BRANCH   1   7
HETATM    7  C6  UNL     1      15.422  -4.936  -4.738  1.00  0.00     0.091 C 
BRANCH   7   8
HETATM    8  C7  UNL     1      14.472  -4.415  -5.786  1.00  0.00     0.274 C 
BRANCH   8   9
HETATM    9  N2  UNL     1      14.445  -5.343  -6.938  1.00  0.00    -0.075 N 
ATOM     10  H23 UNL     1      15.267  -5.946  -6.966  1.00  0.00     0.274 HD
ATOM     11  H22 UNL     1      13.735  -6.068  -6.831  1.00  0.00     0.274 HD
ATOM     12  H21 UNL     1      14.326  -4.815  -7.802  1.00  0.00     0.274 HD
ENDBRANCH   8   9
ENDBRANCH   7   8
ENDBRANCH   1   7
BRANCH   1  13
HETATM   13  C8  UNL     1      15.139  -4.533  -2.392  1.00  0.00     0.088 C 
HETATM   14  C9  UNL     1      16.309  -4.799  -1.500  1.00  0.00     0.026 C 
HETATM   15  C10 UNL     1      16.322  -3.276  -1.264  1.00  0.00     0.004 C 
HETATM   16  C11 UNL     1      15.790  -3.202  -2.692  1.00  0.00     0.026 C 
ENDBRANCH   1  13
TORSDOF 7
ENDMDL
MODEL 3
REMARK VINA RESULT: -5.062253928      3.443      5.327
REMARK  7 active torsions:
REMARK  status: ('A' for Active; 'I' for Inactive)
REMARK    1  A    between atoms: C2_2  and  C3_3 
REMARK    2  A    between atoms: C3_3  and  C4_4 
REMARK    3  A    between atoms: C3_3  and  N1_6 
REMARK    4  A    between atoms: N1_6  and  C6_7 
REMARK    5  A    between atoms: N1_6  and  C8_13 
REMARK    6  A    between atoms: C6_7  and  C7_8 
REMARK    7  A    between atoms: C7_8  and  N2_9 
ROOT
HETATM    1  N1  UNL     1      14.851  -5.766  -3.101  1.00  0.00    -0.361 N 
ENDROOT
BRANCH   1   2
HETATM    2  C3  UNL     1      14.129  -5.374  -4.224  1.00  0.00    -0.012 C 
BRANCH   2   3
HETATM    3  C2  UNL     1      12.963  -6.222  -4.607  1.00  0.00     0.048 C 
HETATM    4  C1  UNL     1      11.653  -5.901  -3.991  1.00  0.00     0.011 C 
ENDBRANCH   2   3
BRANCH   2   5
HETATM    5  C4  UNL     1      14.985  -4.871  -5.338  1.00  0.00     0.048 C 
HETATM    6  C5  UNL     1      14.315  -4.905  -6.710  1.00  0.00     0.011 C 
ENDBRANCH   2   5
ENDBRANCH   1   2
BRANCH   1   7
HETATM    7  C6  UNL     1      14.980  -7.057  -2.635  1.00  0.00     0.091 C 
BRANCH   7   8
HETATM    8  C7  UNL     1      13.959  -7.614  -1.676  1.00  0.00     0.274 C 
BRANCH   8   9
HETATM    9  N2  UNL     1      13.680  -9.027  -2.012  1.00  0.00    -0.075 N 
ATOM     10  H23 UNL     1      14.533  -9.583  -2.080  1.00  0.00     0.274 HD
ATOM     11  H22 UNL     1      13.241  -9.527  -1.238  1.00  0.00     0.274 HD
ATOM     12  H21 UNL     1      13.122  -9.074  -2.864  1.00  0.00     0.274 HD
ENDBRANCH   8   9
ENDBRANCH   7   8
ENDBRANCH   1   7
BRANCH   1  13
HETATM   13  C8  UNL     1      15.764  -4.793  -2.572  1.00  0.00     0.088 C 
HETATM   14  C9  UNL     1      15.210  -3.581  -1.894  1.00  0.00     0.026 C 
HETATM   15  C10 UNL     1      16.479  -3.636  -1.021  1.00  0.00     0.004 C 
HETATM   16  C11 UNL     1      16.377  -5.143  -1.235  1.00  0.00     0.026 C 
ENDBRANCH   1  13
TORSDOF 7
ENDMDL
MODEL 4
REMARK VINA RESULT: -4.904850964      2.418      5.095
REMARK  7 active torsions:
REMARK  status: ('A' for Active; 'I' for Inactive)
REMARK    1  A    between atoms: C2_2  and  C3_3 
REMARK    2  A    between atoms: C3_3  and  C4_4 
REMARK    3  A    between atoms: C3_3  and  N1_6 
REMARK    4  A    between atoms: N1_6  and  C6_7 
REMARK    5  A    between atoms: N1_6  and  C8_13 
REMARK    6  A    between atoms: C6_7  and  C7_8 
REMARK    7  A    between atoms: C7_8  and  N2_9 
ROOT
HETATM    1  N1  UNL     1      14.986  -4.596  -3.708  1.00  0.00    -0.361 N 
ENDROOT
BRANCH   1   2
HETATM    2  C3  UNL     1      15.769  -3.594  -3.143  1.00  0.00    -0.012 C 
BRANCH   2   3
HETATM    3  C2  UNL     1      17.114  -3.368  -3.745  1.00  0.00     0.048 C 
HETATM    4  C1  UNL     1      17.696  -2.009  -3.628  1.00  0.00     0.011 C 
ENDBRANCH   2   3
BRANCH   2   5
HETATM    5  C4  UNL     1      15.684  -3.540  -1.654  1.00  0.00     0.048 C 
HETATM    6  C5  UNL     1      16.773  -4.333  -0.934  1.00  0.00     0.011 C 
ENDBRANCH   2   5
ENDBRANCH   1   2
BRANCH   1   7
HETATM    7  C6  UNL     1      15.078  -5.057  -5.004  1.00  0.00     0.091 C 
BRANCH   7   8
HETATM    8  C7  UNL     1      14.343  -4.343  -6.109  1.00  0.00     0.274 C 
BRANCH   8   9
HETATM    9  N2  UNL     1      14.348  -5.177  -7.331  1.00  0.00    -0.075 N 
ATOM     10  H23 UNL     1      13.866  -6.066  -7.192  1.00  0.00     0.274 HD
ATOM     11  H22 UNL     1      13.745  -4.795  -8.060  1.00  0.00     0.274 HD
ATOM     12  H21 UNL     1      15.306  -5.306  -7.654  1.00  0.00     0.274 HD
ENDBRANCH   8   9
ENDBRANCH   7   8
ENDBRANCH   1   7
BRANCH   1  13
HETATM   13  C8  UNL     1      14.238  -5.403  -2.785  1.00  0.00     0.088 C 
HETATM   14  C9  UNL     1      12.885  -5.893  -3.192  1.00  0.00     0.026 C 
HETATM   15  C10 UNL     1      13.198  -7.120  -2.314  1.00  0.00     0.004 C 
HETATM   16  C11 UNL     1      14.643  -6.858  -2.726  1.00  0.00     0.026 C 
ENDBRANCH   1  13
TORSDOF 7
ENDMDL
MODEL 5
REMARK VINA RESULT: -4.881216629      3.225      6.332
REMARK  7 active torsions:
REMARK  status: ('A' for Active; 'I' for Inactive)
REMARK    1  A    between atoms: C2_2  and  C3_3 
REMARK    2  A    between atoms: C3_3  and  C4_4 
REMARK    3  A    between atoms: C3_3  and  N1_6 
REMARK    4  A    between atoms: N1_6  and  C6_7 
REMARK    5  A    between atoms: N1_6  and  C8_13 
REMARK    6  A    between atoms: C6_7  and  C7_8 
REMARK    7  A    between atoms: C7_8  and  N2_9 
ROOT
HETATM    1  N1  UNL     1      14.668  -6.049  -2.598  1.00  0.00    -0.361 N 
ENDROOT
BRANCH   1   2
HETATM    2  C3  UNL     1      15.733  -5.154  -2.614  1.00  0.00    -0.012 C 
BRANCH   2   3
HETATM    3  C2  UNL     1      16.136  -4.560  -1.307  1.00  0.00     0.048 C 
HETATM    4  C1  UNL     1      17.337  -5.120  -0.642  1.00  0.00     0.011 C 
ENDBRANCH   2   3
BRANCH   2   5
HETATM    5  C4  UNL     1      15.723  -4.237  -3.792  1.00  0.00     0.048 C 
HETATM    6  C5  UNL     1      16.967  -3.360  -3.915  1.00  0.00     0.011 C 
ENDBRANCH   2   5
ENDBRANCH   1   2
BRANCH   1   7
HETATM    7  C6  UNL     1      14.571  -7.174  -1.805  1.00  0.00     0.091 C 
BRANCH   7   8
HETATM    8  C7  UNL     1      14.979  -8.516  -2.354  1.00  0.00     0.274 C 
BRANCH   8   9
HETATM    9  N2  UNL     1      13.823  -9.440  -2.318  1.00  0.00    -0.075 N 
ATOM     10  H23 UNL     1      13.599  -9.739  -1.369  1.00  0.00     0.274 HD
ATOM     11  H22 UNL     1      12.946  -8.967  -2.534  1.00  0.00     0.274 HD
ATOM     12  H21 UNL     1      13.997 -10.230  -2.939  1.00  0.00     0.274 HD
ENDBRANCH   8   9
ENDBRANCH   7   8
ENDBRANCH   1   7
BRANCH   1  13
HETATM   13  C8  UNL     1      13.463  -5.601  -3.236  1.00  0.00     0.088 C 
HETATM   14  C9  UNL     1      12.990  -6.316  -4.462  1.00  0.00     0.026 C 
HETATM   15  C10 UNL     1      11.572  -5.951  -3.982  1.00  0.00     0.004 C 
HETATM   16  C11 UNL     1      12.178  -6.065  -2.587  1.00  0.00     0.026 C 
ENDBRANCH   1  13
TORSDOF 7
ENDMDL
