MODEL 1
REMARK VINA RESULT: -5.344858156      0.000      0.000
REMARK  6 active torsions:
REMARK  status: ('A' for Active; 'I' for Inactive)
REMARK    1  A    between atoms: O1_2  and  C2_3 
REMARK    2  A    between atoms: C2_3  and  C4_5 
REMARK    3  A    between atoms: C4_5  and  N1_6 
REMARK    4  A    between atoms: N1_6  and  C5_8 
REMARK    5  A    between atoms: C5_8  and  C6_9 
REMARK    6  A    between atoms: C6_9  and  C7_10 
ROOT
HETATM    1  N1  UNL     1      13.807  -9.702  -1.682  1.00  0.00    -0.400 N 
ATOM      2  H1  UNL     1      13.788 -10.623  -2.121  1.00  0.00     0.158 HD
ENDROOT
BRANCH   1   3
HETATM    3  C4  UNL     1      14.476  -8.660  -2.327  1.00  0.00     0.086 C 
BRANCH   3   4
HETATM    4  C2  UNL     1      13.828  -7.327  -2.438  1.00  0.00     0.154 C 
HETATM    5  C3  UNL     1      14.854  -6.222  -2.268  1.00  0.00     0.045 C 
BRANCH   4   6
HETATM    6  O1  UNL     1      13.277  -7.106  -3.706  1.00  0.00    -0.386 OA
HETATM    7  C1  UNL     1      12.416  -6.023  -3.727  1.00  0.00     0.202 C 
ENDBRANCH   4   6
ENDBRANCH   3   4
ENDBRANCH   1   3
BRANCH   1   8
HETATM    8  C5  UNL     1      13.161  -9.523  -0.449  1.00  0.00     0.119 C 
BRANCH   8   9
HETATM    9  C6  UNL     1      14.277  -9.423   0.617  1.00  0.00     0.024 C 
BRANCH   9  10
HETATM   10  C7  UNL     1      14.154 -10.529   1.615  1.00  0.00    -0.009 A 
HETATM   11  C8  UNL     1      15.247 -10.649   2.662  1.00  0.00     0.009 A 
HETATM   12  C9  UNL     1      15.113 -11.636   1.553  1.00  0.00    -0.014 A 
HETATM   13  C10 UNL     1      16.160 -11.701   0.453  1.00  0.00     0.010 C 
ENDBRANCH   9  10
ENDBRANCH   8   9
ENDBRANCH   1   8
TORSDOF 6
ENDMDL
MODEL 2
REMARK VINA RESULT: -5.273403288      6.322      8.221
REMARK  6 active torsions:
REMARK  status: ('A' for Active; 'I' for Inactive)
REMARK    1  A    between atoms: O1_2  and  C2_3 
REMARK    2  A    between atoms: C2_3  and  C4_5 
REMARK    3  A    between atoms: C4_5  and  N1_6 
REMARK    4  A    between atoms: N1_6  and  C5_8 
REMARK    5  A    between atoms: C5_8  and  C6_9 
REMARK    6  A    between atoms: C6_9  and  C7_10 
ROOT
HETATM    1  N1  UNL     1      17.331  -0.858  -3.161  1.00  0.00    -0.400 N 
ATOM      2  H1  UNL     1      17.618  -0.061  -2.593  1.00  0.00     0.158 HD
ENDROOT
BRANCH   1   3
HETATM    3  C4  UNL     1      18.299  -1.552  -3.891  1.00  0.00     0.086 C 
BRANCH   3   4
HETATM    4  C2  UNL     1      19.595  -1.896  -3.250  1.00  0.00     0.154 C 
HETATM    5  C3  UNL     1      19.692  -3.393  -3.020  1.00  0.00     0.045 C 
BRANCH   4   6
HETATM    6  O1  UNL     1      20.690  -1.593  -4.066  1.00  0.00    -0.386 OA
HETATM    7  C1  UNL     1      20.376  -1.643  -5.414  1.00  0.00     0.202 C 
ENDBRANCH   4   6
ENDBRANCH   3   4
ENDBRANCH   1   3
BRANCH   1   8
HETATM    8  C5  UNL     1      15.976  -1.222  -3.186  1.00  0.00     0.119 C 
BRANCH   8   9
HETATM    9  C6  UNL     1      15.940  -2.757  -3.370  1.00  0.00     0.024 C 
BRANCH   9  10
HETATM   10  C7  UNL     1      15.560  -3.433  -2.092  1.00  0.00    -0.009 A 
HETATM   11  C8  UNL     1      16.499  -4.503  -1.563  1.00  0.00     0.009 A 
HETATM   12  C9  UNL     1      15.166  -4.844  -2.138  1.00  0.00    -0.014 A 
HETATM   13  C10 UNL     1      15.069  -5.585  -3.462  1.00  0.00     0.010 C 
ENDBRANCH   9  10
ENDBRANCH   8   9
ENDBRANCH   1   8
TORSDOF 6
ENDMDL
MODEL 3
REMARK VINA RESULT: -5.233201255      1.382      2.366
REMARK  6 active torsions:
REMARK  status: ('A' for Active; 'I' for Inactive)
REMARK    1  A    between atoms: O1_2  and  C2_3 
REMARK    2  A    between atoms: C2_3  and  C4_5 
REMARK    3  A    between atoms: C4_5  and  N1_6 
REMARK    4  A    between atoms: N1_6  and  C5_8 
REMARK    5  A    between atoms: C5_8  and  C6_9 
REMARK    6  A    between atoms: C6_9  and  C7_10 
ROOT
HETATM    1  N1  UNL     1      15.995  -9.167  -0.672  1.00  0.00    -0.400 N 
ATOM      2  H1  UNL     1      15.867  -8.367  -0.052  1.00  0.00     0.158 HD
ENDROOT
BRANCH   1   3
HETATM    3  C4  UNL     1      15.383  -9.153  -1.927  1.00  0.00     0.086 C 
BRANCH   3   4
HETATM    4  C2  UNL     1      13.922  -8.901  -2.031  1.00  0.00     0.154 C 
HETATM    5  C3  UNL     1      13.372  -8.416  -0.702  1.00  0.00     0.045 C 
BRANCH   4   6
HETATM    6  O1  UNL     1      13.621  -7.875  -2.933  1.00  0.00    -0.386 OA
HETATM    7  C1  UNL     1      14.476  -6.793  -2.810  1.00  0.00     0.202 C 
ENDBRANCH   4   6
ENDBRANCH   3   4
ENDBRANCH   1   3
BRANCH   1   8
HETATM    8  C5  UNL     1      16.779 -10.246  -0.237  1.00  0.00     0.119 C 
BRANCH   8   9
HETATM    9  C6  UNL     1      15.791 -11.352   0.203  1.00  0.00     0.024 C 
BRANCH   9  10
HETATM   10  C7  UNL     1      16.119 -11.835   1.580  1.00  0.00    -0.009 A 
HETATM   11  C8  UNL     1      15.034 -12.586   2.331  1.00  0.00     0.009 A 
HETATM   12  C9  UNL     1      15.444 -11.206   2.719  1.00  0.00    -0.014 A 
HETATM   13  C10 UNL     1      14.492 -10.038   2.516  1.00  0.00     0.010 C 
ENDBRANCH   9  10
ENDBRANCH   8   9
ENDBRANCH   1   8
TORSDOF 6
ENDMDL
MODEL 4
REMARK VINA RESULT: -5.227851393      6.875      9.615
REMARK  6 active torsions:
REMARK  status: ('A' for Active; 'I' for Inactive)
REMARK    1  A    between atoms: O1_2  and  C2_3 
REMARK    2  A    between atoms: C2_3  and  C4_5 
REMARK    3  A    between atoms: C4_5  and  N1_6 
REMARK    4  A    between atoms: N1_6  and  C5_8 
REMARK    5  A    between atoms: C5_8  and  C6_9 
REMARK    6  A    between atoms: C6_9  and  C7_10 
ROOT
HETATM    1  N1  UNL     1      18.567  -3.168  -3.985  1.00  0.00    -0.400 N 
ATOM      2  H1  UNL     1      18.891  -3.022  -4.941  1.00  0.00     0.158 HD
ENDROOT
BRANCH   1   3
HETATM    3  C4  UNL     1      17.194  -3.251  -3.742  1.00  0.00     0.086 C 
BRANCH   3   4
HETATM    4  C2  UNL     1      16.572  -2.363  -2.726  1.00  0.00     0.154 C 
HETATM    5  C3  UNL     1      15.695  -1.322  -3.396  1.00  0.00     0.045 C 
BRANCH   4   6
HETATM    6  O1  UNL     1      15.708  -3.055  -1.870  1.00  0.00    -0.386 OA
HETATM    7  C1  UNL     1      16.347  -4.071  -1.180  1.00  0.00     0.202 C 
ENDBRANCH   4   6
ENDBRANCH   3   4
ENDBRANCH   1   3
BRANCH   1   8
HETATM    8  C5  UNL     1      19.514  -3.280  -2.956  1.00  0.00     0.119 C 
BRANCH   8   9
HETATM    9  C6  UNL     1      20.903  -3.214  -3.633  1.00  0.00     0.024 C 
BRANCH   9  10
HETATM   10  C7  UNL     1      21.292  -1.796  -3.903  1.00  0.00    -0.009 A 
HETATM   11  C8  UNL     1      21.536  -1.403  -5.349  1.00  0.00     0.009 A 
HETATM   12  C9  UNL     1      22.654  -1.521  -4.370  1.00  0.00    -0.014 A 
HETATM   13  C10 UNL     1      23.674  -2.640  -4.501  1.00  0.00     0.010 C 
ENDBRANCH   9  10
ENDBRANCH   8   9
ENDBRANCH   1   8
TORSDOF 6
ENDMDL
MODEL 5
REMARK VINA RESULT: -5.210007367      6.838      9.109
REMARK  6 active torsions:
REMARK  status: ('A' for Active; 'I' for Inactive)
REMARK    1  A    between atoms: O1_2  and  C2_3 
REMARK    2  A    between atoms: C2_3  and  C4_5 
REMARK    3  A    between atoms: C4_5  and  N1_6 
REMARK    4  A    between atoms: N1_6  and  C5_8 
REMARK    5  A    between atoms: C5_8  and  C6_9 
REMARK    6  A    between atoms: C6_9  and  C7_10 
ROOT
HETATM    1  N1  UNL     1      18.625  -1.557  -4.325  1.00  0.00    -0.400 N 
ATOM      2  H1  UNL     1      17.831  -1.264  -4.894  1.00  0.00     0.158 HD
ENDROOT
BRANCH   1   3
HETATM    3  C4  UNL     1      19.865  -1.742  -4.940  1.00  0.00     0.086 C 
BRANCH   3   4
HETATM    4  C2  UNL     1      21.098  -1.781  -4.111  1.00  0.00     0.154 C 
HETATM    5  C3  UNL     1      21.517  -3.216  -3.850  1.00  0.00     0.045 C 
BRANCH   4   6
HETATM    6  O1  UNL     1      22.196  -1.206  -4.761  1.00  0.00    -0.386 OA
HETATM    7  C1  UNL     1      23.387  -1.839  -4.450  1.00  0.00     0.202 C 
ENDBRANCH   4   6
ENDBRANCH   3   4
ENDBRANCH   1   3
BRANCH   1   8
HETATM    8  C5  UNL     1      18.438  -1.760  -2.949  1.00  0.00     0.119 C 
BRANCH   8   9
HETATM    9  C6  UNL     1      17.909  -3.205  -2.790  1.00  0.00     0.024 C 
BRANCH   9  10
HETATM   10  C7  UNL     1      16.871  -3.271  -1.717  1.00  0.00    -0.009 A 
HETATM   11  C8  UNL     1      16.599  -4.629  -1.093  1.00  0.00     0.009 A 
HETATM   12  C9  UNL     1      15.615  -3.973  -2.002  1.00  0.00    -0.014 A 
HETATM   13  C10 UNL     1      15.340  -4.551  -3.380  1.00  0.00     0.010 C 
ENDBRANCH   9  10
ENDBRANCH   8   9
ENDBRANCH   1   8
TORSDOF 6
ENDMDL
