MODEL 1
REMARK VINA RESULT: -5.615324291      0.000      0.000
REMARK  7 active torsions:
REMARK  status: ('A' for Active; 'I' for Inactive)
REMARK    1  A    between atoms: C2_2  and  C3_3 
REMARK    2  A    between atoms: C3_3  and  C4_4 
REMARK    3  A    between atoms: C4_4  and  O1_5 
REMARK    4  A    between atoms: O1_5  and  C5_6 
REMARK    5  A    between atoms: C5_6  and  C6_7 
REMARK    6  A    between atoms: C6_7  and  N1_8 
REMARK    7  A    between atoms: N1_8  and  C7_11 
ROOT
HETATM    1  C5  UNL     1      19.646  -2.850  -4.416  1.00  0.00     0.195 C 
ENDROOT
BRANCH   1   2
HETATM    2  O1  UNL     1      18.587  -3.357  -3.730  1.00  0.00    -0.389 OA
BRANCH   2   3
HETATM    3  C4  UNL     1      18.070  -2.506  -2.766  1.00  0.00     0.177 C 
BRANCH   3   4
HETATM    4  C3  UNL     1      16.560  -2.740  -2.611  1.00  0.00    -0.019 A 
HETATM    5  C10 UNL     1      15.732  -1.612  -3.168  1.00  0.00     0.012 A 
HETATM    6  C11 UNL     1      15.729  -2.959  -3.787  1.00  0.00     0.012 A 
BRANCH   4   7
HETATM    7  C2  UNL     1      16.200  -3.377  -1.319  1.00  0.00     0.007 C 
HETATM    8  C1  UNL     1      16.718  -4.751  -1.083  1.00  0.00     0.006 C 
ENDBRANCH   4   7
ENDBRANCH   3   4
ENDBRANCH   2   3
ENDBRANCH   1   2
BRANCH   1   9
HETATM    9  C6  UNL     1      20.572  -2.106  -3.492  1.00  0.00     0.258 C 
BRANCH   9  10
HETATM   10  N1  UNL     1      21.707  -2.968  -3.168  1.00  0.00    -0.069 N 
ATOM     11  H12 UNL     1      21.659  -3.340  -2.219  1.00  0.00     0.277 HD
ATOM     12  H11 UNL     1      21.679  -3.858  -3.667  1.00  0.00     0.277 HD
BRANCH  10  13
HETATM   13  C7  UNL     1      22.912  -2.239  -3.412  1.00  0.00     0.186 A 
HETATM   14  C8  UNL     1      23.032  -1.422  -4.622  1.00  0.00     0.035 A 
HETATM   15  C9  UNL     1      23.814  -2.707  -4.516  1.00  0.00     0.035 A 
ENDBRANCH  10  13
ENDBRANCH   9  10
ENDBRANCH   1   9
TORSDOF 7
ENDMDL
MODEL 2
REMARK VINA RESULT: -5.604315820      0.625      1.898
REMARK  7 active torsions:
REMARK  status: ('A' for Active; 'I' for Inactive)
REMARK    1  A    between atoms: C2_2  and  C3_3 
REMARK    2  A    between atoms: C3_3  and  C4_4 
REMARK    3  A    between atoms: C4_4  and  O1_5 
REMARK    4  A    between atoms: O1_5  and  C5_6 
REMARK    5  A    between atoms: C5_6  and  C6_7 
REMARK    6  A    between atoms: C6_7  and  N1_8 
REMARK    7  A    between atoms: N1_8  and  C7_11 
ROOT
HETATM    1  C5  UNL     1      19.614  -2.879  -4.370  1.00  0.00     0.195 C 
ENDROOT
BRANCH   1   2
HETATM    2  O1  UNL     1      18.364  -3.308  -4.047  1.00  0.00    -0.389 OA
BRANCH   2   3
HETATM    3  C4  UNL     1      18.144  -3.449  -2.686  1.00  0.00     0.177 C 
BRANCH   3   4
HETATM    4  C3  UNL     1      16.636  -3.465  -2.395  1.00  0.00    -0.019 A 
HETATM    5  C10 UNL     1      16.167  -4.768  -1.802  1.00  0.00     0.012 A 
HETATM    6  C11 UNL     1      16.155  -3.507  -1.020  1.00  0.00     0.012 A 
BRANCH   4   7
HETATM    7  C2  UNL     1      15.835  -2.778  -3.440  1.00  0.00     0.007 C 
HETATM    8  C1  UNL     1      15.652  -1.310  -3.286  1.00  0.00     0.006 C 
ENDBRANCH   4   7
ENDBRANCH   3   4
ENDBRANCH   2   3
ENDBRANCH   1   2
BRANCH   1   9
HETATM    9  C6  UNL     1      20.581  -3.163  -3.252  1.00  0.00     0.258 C 
BRANCH   9  10
HETATM   10  N1  UNL     1      21.876  -3.519  -3.828  1.00  0.00    -0.069 N 
ATOM     11  H12 UNL     1      22.221  -4.418  -3.491  1.00  0.00     0.277 HD
ATOM     12  H11 UNL     1      21.813  -3.756  -4.818  1.00  0.00     0.277 HD
BRANCH  10  13
HETATM   13  C7  UNL     1      22.791  -2.450  -3.575  1.00  0.00     0.186 A 
HETATM   14  C8  UNL     1      23.065  -1.467  -4.627  1.00  0.00     0.035 A 
HETATM   15  C9  UNL     1      24.123  -2.478  -4.264  1.00  0.00     0.035 A 
ENDBRANCH  10  13
ENDBRANCH   9  10
ENDBRANCH   1   9
TORSDOF 7
ENDMDL
MODEL 3
REMARK VINA RESULT: -5.475729235      7.462      9.179
REMARK  7 active torsions:
REMARK  status: ('A' for Active; 'I' for Inactive)
REMARK    1  A    between atoms: C2_2  and  C3_3 
REMARK    2  A    between atoms: C3_3  and  C4_4 
REMARK    3  A    between atoms: C4_4  and  O1_5 
REMARK    4  A    between atoms: O1_5  and  C5_6 
REMARK    5  A    between atoms: C5_6  and  C6_7 
REMARK    6  A    between atoms: C6_7  and  N1_8 
REMARK    7  A    between atoms: N1_8  and  C7_11 
ROOT
HETATM    1  C5  UNL     1      13.884  -8.722  -2.175  1.00  0.00     0.195 C 
ENDROOT
BRANCH   1   2
HETATM    2  O1  UNL     1      13.831  -9.586  -1.125  1.00  0.00    -0.389 OA
BRANCH   2   3
HETATM    3  C4  UNL     1      14.053  -8.998   0.110  1.00  0.00     0.177 C 
BRANCH   3   4
HETATM    4  C3  UNL     1      14.853  -9.951   1.011  1.00  0.00    -0.019 A 
HETATM    5  C10 UNL     1      14.883  -9.509   2.450  1.00  0.00     0.012 A 
HETATM    6  C11 UNL     1      14.172 -10.741   2.029  1.00  0.00     0.012 A 
BRANCH   4   7
HETATM    7  C2  UNL     1      16.076 -10.481   0.356  1.00  0.00     0.007 C 
HETATM    8  C1  UNL     1      16.135 -11.951   0.138  1.00  0.00     0.006 C 
ENDBRANCH   4   7
ENDBRANCH   3   4
ENDBRANCH   2   3
ENDBRANCH   1   2
BRANCH   1   9
HETATM    9  C6  UNL     1      14.707  -7.511  -1.826  1.00  0.00     0.258 C 
BRANCH   9  10
HETATM   10  N1  UNL     1      14.101  -6.335  -2.449  1.00  0.00    -0.069 N 
ATOM     11  H12 UNL     1      13.645  -5.723  -1.771  1.00  0.00     0.277 HD
ATOM     12  H11 UNL     1      14.795  -5.671  -2.792  1.00  0.00     0.277 HD
BRANCH  10  13
HETATM   13  C7  UNL     1      13.210  -6.777  -3.476  1.00  0.00     0.186 A 
HETATM   14  C8  UNL     1      13.123  -6.029  -4.732  1.00  0.00     0.035 A 
HETATM   15  C9  UNL     1      11.982  -5.960  -3.750  1.00  0.00     0.035 A 
ENDBRANCH  10  13
ENDBRANCH   9  10
ENDBRANCH   1   9
TORSDOF 7
ENDMDL
MODEL 4
REMARK VINA RESULT: -5.444629351      6.446      8.833
REMARK  7 active torsions:
REMARK  status: ('A' for Active; 'I' for Inactive)
REMARK    1  A    between atoms: C2_2  and  C3_3 
REMARK    2  A    between atoms: C3_3  and  C4_4 
REMARK    3  A    between atoms: C4_4  and  O1_5 
REMARK    4  A    between atoms: O1_5  and  C5_6 
REMARK    5  A    between atoms: C5_6  and  C6_7 
REMARK    6  A    between atoms: C6_7  and  N1_8 
REMARK    7  A    between atoms: N1_8  and  C7_11 
ROOT
HETATM    1  C5  UNL     1      13.671  -9.496  -1.584  1.00  0.00     0.195 C 
ENDROOT
BRANCH   1   2
HETATM    2  O1  UNL     1      13.914  -8.563  -2.544  1.00  0.00    -0.389 OA
BRANCH   2   3
HETATM    3  C4  UNL     1      14.645  -7.470  -2.106  1.00  0.00     0.177 C 
BRANCH   3   4
HETATM    4  C3  UNL     1      14.104  -6.184  -2.748  1.00  0.00    -0.019 A 
HETATM    5  C10 UNL     1      14.965  -4.981  -2.465  1.00  0.00     0.012 A 
HETATM    6  C11 UNL     1      14.836  -5.542  -3.832  1.00  0.00     0.012 A 
BRANCH   4   7
HETATM    7  C2  UNL     1      12.623  -6.084  -2.692  1.00  0.00     0.007 C 
HETATM    8  C1  UNL     1      11.909  -5.982  -3.992  1.00  0.00     0.006 C 
ENDBRANCH   4   7
ENDBRANCH   3   4
ENDBRANCH   2   3
ENDBRANCH   1   2
BRANCH   1   9
HETATM    9  C6  UNL     1      14.310  -9.097  -0.281  1.00  0.00     0.258 C 
BRANCH   9  10
HETATM   10  N1  UNL     1      14.112 -10.172   0.690  1.00  0.00    -0.069 N 
ATOM     11  H12 UNL     1      13.565  -9.875   1.498  1.00  0.00     0.277 HD
ATOM     12  H11 UNL     1      13.477 -10.895   0.350  1.00  0.00     0.277 HD
BRANCH  10  13
HETATM   13  C7  UNL     1      15.392 -10.693   1.054  1.00  0.00     0.186 A 
HETATM   14  C8  UNL     1      15.996 -11.759   0.251  1.00  0.00     0.035 A 
HETATM   15  C9  UNL     1      15.459 -12.080   1.622  1.00  0.00     0.035 A 
ENDBRANCH  10  13
ENDBRANCH   9  10
ENDBRANCH   1   9
TORSDOF 7
ENDMDL
MODEL 5
REMARK VINA RESULT: -5.431594995      6.374      8.965
REMARK  7 active torsions:
REMARK  status: ('A' for Active; 'I' for Inactive)
REMARK    1  A    between atoms: C2_2  and  C3_3 
REMARK    2  A    between atoms: C3_3  and  C4_4 
REMARK    3  A    between atoms: C4_4  and  O1_5 
REMARK    4  A    between atoms: O1_5  and  C5_6 
REMARK    5  A    between atoms: C5_6  and  C6_7 
REMARK    6  A    between atoms: C6_7  and  N1_8 
REMARK    7  A    between atoms: N1_8  and  C7_11 
ROOT
HETATM    1  C5  UNL     1      13.591  -9.150  -1.038  1.00  0.00     0.195 C 
ENDROOT
BRANCH   1   2
HETATM    2  O1  UNL     1      13.280  -7.926  -1.540  1.00  0.00    -0.389 OA
BRANCH   2   3
HETATM    3  C4  UNL     1      14.011  -7.565  -2.661  1.00  0.00     0.177 C 
BRANCH   3   4
HETATM    4  C3  UNL     1      13.503  -6.226  -3.214  1.00  0.00    -0.019 A 
HETATM    5  C10 UNL     1      12.897  -6.351  -4.587  1.00  0.00     0.012 A 
HETATM    6  C11 UNL     1      12.075  -6.005  -3.401  1.00  0.00     0.012 A 
BRANCH   4   7
HETATM    7  C2  UNL     1      14.392  -5.084  -2.880  1.00  0.00     0.007 C 
HETATM    8  C1  UNL     1      15.551  -5.374  -1.994  1.00  0.00     0.006 C 
ENDBRANCH   4   7
ENDBRANCH   3   4
ENDBRANCH   2   3
ENDBRANCH   1   2
BRANCH   1   9
HETATM    9  C6  UNL     1      14.337  -9.018   0.263  1.00  0.00     0.258 C 
BRANCH   9  10
HETATM   10  N1  UNL     1      14.057 -10.193   1.088  1.00  0.00    -0.069 N 
ATOM     11  H12 UNL     1      13.495  -9.970   1.910  1.00  0.00     0.277 HD
ATOM     12  H11 UNL     1      13.404 -10.838   0.643  1.00  0.00     0.277 HD
BRANCH  10  13
HETATM   13  C7  UNL     1      15.300 -10.814   1.424  1.00  0.00     0.186 A 
HETATM   14  C8  UNL     1      15.900 -11.781   0.501  1.00  0.00     0.035 A 
HETATM   15  C9  UNL     1      15.290 -12.269   1.790  1.00  0.00     0.035 A 
ENDBRANCH  10  13
ENDBRANCH   9  10
ENDBRANCH   1   9
TORSDOF 7
ENDMDL
