MODEL 1
REMARK VINA RESULT: -5.543874224      0.000      0.000
REMARK  7 active torsions:
REMARK  status: ('A' for Active; 'I' for Inactive)
REMARK    1  A    between atoms: C2_2  and  C4_4 
REMARK    2  A    between atoms: C4_4  and  C5_5 
REMARK    3  A    between atoms: C5_5  and  N1_6 
REMARK    4  A    between atoms: N1_6  and  C7_8 
REMARK    5  A    between atoms: C7_8  and  C8_9 
REMARK    6  A    between atoms: C8_9  and  N2_10 
REMARK    7  A    between atoms: N2_10  and  C9_13 
ROOT
HETATM    1  C7  UNL     1      20.413  -3.215  -3.338  1.00  0.00     0.143 C 
ENDROOT
BRANCH   1   2
HETATM    2  N1  UNL     1      19.500  -2.789  -4.346  1.00  0.00    -0.415 N 
HETATM    3  C6  UNL     1      19.850  -1.630  -5.077  1.00  0.00     0.143 C 
BRANCH   2   4
HETATM    4  C5  UNL     1      18.129  -2.904  -3.990  1.00  0.00     0.117 C 
BRANCH   4   5
HETATM    5  C4  UNL     1      17.926  -3.426  -2.590  1.00  0.00     0.023 C 
BRANCH   5   6
HETATM    6  C2  UNL     1      16.723  -2.653  -2.030  1.00  0.00    -0.021 C 
HETATM    7  C1  UNL     1      16.288  -1.631  -3.040  1.00  0.00     0.009 C 
HETATM    8  C3  UNL     1      15.559  -3.569  -1.728  1.00  0.00     0.009 C 
ENDBRANCH   5   6
ENDBRANCH   4   5
ENDBRANCH   2   4
ENDBRANCH   1   2
BRANCH   1   9
HETATM    9  C8  UNL     1      21.706  -2.412  -3.296  1.00  0.00     0.252 C 
BRANCH   9  10
HETATM   10  N2  UNL     1      22.802  -3.174  -3.837  1.00  0.00    -0.069 N 
ATOM     11  H22 UNL     1      22.841  -4.096  -3.404  1.00  0.00     0.277 HD
ATOM     12  H21 UNL     1      22.606  -3.442  -4.802  1.00  0.00     0.277 HD
BRANCH  10  13
HETATM   13  C9  UNL     1      24.081  -2.525  -3.748  1.00  0.00     0.186 A 
HETATM   14  C10 UNL     1      24.495  -1.387  -4.569  1.00  0.00     0.035 A 
HETATM   15  C11 UNL     1      25.017  -2.745  -4.913  1.00  0.00     0.035 A 
ENDBRANCH  10  13
ENDBRANCH   9  10
ENDBRANCH   1   9
TORSDOF 7
ENDMDL
MODEL 2
REMARK VINA RESULT: -5.542085347      8.308     10.345
REMARK  7 active torsions:
REMARK  status: ('A' for Active; 'I' for Inactive)
REMARK    1  A    between atoms: C2_2  and  C4_4 
REMARK    2  A    between atoms: C4_4  and  C5_5 
REMARK    3  A    between atoms: C5_5  and  N1_6 
REMARK    4  A    between atoms: N1_6  and  C7_8 
REMARK    5  A    between atoms: C7_8  and  C8_9 
REMARK    6  A    between atoms: C8_9  and  N2_10 
REMARK    7  A    between atoms: N2_10  and  C9_13 
ROOT
HETATM    1  C7  UNL     1      14.960  -8.871  -1.411  1.00  0.00     0.143 C 
ENDROOT
BRANCH   1   2
HETATM    2  N1  UNL     1      15.212  -8.975  -0.012  1.00  0.00    -0.415 N 
HETATM    3  C6  UNL     1      16.566  -8.935   0.397  1.00  0.00     0.143 C 
BRANCH   2   4
HETATM    4  C5  UNL     1      14.387  -9.908   0.672  1.00  0.00     0.117 C 
BRANCH   4   5
HETATM    5  C4  UNL     1      14.743 -10.049   2.130  1.00  0.00     0.023 C 
BRANCH   5   6
HETATM    6  C2  UNL     1      14.666 -11.553   2.431  1.00  0.00    -0.021 C 
HETATM    7  C1  UNL     1      15.435 -12.300   1.381  1.00  0.00     0.009 C 
HETATM    8  C3  UNL     1      15.244 -11.883   3.789  1.00  0.00     0.009 C 
ENDBRANCH   5   6
ENDBRANCH   4   5
ENDBRANCH   2   4
ENDBRANCH   1   2
BRANCH   1   9
HETATM    9  C8  UNL     1      14.604  -7.466  -1.874  1.00  0.00     0.252 C 
BRANCH   9  10
HETATM   10  N2  UNL     1      13.530  -7.497  -2.833  1.00  0.00    -0.069 N 
ATOM     11  H22 UNL     1      13.800  -8.044  -3.650  1.00  0.00     0.277 HD
ATOM     12  H21 UNL     1      12.760  -8.069  -2.485  1.00  0.00     0.277 HD
BRANCH  10  13
HETATM   13  C9  UNL     1      13.051  -6.202  -3.233  1.00  0.00     0.186 A 
HETATM   14  C10 UNL     1      11.753  -5.953  -3.859  1.00  0.00     0.035 A 
HETATM   15  C11 UNL     1      12.974  -5.956  -4.721  1.00  0.00     0.035 A 
ENDBRANCH  10  13
ENDBRANCH   9  10
ENDBRANCH   1   9
TORSDOF 7
ENDMDL
MODEL 3
REMARK VINA RESULT: -5.520460036      1.293      2.054
REMARK  7 active torsions:
REMARK  status: ('A' for Active; 'I' for Inactive)
REMARK    1  A    between atoms: C2_2  and  C4_4 
REMARK    2  A    between atoms: C4_4  and  C5_5 
REMARK    3  A    between atoms: C5_5  and  N1_6 
REMARK    4  A    between atoms: N1_6  and  C7_8 
REMARK    5  A    between atoms: C7_8  and  C8_9 
REMARK    6  A    between atoms: C8_9  and  N2_10 
REMARK    7  A    between atoms: N2_10  and  C9_13 
ROOT
HETATM    1  C7  UNL     1      19.169  -2.959  -4.246  1.00  0.00     0.143 C 
ENDROOT
BRANCH   1   2
HETATM    2  N1  UNL     1      17.943  -2.298  -3.946  1.00  0.00    -0.415 N 
HETATM    3  C6  UNL     1      18.012  -1.195  -3.062  1.00  0.00     0.143 C 
BRANCH   2   4
HETATM    4  C5  UNL     1      16.830  -3.162  -3.768  1.00  0.00     0.117 C 
BRANCH   4   5
HETATM    5  C4  UNL     1      15.796  -2.604  -2.822  1.00  0.00     0.023 C 
BRANCH   5   6
HETATM    6  C2  UNL     1      15.465  -3.745  -1.850  1.00  0.00    -0.021 C 
HETATM    7  C1  UNL     1      14.715  -4.814  -2.591  1.00  0.00     0.009 C 
HETATM    8  C3  UNL     1      16.713  -4.350  -1.249  1.00  0.00     0.009 C 
ENDBRANCH   5   6
ENDBRANCH   4   5
ENDBRANCH   2   4
ENDBRANCH   1   2
BRANCH   1   9
HETATM    9  C8  UNL     1      20.011  -3.286  -3.022  1.00  0.00     0.252 C 
BRANCH   9  10
HETATM   10  N2  UNL     1      21.401  -3.422  -3.375  1.00  0.00    -0.069 N 
ATOM     11  H22 UNL     1      21.855  -4.107  -2.771  1.00  0.00     0.277 HD
ATOM     12  H21 UNL     1      21.493  -3.894  -4.275  1.00  0.00     0.277 HD
BRANCH  10  13
HETATM   13  C9  UNL     1      22.139  -2.189  -3.378  1.00  0.00     0.186 A 
HETATM   14  C10 UNL     1      22.587  -1.490  -4.582  1.00  0.00     0.035 A 
HETATM   15  C11 UNL     1      23.585  -2.285  -3.803  1.00  0.00     0.035 A 
ENDBRANCH  10  13
ENDBRANCH   9  10
ENDBRANCH   1   9
TORSDOF 7
ENDMDL
MODEL 4
REMARK VINA RESULT: -5.497336357      7.013      9.835
REMARK  7 active torsions:
REMARK  status: ('A' for Active; 'I' for Inactive)
REMARK    1  A    between atoms: C2_2  and  C4_4 
REMARK    2  A    between atoms: C4_4  and  C5_5 
REMARK    3  A    between atoms: C5_5  and  N1_6 
REMARK    4  A    between atoms: N1_6  and  C7_8 
REMARK    5  A    between atoms: C7_8  and  C8_9 
REMARK    6  A    between atoms: C8_9  and  N2_10 
REMARK    7  A    between atoms: N2_10  and  C9_13 
ROOT
HETATM    1  C7  UNL     1      13.441  -8.242  -0.965  1.00  0.00     0.143 C 
ENDROOT
BRANCH   1   2
HETATM    2  N1  UNL     1      14.363  -8.744  -0.001  1.00  0.00    -0.415 N 
HETATM    3  C6  UNL     1      15.736  -8.670  -0.332  1.00  0.00     0.143 C 
BRANCH   2   4
HETATM    4  C5  UNL     1      13.948  -9.937   0.650  1.00  0.00     0.117 C 
BRANCH   4   5
HETATM    5  C4  UNL     1      14.514 -10.074   2.041  1.00  0.00     0.023 C 
BRANCH   5   6
HETATM    6  C2  UNL     1      14.711 -11.581   2.262  1.00  0.00    -0.021 C 
HETATM    7  C1  UNL     1      15.648 -12.108   1.214  1.00  0.00     0.009 C 
HETATM    8  C3  UNL     1      15.288 -11.877   3.628  1.00  0.00     0.009 C 
ENDBRANCH   5   6
ENDBRANCH   4   5
ENDBRANCH   2   4
ENDBRANCH   1   2
BRANCH   1   9
HETATM    9  C8  UNL     1      13.917  -8.375  -2.404  1.00  0.00     0.252 C 
BRANCH   9  10
HETATM   10  N2  UNL     1      13.736  -7.140  -3.122  1.00  0.00    -0.069 N 
ATOM     11  H22 UNL     1      13.481  -7.326  -4.091  1.00  0.00     0.277 HD
ATOM     12  H21 UNL     1      12.890  -6.666  -2.806  1.00  0.00     0.277 HD
BRANCH  10  13
HETATM   13  C9  UNL     1      14.861  -6.247  -3.064  1.00  0.00     0.186 A 
HETATM   14  C10 UNL     1      14.801  -4.863  -2.595  1.00  0.00     0.035 A 
HETATM   15  C11 UNL     1      14.862  -5.117  -4.067  1.00  0.00     0.035 A 
ENDBRANCH  10  13
ENDBRANCH   9  10
ENDBRANCH   1   9
TORSDOF 7
ENDMDL
MODEL 5
REMARK VINA RESULT: -5.473970339      7.671     10.228
REMARK  7 active torsions:
REMARK  status: ('A' for Active; 'I' for Inactive)
REMARK    1  A    between atoms: C2_2  and  C4_4 
REMARK    2  A    between atoms: C4_4  and  C5_5 
REMARK    3  A    between atoms: C5_5  and  N1_6 
REMARK    4  A    between atoms: N1_6  and  C7_8 
REMARK    5  A    between atoms: C7_8  and  C8_9 
REMARK    6  A    between atoms: C8_9  and  N2_10 
REMARK    7  A    between atoms: N2_10  and  C9_13 
ROOT
HETATM    1  C7  UNL     1      15.722  -9.242  -0.014  1.00  0.00     0.143 C 
ENDROOT
BRANCH   1   2
HETATM    2  N1  UNL     1      14.520  -8.609  -0.445  1.00  0.00    -0.415 N 
HETATM    3  C6  UNL     1      13.382  -9.436  -0.598  1.00  0.00     0.143 C 
BRANCH   2   4
HETATM    4  C5  UNL     1      14.698  -7.613  -1.443  1.00  0.00     0.117 C 
BRANCH   4   5
HETATM    5  C4  UNL     1      13.643  -7.662  -2.518  1.00  0.00     0.023 C 
BRANCH   5   6
HETATM    6  C2  UNL     1      13.132  -6.221  -2.663  1.00  0.00    -0.021 C 
HETATM    7  C1  UNL     1      14.309  -5.300  -2.804  1.00  0.00     0.009 C 
HETATM    8  C3  UNL     1      12.239  -6.062  -3.873  1.00  0.00     0.009 C 
ENDBRANCH   5   6
ENDBRANCH   4   5
ENDBRANCH   2   4
ENDBRANCH   1   2
BRANCH   1   9
HETATM    9  C8  UNL     1      15.738 -10.749  -0.227  1.00  0.00     0.252 C 
BRANCH   9  10
HETATM   10  N2  UNL     1      16.239 -11.428   0.940  1.00  0.00    -0.069 N 
ATOM     11  H22 UNL     1      16.987 -12.070   0.683  1.00  0.00     0.277 HD
ATOM     12  H21 UNL     1      16.760 -10.779   1.532  1.00  0.00     0.277 HD
BRANCH  10  13
HETATM   13  C9  UNL     1      15.235 -12.111   1.709  1.00  0.00     0.186 A 
HETATM   14  C10 UNL     1      14.338 -11.465   2.667  1.00  0.00     0.035 A 
HETATM   15  C11 UNL     1      15.507 -12.237   3.189  1.00  0.00     0.035 A 
ENDBRANCH  10  13
ENDBRANCH   9  10
ENDBRANCH   1   9
TORSDOF 7
ENDMDL
