MODEL 1
REMARK VINA RESULT: -6.204402125      0.000      0.000
REMARK  4 active torsions:
REMARK  status: ('A' for Active; 'I' for Inactive)
REMARK    1  A    between atoms: C1_2  and  C2_4 
REMARK    2  A    between atoms: C3_5  and  C4_6 
REMARK    3  A    between atoms: C5_7  and  C6_8 
REMARK    4  A    between atoms: C6_8  and  C7_9 
REMARK       I    between atoms: C7_9  and  N1_11 
ROOT
HETATM    1  C6  UNL     1      15.125  -6.733  -1.549  1.00  0.00     0.130 C 
ENDROOT
BRANCH   1   2
HETATM    2  C5  UNL     1      15.317  -8.067  -0.911  1.00  0.00    -0.018 C 
HETATM    3  C4  UNL     1      14.407  -8.512  -0.066  1.00  0.00    -0.003 C 
BRANCH   3   4
HETATM    4  C3  UNL     1      14.559  -9.811   0.579  1.00  0.00     0.007 C 
HETATM    5  C2  UNL     1      14.571  -9.949   1.893  1.00  0.00     0.084 C 
BRANCH   5   6
HETATM    6  C1  UNL     1      14.724 -11.258   2.509  1.00  0.00     0.198 C 
HETATM    7  O1  UNL     1      14.195 -11.530   3.619  1.00  0.00    -0.645 OA
HETATM    8  O2  UNL     1      15.473 -12.217   1.845  1.00  0.00    -0.645 OA
ENDBRANCH   5   6
ENDBRANCH   3   4
ENDBRANCH   1   2
BRANCH   1   9
HETATM    9  C7  UNL     1      16.354  -5.909  -1.470  1.00  0.00     0.223 C 
HETATM   10  O3  UNL     1      17.209  -6.221  -0.624  1.00  0.00    -0.273 OA
HETATM   11  N1  UNL     1      16.497  -4.817  -2.352  1.00  0.00    -0.352 N 
HETATM   12  C8  UNL     1      15.536  -4.412  -3.351  1.00  0.00     0.126 C 
HETATM   13  C11 UNL     1      17.659  -3.950  -2.356  1.00  0.00     0.126 C 
HETATM   14  C9  UNL     1      15.915  -2.937  -3.536  1.00  0.00     0.021 C 
HETATM   15  C10 UNL     1      17.424  -3.055  -3.580  1.00  0.00     0.021 C 
ENDBRANCH   1   9
TORSDOF 4
ENDMDL
MODEL 2
REMARK VINA RESULT: -6.176167641      6.389      9.222
REMARK  4 active torsions:
REMARK  status: ('A' for Active; 'I' for Inactive)
REMARK    1  A    between atoms: C1_2  and  C2_4 
REMARK    2  A    between atoms: C3_5  and  C4_6 
REMARK    3  A    between atoms: C5_7  and  C6_8 
REMARK    4  A    between atoms: C6_8  and  C7_9 
REMARK       I    between atoms: C7_9  and  N1_11 
ROOT
HETATM    1  C6  UNL     1      20.574  -5.064  -5.775  1.00  0.00     0.130 C 
ENDROOT
BRANCH   1   2
HETATM    2  C5  UNL     1      20.906  -6.139  -6.752  1.00  0.00    -0.018 C 
HETATM    3  C4  UNL     1      20.475  -6.033  -7.994  1.00  0.00    -0.003 C 
BRANCH   3   4
HETATM    4  C3  UNL     1      20.780  -7.064  -8.980  1.00  0.00     0.007 C 
HETATM    5  C2  UNL     1      21.746  -7.948  -8.800  1.00  0.00     0.084 C 
BRANCH   5   6
HETATM    6  C1  UNL     1      22.028  -8.965  -9.801  1.00  0.00     0.198 C 
HETATM    7  O1  UNL     1      22.381  -8.659 -10.970  1.00  0.00    -0.645 OA
HETATM    8  O2  UNL     1      21.900 -10.298  -9.442  1.00  0.00    -0.645 OA
ENDBRANCH   5   6
ENDBRANCH   3   4
ENDBRANCH   1   2
BRANCH   1   9
HETATM    9  C7  UNL     1      19.514  -5.493  -4.831  1.00  0.00     0.223 C 
HETATM   10  O3  UNL     1      19.282  -6.710  -4.733  1.00  0.00    -0.273 OA
HETATM   11  N1  UNL     1      18.822  -4.509  -4.094  1.00  0.00    -0.352 N 
HETATM   12  C8  UNL     1      19.050  -3.086  -4.170  1.00  0.00     0.126 C 
HETATM   13  C11 UNL     1      17.769  -4.824  -3.147  1.00  0.00     0.126 C 
HETATM   14  C9  UNL     1      17.702  -2.548  -3.673  1.00  0.00     0.021 C 
HETATM   15  C10 UNL     1      17.469  -3.469  -2.493  1.00  0.00     0.021 C 
ENDBRANCH   1   9
TORSDOF 4
ENDMDL
MODEL 3
REMARK VINA RESULT: -6.149777292      6.069      9.007
REMARK  4 active torsions:
REMARK  status: ('A' for Active; 'I' for Inactive)
REMARK    1  A    between atoms: C1_2  and  C2_4 
REMARK    2  A    between atoms: C3_5  and  C4_6 
REMARK    3  A    between atoms: C5_7  and  C6_8 
REMARK    4  A    between atoms: C6_8  and  C7_9 
REMARK       I    between atoms: C7_9  and  N1_11 
ROOT
HETATM    1  C6  UNL     1      19.358  -5.379  -5.117  1.00  0.00     0.130 C 
ENDROOT
BRANCH   1   2
HETATM    2  C5  UNL     1      20.365  -6.221  -5.823  1.00  0.00    -0.018 C 
HETATM    3  C4  UNL     1      20.355  -6.263  -7.142  1.00  0.00    -0.003 C 
BRANCH   3   4
HETATM    4  C3  UNL     1      21.323  -7.075  -7.869  1.00  0.00     0.007 C 
HETATM    5  C2  UNL     1      21.061  -7.587  -9.060  1.00  0.00     0.084 C 
BRANCH   5   6
HETATM    6  C1  UNL     1      22.047  -8.393  -9.763  1.00  0.00     0.198 C 
HETATM    7  O1  UNL     1      22.968  -7.865 -10.440  1.00  0.00    -0.645 OA
HETATM    8  O2  UNL     1      21.955  -9.774  -9.676  1.00  0.00    -0.645 OA
ENDBRANCH   5   6
ENDBRANCH   3   4
ENDBRANCH   1   2
BRANCH   1   9
HETATM    9  C7  UNL     1      18.465  -6.197  -4.262  1.00  0.00     0.223 C 
HETATM   10  O3  UNL     1      18.184  -7.345  -4.648  1.00  0.00    -0.273 OA
HETATM   11  N1  UNL     1      17.978  -5.642  -3.060  1.00  0.00    -0.352 N 
HETATM   12  C8  UNL     1      18.272  -4.318  -2.566  1.00  0.00     0.126 C 
HETATM   13  C11 UNL     1      17.100  -6.359  -2.156  1.00  0.00     0.126 C 
HETATM   14  C9  UNL     1      17.071  -4.080  -1.642  1.00  0.00     0.021 C 
HETATM   15  C10 UNL     1      17.004  -5.423  -0.944  1.00  0.00     0.021 C 
ENDBRANCH   1   9
TORSDOF 4
ENDMDL
MODEL 4
REMARK VINA RESULT: -6.120949087      1.630      1.839
REMARK  4 active torsions:
REMARK  status: ('A' for Active; 'I' for Inactive)
REMARK    1  A    between atoms: C1_2  and  C2_4 
REMARK    2  A    between atoms: C3_5  and  C4_6 
REMARK    3  A    between atoms: C5_7  and  C6_8 
REMARK    4  A    between atoms: C6_8  and  C7_9 
REMARK       I    between atoms: C7_9  and  N1_11 
ROOT
HETATM    1  C6  UNL     1      15.087  -6.914  -1.538  1.00  0.00     0.130 C 
ENDROOT
BRANCH   1   2
HETATM    2  C5  UNL     1      15.280  -8.225  -0.856  1.00  0.00    -0.018 C 
HETATM    3  C4  UNL     1      14.371  -8.640   0.006  1.00  0.00    -0.003 C 
BRANCH   3   4
HETATM    4  C3  UNL     1      14.522  -9.917   0.694  1.00  0.00     0.007 C 
HETATM    5  C2  UNL     1      14.652 -10.000   2.007  1.00  0.00     0.084 C 
BRANCH   5   6
HETATM    6  C1  UNL     1      14.801 -11.287   2.666  1.00  0.00     0.198 C 
HETATM    7  O1  UNL     1      14.167 -11.567   3.717  1.00  0.00    -0.645 OA
HETATM    8  O2  UNL     1      15.667 -12.217   2.112  1.00  0.00    -0.645 OA
ENDBRANCH   5   6
ENDBRANCH   3   4
ENDBRANCH   1   2
BRANCH   1   9
HETATM    9  C7  UNL     1      16.366  -6.175  -1.669  1.00  0.00     0.223 C 
HETATM   10  O3  UNL     1      16.695  -5.416  -0.742  1.00  0.00    -0.273 OA
HETATM   11  N1  UNL     1      17.144  -6.365  -2.830  1.00  0.00    -0.352 N 
HETATM   12  C8  UNL     1      16.808  -7.232  -3.935  1.00  0.00     0.126 C 
HETATM   13  C11 UNL     1      18.407  -5.691  -3.056  1.00  0.00     0.126 C 
HETATM   14  C9  UNL     1      17.628  -6.595  -5.064  1.00  0.00     0.021 C 
HETATM   15  C10 UNL     1      18.934  -6.350  -4.337  1.00  0.00     0.021 C 
ENDBRANCH   1   9
TORSDOF 4
ENDMDL
MODEL 5
REMARK VINA RESULT: -6.098501935      6.423      8.353
REMARK  4 active torsions:
REMARK  status: ('A' for Active; 'I' for Inactive)
REMARK    1  A    between atoms: C1_2  and  C2_4 
REMARK    2  A    between atoms: C3_5  and  C4_6 
REMARK    3  A    between atoms: C5_7  and  C6_8 
REMARK    4  A    between atoms: C6_8  and  C7_9 
REMARK       I    between atoms: C7_9  and  N1_11 
ROOT
HETATM    1  C6  UNL     1      20.904  -2.031  -5.955  1.00  0.00     0.130 C 
ENDROOT
BRANCH   1   2
HETATM    2  C5  UNL     1      19.573  -1.623  -5.423  1.00  0.00    -0.018 C 
HETATM    3  C4  UNL     1      18.981  -2.384  -4.522  1.00  0.00    -0.003 C 
BRANCH   3   4
HETATM    4  C3  UNL     1      17.679  -2.019  -3.976  1.00  0.00     0.007 C 
HETATM    5  C2  UNL     1      17.086  -2.728  -3.031  1.00  0.00     0.084 C 
BRANCH   5   6
HETATM    6  C1  UNL     1      15.787  -2.340  -2.505  1.00  0.00     0.198 C 
HETATM    7  O1  UNL     1      15.267  -1.229  -2.788  1.00  0.00    -0.645 OA
HETATM    8  O2  UNL     1      15.118  -3.227  -1.675  1.00  0.00    -0.645 OA
ENDBRANCH   5   6
ENDBRANCH   3   4
ENDBRANCH   1   2
BRANCH   1   9
HETATM    9  C7  UNL     1      21.175  -3.467  -5.703  1.00  0.00     0.223 C 
HETATM   10  O3  UNL     1      21.739  -3.773  -4.638  1.00  0.00    -0.273 OA
HETATM   11  N1  UNL     1      20.784  -4.413  -6.674  1.00  0.00    -0.352 N 
HETATM   12  C8  UNL     1      20.129  -4.112  -7.925  1.00  0.00     0.126 C 
HETATM   13  C11 UNL     1      21.004  -5.838  -6.524  1.00  0.00     0.126 C 
HETATM   14  C9  UNL     1      20.501  -5.348  -8.753  1.00  0.00     0.021 C 
HETATM   15  C10 UNL     1      20.262  -6.436  -7.726  1.00  0.00     0.021 C 
ENDBRANCH   1   9
TORSDOF 4
ENDMDL
