MODEL 1
REMARK VINA RESULT: -6.229273326      0.000      0.000
REMARK  5 active torsions:
REMARK  status: ('A' for Active; 'I' for Inactive)
REMARK    1  A    between atoms: C1_2  and  C2_4 
REMARK    2  A    between atoms: C2_4  and  C3_5 
REMARK    3  A    between atoms: C2_4  and  C7_9 
REMARK    4  A    between atoms: C3_5  and  C4_6 
REMARK    5  A    between atoms: C7_9  and  C8_11 
ROOT
HETATM    1  C2  UNL     1      18.797  -3.106  -3.389  1.00  0.00     0.145 C 
ENDROOT
BRANCH   1   2
HETATM    2  C1  UNL     1      20.052  -2.466  -3.912  1.00  0.00     0.242 C 
HETATM    3  N1  UNL     1      20.026  -1.584  -5.012  1.00  0.00    -0.061 NA
HETATM    4  O1  UNL     1      21.133  -2.722  -3.356  1.00  0.00    -0.276 OA
ENDBRANCH   1   2
BRANCH   1   5
HETATM    5  C3  UNL     1      17.581  -2.402  -3.880  1.00  0.00     0.026 C 
BRANCH   5   6
HETATM    6  C4  UNL     1      16.737  -1.853  -2.735  1.00  0.00    -0.013 A 
HETATM    7  C5  UNL     1      15.391  -1.266  -3.104  1.00  0.00     0.005 A 
HETATM    8  C6  UNL     1      15.433  -2.627  -2.531  1.00  0.00     0.005 A 
ENDBRANCH   5   6
ENDBRANCH   1   5
BRANCH   1   9
HETATM    9  C7  UNL     1      18.773  -4.534  -3.738  1.00  0.00     0.143 C 
HETATM   10  O2  UNL     1      19.219  -4.793  -4.882  1.00  0.00    -0.297 OA
BRANCH   9  11
HETATM   11  C8  UNL     1      18.292  -5.599  -2.889  1.00  0.00     0.056 C 
HETATM   12  C9  UNL     1      18.232  -5.403  -1.427  1.00  0.00     0.012 C 
HETATM   13  C10 UNL     1      16.922  -6.046  -0.938  1.00  0.00     0.001 C 
HETATM   14  C11 UNL     1      16.490  -6.893  -2.143  1.00  0.00     0.001 C 
HETATM   15  C12 UNL     1      16.832  -5.928  -3.259  1.00  0.00     0.012 C 
ENDBRANCH   9  11
ENDBRANCH   1   9
TORSDOF 5
ENDMDL
MODEL 2
REMARK VINA RESULT: -6.137140342      4.535      6.993
REMARK  5 active torsions:
REMARK  status: ('A' for Active; 'I' for Inactive)
REMARK    1  A    between atoms: C1_2  and  C2_4 
REMARK    2  A    between atoms: C2_4  and  C3_5 
REMARK    3  A    between atoms: C2_4  and  C7_9 
REMARK    4  A    between atoms: C3_5  and  C4_6 
REMARK    5  A    between atoms: C7_9  and  C8_11 
ROOT
HETATM    1  C2  UNL     1      20.634  -5.958  -7.027  1.00  0.00     0.145 C 
ENDROOT
BRANCH   1   2
HETATM    2  C1  UNL     1      19.641  -6.464  -6.018  1.00  0.00     0.242 C 
HETATM    3  N1  UNL     1      18.311  -6.762  -6.379  1.00  0.00    -0.061 NA
HETATM    4  O1  UNL     1      20.008  -6.622  -4.842  1.00  0.00    -0.276 OA
ENDBRANCH   1   2
BRANCH   1   5
HETATM    5  C3  UNL     1      20.497  -6.667  -8.329  1.00  0.00     0.026 C 
BRANCH   5   6
HETATM    6  C4  UNL     1      21.595  -7.704  -8.533  1.00  0.00    -0.013 A 
HETATM    7  C5  UNL     1      21.290  -8.837  -9.490  1.00  0.00     0.005 A 
HETATM    8  C6  UNL     1      22.137  -7.725  -9.964  1.00  0.00     0.005 A 
ENDBRANCH   5   6
ENDBRANCH   1   5
BRANCH   1   9
HETATM    9  C7  UNL     1      20.498  -4.504  -7.187  1.00  0.00     0.143 C 
HETATM   10  O2  UNL     1      20.296  -4.131  -8.368  1.00  0.00    -0.297 OA
BRANCH   9  11
HETATM   11  C8  UNL     1      20.578  -3.529  -6.124  1.00  0.00     0.056 C 
HETATM   12  C9  UNL     1      21.766  -3.495  -5.246  1.00  0.00     0.012 C 
HETATM   13  C10 UNL     1      22.105  -2.014  -5.003  1.00  0.00     0.001 C 
HETATM   14  C11 UNL     1      20.839  -1.292  -5.487  1.00  0.00     0.001 C 
HETATM   15  C12 UNL     1      20.547  -2.111  -6.727  1.00  0.00     0.012 C 
ENDBRANCH   9  11
ENDBRANCH   1   9
TORSDOF 5
ENDMDL
MODEL 3
REMARK VINA RESULT: -5.978618235      4.739      6.460
REMARK  5 active torsions:
REMARK  status: ('A' for Active; 'I' for Inactive)
REMARK    1  A    between atoms: C1_2  and  C2_4 
REMARK    2  A    between atoms: C2_4  and  C3_5 
REMARK    3  A    between atoms: C2_4  and  C7_9 
REMARK    4  A    between atoms: C3_5  and  C4_6 
REMARK    5  A    between atoms: C7_9  and  C8_11 
ROOT
HETATM    1  C2  UNL     1      20.184  -6.361  -7.762  1.00  0.00     0.145 C 
ENDROOT
BRANCH   1   2
HETATM    2  C1  UNL     1      20.306  -5.012  -8.412  1.00  0.00     0.242 C 
HETATM    3  N1  UNL     1      20.479  -3.839  -7.648  1.00  0.00    -0.061 NA
HETATM    4  O1  UNL     1      20.253  -4.935  -9.651  1.00  0.00    -0.276 OA
ENDBRANCH   1   2
BRANCH   1   5
HETATM    5  C3  UNL     1      21.354  -7.226  -8.078  1.00  0.00     0.026 C 
BRANCH   5   6
HETATM    6  C4  UNL     1      21.186  -7.954  -9.406  1.00  0.00    -0.013 A 
HETATM    7  C5  UNL     1      22.423  -8.089 -10.269  1.00  0.00     0.005 A 
HETATM    8  C6  UNL     1      21.985  -9.257  -9.478  1.00  0.00     0.005 A 
ENDBRANCH   5   6
ENDBRANCH   1   5
BRANCH   1   9
HETATM    9  C7  UNL     1      19.999  -6.211  -6.312  1.00  0.00     0.143 C 
HETATM   10  O2  UNL     1      21.068  -6.179  -5.655  1.00  0.00    -0.297 OA
BRANCH   9  11
HETATM   11  C8  UNL     1      18.728  -6.104  -5.633  1.00  0.00     0.056 C 
HETATM   12  C9  UNL     1      17.702  -7.148  -5.826  1.00  0.00     0.012 C 
HETATM   13  C10 UNL     1      17.052  -7.401  -4.453  1.00  0.00     0.001 C 
HETATM   14  C11 UNL     1      17.527  -6.198  -3.626  1.00  0.00     0.001 C 
HETATM   15  C12 UNL     1      18.961  -6.118  -4.109  1.00  0.00     0.012 C 
ENDBRANCH   9  11
ENDBRANCH   1   9
TORSDOF 5
ENDMDL
MODEL 4
REMARK VINA RESULT: -5.974061917      3.761      5.630
REMARK  5 active torsions:
REMARK  status: ('A' for Active; 'I' for Inactive)
REMARK    1  A    between atoms: C1_2  and  C2_4 
REMARK    2  A    between atoms: C2_4  and  C3_5 
REMARK    3  A    between atoms: C2_4  and  C7_9 
REMARK    4  A    between atoms: C3_5  and  C4_6 
REMARK    5  A    between atoms: C7_9  and  C8_11 
ROOT
HETATM    1  C2  UNL     1      20.166  -4.454  -5.450  1.00  0.00     0.145 C 
ENDROOT
BRANCH   1   2
HETATM    2  C1  UNL     1      19.148  -4.615  -4.356  1.00  0.00     0.242 C 
HETATM    3  N1  UNL     1      19.200  -3.838  -3.180  1.00  0.00    -0.061 NA
HETATM    4  O1  UNL     1      18.242  -5.454  -4.499  1.00  0.00    -0.276 OA
ENDBRANCH   1   2
BRANCH   1   5
HETATM    5  C3  UNL     1      21.396  -3.777  -4.954  1.00  0.00     0.026 C 
BRANCH   5   6
HETATM    6  C4  UNL     1      21.776  -2.578  -5.815  1.00  0.00    -0.013 A 
HETATM    7  C5  UNL     1      20.667  -1.604  -6.152  1.00  0.00     0.005 A 
HETATM    8  C6  UNL     1      21.619  -1.244  -5.083  1.00  0.00     0.005 A 
ENDBRANCH   5   6
ENDBRANCH   1   5
BRANCH   1   9
HETATM    9  C7  UNL     1      20.474  -5.758  -6.054  1.00  0.00     0.143 C 
HETATM   10  O2  UNL     1      21.071  -6.553  -5.289  1.00  0.00    -0.297 OA
BRANCH   9  11
HETATM   11  C8  UNL     1      20.146  -6.158  -7.402  1.00  0.00     0.056 C 
HETATM   12  C9  UNL     1      20.066  -5.143  -8.471  1.00  0.00     0.012 C 
HETATM   13  C10 UNL     1      20.709  -5.757  -9.728  1.00  0.00     0.001 C 
HETATM   14  C11 UNL     1      20.794  -7.247  -9.370  1.00  0.00     0.001 C 
HETATM   15  C12 UNL     1      21.224  -7.130  -7.922  1.00  0.00     0.012 C 
ENDBRANCH   9  11
ENDBRANCH   1   9
TORSDOF 5
ENDMDL
MODEL 5
REMARK VINA RESULT: -5.964112106      2.309      4.750
REMARK  5 active torsions:
REMARK  status: ('A' for Active; 'I' for Inactive)
REMARK    1  A    between atoms: C1_2  and  C2_4 
REMARK    2  A    between atoms: C2_4  and  C3_5 
REMARK    3  A    between atoms: C2_4  and  C7_9 
REMARK    4  A    between atoms: C3_5  and  C4_6 
REMARK    5  A    between atoms: C7_9  and  C8_11 
ROOT
HETATM    1  C2  UNL     1      17.485  -2.852  -3.033  1.00  0.00     0.145 C 
ENDROOT
BRANCH   1   2
HETATM    2  C1  UNL     1      16.049  -2.567  -3.369  1.00  0.00     0.242 C 
HETATM    3  N1  UNL     1      15.334  -1.531  -2.733  1.00  0.00    -0.061 NA
HETATM    4  O1  UNL     1      15.484  -3.263  -4.230  1.00  0.00    -0.276 OA
ENDBRANCH   1   2
BRANCH   1   5
HETATM    5  C3  UNL     1      17.713  -4.305  -2.805  1.00  0.00     0.026 C 
BRANCH   5   6
HETATM    6  C4  UNL     1      17.185  -4.762  -1.450  1.00  0.00    -0.013 A 
HETATM    7  C5  UNL     1      16.619  -6.164  -1.378  1.00  0.00     0.005 A 
HETATM    8  C6  UNL     1      17.982  -5.928  -0.862  1.00  0.00     0.005 A 
ENDBRANCH   5   6
ENDBRANCH   1   5
BRANCH   1   9
HETATM    9  C7  UNL     1      18.367  -2.325  -4.084  1.00  0.00     0.143 C 
HETATM   10  O2  UNL     1      17.966  -1.257  -4.607  1.00  0.00    -0.297 OA
BRANCH   9  11
HETATM   11  C8  UNL     1      19.602  -2.930  -4.527  1.00  0.00     0.056 C 
HETATM   12  C9  UNL     1      20.137  -2.612  -5.866  1.00  0.00     0.012 C 
HETATM   13  C10 UNL     1      21.662  -2.465  -5.719  1.00  0.00     0.001 C 
HETATM   14  C11 UNL     1      21.930  -3.074  -4.336  1.00  0.00     0.001 C 
HETATM   15  C12 UNL     1      20.745  -2.507  -3.583  1.00  0.00     0.012 C 
ENDBRANCH   9  11
ENDBRANCH   1   9
TORSDOF 5
ENDMDL
