MODEL 1
REMARK VINA RESULT: -6.309233730      0.000      0.000
REMARK  5 active torsions:
REMARK  status: ('A' for Active; 'I' for Inactive)
REMARK    1  A    between atoms: C3_3  and  C4_4 
REMARK    2  A    between atoms: C3_3  and  C5_7 
REMARK    3  A    between atoms: C5_7  and  C6_8 
REMARK    4  A    between atoms: C5_7  and  C7_10 
REMARK    5  A    between atoms: C7_10  and  C8_11 
ROOT
HETATM    1  C1  UNL     1      15.637  -1.216  -3.487  1.00  0.00     0.013 C 
HETATM    2  C2  UNL     1      16.192  -2.006  -2.768  1.00  0.00    -0.101 C 
HETATM    3  C3  UNL     1      16.884  -2.996  -1.897  1.00  0.00     0.175 C 
ENDROOT
BRANCH   3   4
HETATM    4  C4  UNL     1      15.876  -3.815  -1.244  1.00  0.00     0.189 C 
HETATM    5  O1  UNL     1      14.671  -3.451  -1.237  1.00  0.00    -0.647 OA
HETATM    6  O2  UNL     1      16.273  -5.007  -0.630  1.00  0.00    -0.647 OA
ENDBRANCH   3   4
BRANCH   3   7
HETATM    7  C5  UNL     1      17.879  -3.749  -2.758  1.00  0.00     0.073 C 
BRANCH   7   8
HETATM    8  C6  UNL     1      17.136  -4.280  -3.904  1.00  0.00     0.237 C 
HETATM    9  O3  UNL     1      17.052  -5.477  -4.066  1.00  0.00    -0.306 OA
ENDBRANCH   7   8
BRANCH   7  10
HETATM   10  C7  UNL     1      19.017  -2.905  -3.200  1.00  0.00     0.018 C 
BRANCH  10  11
HETATM   11  C8  UNL     1      19.346  -2.929  -4.655  1.00  0.00    -0.014 C 
HETATM   12  C9  UNL     1      19.527  -1.602  -5.318  1.00  0.00     0.005 C 
HETATM   13  C10 UNL     1      20.514  -1.915  -6.479  1.00  0.00     0.000 C 
HETATM   14  C11 UNL     1      21.517  -2.754  -5.739  1.00  0.00     0.000 C 
HETATM   15  C12 UNL     1      20.702  -3.627  -4.826  1.00  0.00     0.005 C 
ENDBRANCH  10  11
ENDBRANCH   7  10
ENDBRANCH   3   7
TORSDOF 5
ENDMDL
MODEL 2
REMARK VINA RESULT: -6.275244252      3.115      4.798
REMARK  5 active torsions:
REMARK  status: ('A' for Active; 'I' for Inactive)
REMARK    1  A    between atoms: C3_3  and  C4_4 
REMARK    2  A    between atoms: C3_3  and  C5_7 
REMARK    3  A    between atoms: C5_7  and  C6_8 
REMARK    4  A    between atoms: C5_7  and  C7_10 
REMARK    5  A    between atoms: C7_10  and  C8_11 
ROOT
HETATM    1  C1  UNL     1      18.225  -5.925  -4.778  1.00  0.00     0.013 C 
HETATM    2  C2  UNL     1      17.867  -6.244  -3.675  1.00  0.00    -0.101 C 
HETATM    3  C3  UNL     1      17.406  -6.626  -2.312  1.00  0.00     0.175 C 
ENDROOT
BRANCH   3   4
HETATM    4  C4  UNL     1      18.166  -5.858  -1.338  1.00  0.00     0.189 C 
HETATM    5  O1  UNL     1      18.332  -6.302  -0.172  1.00  0.00    -0.647 OA
HETATM    6  O2  UNL     1      18.703  -4.626  -1.725  1.00  0.00    -0.647 OA
ENDBRANCH   3   4
BRANCH   3   7
HETATM    7  C5  UNL     1      15.902  -6.433  -2.264  1.00  0.00     0.073 C 
BRANCH   7   8
HETATM    8  C6  UNL     1      15.319  -7.722  -1.881  1.00  0.00     0.237 C 
HETATM    9  O3  UNL     1      15.232  -8.020  -0.711  1.00  0.00    -0.306 OA
ENDBRANCH   7   8
BRANCH   7  10
HETATM   10  C7  UNL     1      15.487  -5.356  -1.332  1.00  0.00     0.018 C 
BRANCH  10  11
HETATM   11  C8  UNL     1      14.985  -4.092  -1.946  1.00  0.00    -0.014 C 
HETATM   12  C9  UNL     1      15.851  -2.885  -1.785  1.00  0.00     0.005 C 
HETATM   13  C10 UNL     1      15.509  -2.031  -3.039  1.00  0.00     0.000 C 
HETATM   14  C11 UNL     1      15.554  -3.101  -4.093  1.00  0.00     0.000 C 
HETATM   15  C12 UNL     1      14.901  -4.300  -3.464  1.00  0.00     0.005 C 
ENDBRANCH  10  11
ENDBRANCH   7  10
ENDBRANCH   3   7
TORSDOF 5
ENDMDL
MODEL 3
REMARK VINA RESULT: -6.202859591      2.486      5.094
REMARK  5 active torsions:
REMARK  status: ('A' for Active; 'I' for Inactive)
REMARK    1  A    between atoms: C3_3  and  C4_4 
REMARK    2  A    between atoms: C3_3  and  C5_7 
REMARK    3  A    between atoms: C5_7  and  C6_8 
REMARK    4  A    between atoms: C5_7  and  C7_10 
REMARK    5  A    between atoms: C7_10  and  C8_11 
ROOT
HETATM    1  C1  UNL     1      17.948  -5.888  -0.852  1.00  0.00     0.013 C 
HETATM    2  C2  UNL     1      18.373  -5.337  -1.834  1.00  0.00    -0.101 C 
HETATM    3  C3  UNL     1      18.880  -4.645  -3.051  1.00  0.00     0.175 C 
ENDROOT
BRANCH   3   4
HETATM    4  C4  UNL     1      18.814  -5.573  -4.168  1.00  0.00     0.189 C 
HETATM    5  O1  UNL     1      18.111  -6.614  -4.085  1.00  0.00    -0.647 OA
HETATM    6  O2  UNL     1      19.543  -5.285  -5.326  1.00  0.00    -0.647 OA
ENDBRANCH   3   4
BRANCH   3   7
HETATM    7  C5  UNL     1      18.082  -3.366  -3.218  1.00  0.00     0.073 C 
BRANCH   7   8
HETATM    8  C6  UNL     1      19.025  -2.327  -3.641  1.00  0.00     0.237 C 
HETATM    9  O3  UNL     1      18.979  -1.896  -4.772  1.00  0.00    -0.306 OA
ENDBRANCH   7   8
BRANCH   7  10
HETATM   10  C7  UNL     1      16.964  -3.504  -4.184  1.00  0.00     0.018 C 
BRANCH  10  11
HETATM   11  C8  UNL     1      15.592  -3.632  -3.610  1.00  0.00    -0.014 C 
HETATM   12  C9  UNL     1      15.133  -5.016  -3.285  1.00  0.00     0.005 C 
HETATM   13  C10 UNL     1      14.125  -4.794  -2.122  1.00  0.00     0.000 C 
HETATM   14  C11 UNL     1      14.917  -3.831  -1.282  1.00  0.00     0.000 C 
HETATM   15  C12 UNL     1      15.568  -2.897  -2.263  1.00  0.00     0.005 C 
ENDBRANCH  10  11
ENDBRANCH   7  10
ENDBRANCH   3   7
TORSDOF 5
ENDMDL
MODEL 4
REMARK VINA RESULT: -6.200029034      2.375      4.953
REMARK  5 active torsions:
REMARK  status: ('A' for Active; 'I' for Inactive)
REMARK    1  A    between atoms: C3_3  and  C4_4 
REMARK    2  A    between atoms: C3_3  and  C5_7 
REMARK    3  A    between atoms: C5_7  and  C6_8 
REMARK    4  A    between atoms: C5_7  and  C7_10 
REMARK    5  A    between atoms: C7_10  and  C8_11 
ROOT
HETATM    1  C1  UNL     1      20.571  -3.621  -7.349  1.00  0.00     0.013 C 
HETATM    2  C2  UNL     1      20.528  -3.655  -6.148  1.00  0.00    -0.101 C 
HETATM    3  C3  UNL     1      20.453  -3.693  -4.661  1.00  0.00     0.175 C 
ENDROOT
BRANCH   3   4
HETATM    4  C4  UNL     1      20.997  -2.448  -4.142  1.00  0.00     0.189 C 
HETATM    5  O1  UNL     1      20.619  -1.346  -4.617  1.00  0.00    -0.647 OA
HETATM    6  O2  UNL     1      21.941  -2.505  -3.111  1.00  0.00    -0.647 OA
ENDBRANCH   3   4
BRANCH   3   7
HETATM    7  C5  UNL     1      19.014  -3.985  -4.281  1.00  0.00     0.073 C 
BRANCH   7   8
HETATM    8  C6  UNL     1      18.762  -5.389  -4.614  1.00  0.00     0.237 C 
HETATM    9  O3  UNL     1      18.302  -6.134  -3.778  1.00  0.00    -0.306 OA
ENDBRANCH   7   8
BRANCH   7  10
HETATM   10  C7  UNL     1      18.728  -3.712  -2.850  1.00  0.00     0.018 C 
BRANCH  10  11
HETATM   11  C8  UNL     1      17.752  -2.621  -2.557  1.00  0.00    -0.014 C 
HETATM   12  C9  UNL     1      17.085  -1.990  -3.736  1.00  0.00     0.005 C 
HETATM   13  C10 UNL     1      15.722  -1.510  -3.160  1.00  0.00     0.000 C 
HETATM   14  C11 UNL     1      15.329  -2.738  -2.388  1.00  0.00     0.000 C 
HETATM   15  C12 UNL     1      16.597  -3.221  -1.743  1.00  0.00     0.005 C 
ENDBRANCH  10  11
ENDBRANCH   7  10
ENDBRANCH   3   7
TORSDOF 5
ENDMDL
MODEL 5
REMARK VINA RESULT: -6.189946626      1.598      2.522
REMARK  5 active torsions:
REMARK  status: ('A' for Active; 'I' for Inactive)
REMARK    1  A    between atoms: C3_3  and  C4_4 
REMARK    2  A    between atoms: C3_3  and  C5_7 
REMARK    3  A    between atoms: C5_7  and  C6_8 
REMARK    4  A    between atoms: C5_7  and  C7_10 
REMARK    5  A    between atoms: C7_10  and  C8_11 
ROOT
HETATM    1  C1  UNL     1      14.402  -5.213  -2.374  1.00  0.00     0.013 C 
HETATM    2  C2  UNL     1      15.524  -4.852  -2.134  1.00  0.00    -0.101 C 
HETATM    3  C3  UNL     1      16.914  -4.396  -1.858  1.00  0.00     0.175 C 
ENDROOT
BRANCH   3   4
HETATM    4  C4  UNL     1      17.797  -5.550  -1.926  1.00  0.00     0.189 C 
HETATM    5  O1  UNL     1      17.841  -6.252  -2.969  1.00  0.00    -0.647 OA
HETATM    6  O2  UNL     1      18.589  -5.857  -0.815  1.00  0.00    -0.647 OA
ENDBRANCH   3   4
BRANCH   3   7
HETATM    7  C5  UNL     1      17.232  -3.274  -2.827  1.00  0.00     0.073 C 
BRANCH   7   8
HETATM    8  C6  UNL     1      16.344  -2.157  -2.492  1.00  0.00     0.237 C 
HETATM    9  O3  UNL     1      15.914  -1.444  -3.370  1.00  0.00    -0.306 OA
ENDBRANCH   7   8
BRANCH   7  10
HETATM   10  C7  UNL     1      18.656  -2.860  -2.785  1.00  0.00     0.018 C 
BRANCH  10  11
HETATM   11  C8  UNL     1      19.393  -2.856  -4.083  1.00  0.00    -0.014 C 
HETATM   12  C9  UNL     1      19.108  -1.717  -5.007  1.00  0.00     0.005 C 
HETATM   13  C10 UNL     1      20.429  -1.573  -5.815  1.00  0.00     0.000 C 
HETATM   14  C11 UNL     1      21.422  -1.661  -4.690  1.00  0.00     0.000 C 
HETATM   15  C12 UNL     1      20.893  -2.733  -3.780  1.00  0.00     0.005 C 
ENDBRANCH  10  11
ENDBRANCH   7  10
ENDBRANCH   3   7
TORSDOF 5
ENDMDL
