MODEL 1
REMARK VINA RESULT: -6.328527344      0.000      0.000
REMARK  7 active torsions:
REMARK  status: ('A' for Active; 'I' for Inactive)
REMARK    1  A    between atoms: C2_2  and  C3_3 
REMARK    2  A    between atoms: C3_3  and  N1_4 
REMARK    3  A    between atoms: C4_6  and  N2_7 
REMARK    4  A    between atoms: N2_7  and  O1_9 
REMARK    5  A    between atoms: O1_9  and  C5_10 
REMARK    6  A    between atoms: C7_12  and  C12_17 
REMARK    7  A    between atoms: C9_14  and  C10_15 
ROOT
HETATM    1  O1  UNL     1      16.210  -6.503  -1.178  1.00  0.00    -0.274 OA
ENDROOT
BRANCH   1   2
HETATM    2  N2  UNL     1      15.085  -7.241  -1.293  1.00  0.00    -0.262 N 
ATOM      3  H2  UNL     1      14.196  -6.806  -1.047  1.00  0.00     0.195 HD
BRANCH   2   4
HETATM    4  C4  UNL     1      15.073  -8.585  -1.736  1.00  0.00     0.200 C 
HETATM    5  N1  UNL     1      14.668  -9.516  -0.954  1.00  0.00    -0.381 N 
ATOM      6  H1  UNL     1      14.659 -10.485  -1.273  1.00  0.00     0.160 HD
BRANCH   5   7
HETATM    7  C3  UNL     1      14.222  -9.189   0.385  1.00  0.00     0.147 C 
BRANCH   7   8
HETATM    8  C2  UNL     1      14.516 -10.248   1.354  1.00  0.00    -0.018 C 
HETATM    9  C1  UNL     1      14.896  -9.944   2.578  1.00  0.00     0.008 C 
ENDBRANCH   7   8
ENDBRANCH   5   7
ENDBRANCH   2   4
ENDBRANCH   1   2
BRANCH   1  10
HETATM   10  C5  UNL     1      16.191  -5.534  -2.159  1.00  0.00     0.157 C 
HETATM   11  C6  UNL     1      17.348  -4.547  -1.997  1.00  0.00     0.040 C 
HETATM   12  C7  UNL     1      16.656  -3.222  -1.799  1.00  0.00    -0.007 C 
HETATM   13  C8  UNL     1      15.471  -3.683  -0.930  1.00  0.00     0.012 C 
HETATM   14  C9  UNL     1      14.941  -4.707  -1.949  1.00  0.00     0.022 C 
BRANCH  12  15
HETATM   15  C12 UNL     1      15.916  -2.797  -3.043  1.00  0.00    -0.005 A 
HETATM   16  C10 UNL     1      16.812  -1.664  -3.626  1.00  0.00    -0.003 A 
HETATM   17  C11 UNL     1      15.415  -1.423  -3.206  1.00  0.00     0.011 A 
ENDBRANCH  12  15
ENDBRANCH   1  10
TORSDOF 7
ENDMDL
MODEL 2
REMARK VINA RESULT: -6.213396141      4.084      6.819
REMARK  7 active torsions:
REMARK  status: ('A' for Active; 'I' for Inactive)
REMARK    1  A    between atoms: C2_2  and  C3_3 
REMARK    2  A    between atoms: C3_3  and  N1_4 
REMARK    3  A    between atoms: C4_6  and  N2_7 
REMARK    4  A    between atoms: N2_7  and  O1_9 
REMARK    5  A    between atoms: O1_9  and  C5_10 
REMARK    6  A    between atoms: C7_12  and  C12_17 
REMARK    7  A    between atoms: C9_14  and  C10_15 
ROOT
HETATM    1  O1  UNL     1      19.077  -6.583  -4.243  1.00  0.00    -0.274 OA
ENDROOT
BRANCH   1   2
HETATM    2  N2  UNL     1      20.051  -5.754  -4.675  1.00  0.00    -0.262 N 
ATOM      3  H2  UNL     1      20.387  -5.031  -4.039  1.00  0.00     0.195 HD
BRANCH   2   4
HETATM    4  C4  UNL     1      20.633  -5.835  -5.963  1.00  0.00     0.200 C 
HETATM    5  N1  UNL     1      21.244  -4.822  -6.456  1.00  0.00    -0.381 N 
ATOM      6  H1  UNL     1      21.663  -4.880  -7.384  1.00  0.00     0.160 HD
BRANCH   5   7
HETATM    7  C3  UNL     1      21.338  -3.595  -5.694  1.00  0.00     0.147 C 
BRANCH   7   8
HETATM    8  C2  UNL     1      20.649  -2.473  -6.337  1.00  0.00    -0.018 C 
HETATM    9  C1  UNL     1      19.896  -1.658  -5.628  1.00  0.00     0.008 C 
ENDBRANCH   7   8
ENDBRANCH   5   7
ENDBRANCH   2   4
ENDBRANCH   1   2
BRANCH   1  10
HETATM   10  C5  UNL     1      17.973  -5.820  -3.927  1.00  0.00     0.157 C 
HETATM   11  C6  UNL     1      18.366  -4.393  -3.540  1.00  0.00     0.040 C 
HETATM   12  C7  UNL     1      17.863  -4.261  -2.124  1.00  0.00    -0.007 C 
HETATM   13  C8  UNL     1      18.191  -5.674  -1.607  1.00  0.00     0.012 C 
HETATM   14  C9  UNL     1      17.363  -6.410  -2.674  1.00  0.00     0.022 C 
BRANCH  12  15
HETATM   15  C12 UNL     1      16.357  -4.308  -2.070  1.00  0.00    -0.005 A 
HETATM   16  C10 UNL     1      15.952  -2.805  -1.993  1.00  0.00    -0.003 A 
HETATM   17  C11 UNL     1      15.613  -3.767  -0.921  1.00  0.00     0.011 A 
ENDBRANCH  12  15
ENDBRANCH   1  10
TORSDOF 7
ENDMDL
MODEL 3
REMARK VINA RESULT: -6.193136559      4.478      7.159
REMARK  7 active torsions:
REMARK  status: ('A' for Active; 'I' for Inactive)
REMARK    1  A    between atoms: C2_2  and  C3_3 
REMARK    2  A    between atoms: C3_3  and  N1_4 
REMARK    3  A    between atoms: C4_6  and  N2_7 
REMARK    4  A    between atoms: N2_7  and  O1_9 
REMARK    5  A    between atoms: O1_9  and  C5_10 
REMARK    6  A    between atoms: C7_12  and  C12_17 
REMARK    7  A    between atoms: C9_14  and  C10_15 
ROOT
HETATM    1  O1  UNL     1      18.302  -2.071  -4.520  1.00  0.00    -0.274 OA
ENDROOT
BRANCH   1   2
HETATM    2  N2  UNL     1      19.647  -1.991  -4.609  1.00  0.00    -0.262 N 
ATOM      3  H2  UNL     1      20.196  -2.120  -3.759  1.00  0.00     0.195 HD
BRANCH   2   4
HETATM    4  C4  UNL     1      20.337  -1.738  -5.819  1.00  0.00     0.200 C 
HETATM    5  N1  UNL     1      21.191  -2.585  -6.261  1.00  0.00    -0.381 N 
ATOM      6  H1  UNL     1      21.688  -2.402  -7.132  1.00  0.00     0.160 HD
BRANCH   5   7
HETATM    7  C3  UNL     1      21.450  -3.801  -5.519  1.00  0.00     0.147 C 
BRANCH   7   8
HETATM    8  C2  UNL     1      20.907  -4.992  -6.176  1.00  0.00    -0.018 C 
HETATM    9  C1  UNL     1      20.669  -6.086  -5.483  1.00  0.00     0.008 C 
ENDBRANCH   7   8
ENDBRANCH   5   7
ENDBRANCH   2   4
ENDBRANCH   1   2
BRANCH   1  10
HETATM   10  C5  UNL     1      17.985  -2.651  -3.310  1.00  0.00     0.157 C 
HETATM   11  C6  UNL     1      19.067  -3.634  -2.857  1.00  0.00     0.040 C 
HETATM   12  C7  UNL     1      18.333  -4.948  -2.768  1.00  0.00    -0.007 C 
HETATM   13  C8  UNL     1      17.415  -4.809  -3.996  1.00  0.00     0.012 C 
HETATM   14  C9  UNL     1      16.753  -3.501  -3.528  1.00  0.00     0.022 C 
BRANCH  12  15
HETATM   15  C12 UNL     1      17.301  -4.928  -1.668  1.00  0.00    -0.005 A 
HETATM   16  C10 UNL     1      17.842  -5.972  -0.646  1.00  0.00    -0.003 A 
HETATM   17  C11 UNL     1      16.532  -6.132  -1.315  1.00  0.00     0.011 A 
ENDBRANCH  12  15
ENDBRANCH   1  10
TORSDOF 7
ENDMDL
MODEL 4
REMARK VINA RESULT: -6.155644655      4.605      5.993
REMARK  7 active torsions:
REMARK  status: ('A' for Active; 'I' for Inactive)
REMARK    1  A    between atoms: C2_2  and  C3_3 
REMARK    2  A    between atoms: C3_3  and  N1_4 
REMARK    3  A    between atoms: C4_6  and  N2_7 
REMARK    4  A    between atoms: N2_7  and  O1_9 
REMARK    5  A    between atoms: O1_9  and  C5_10 
REMARK    6  A    between atoms: C7_12  and  C12_17 
REMARK    7  A    between atoms: C9_14  and  C10_15 
ROOT
HETATM    1  O1  UNL     1      19.718  -2.773  -4.366  1.00  0.00    -0.274 OA
ENDROOT
BRANCH   1   2
HETATM    2  N2  UNL     1      20.539  -3.833  -4.208  1.00  0.00    -0.262 N 
ATOM      3  H2  UNL     1      20.660  -4.215  -3.271  1.00  0.00     0.195 HD
BRANCH   2   4
HETATM    4  C4  UNL     1      21.242  -4.444  -5.275  1.00  0.00     0.200 C 
HETATM    5  N1  UNL     1      20.904  -5.610  -5.683  1.00  0.00    -0.381 N 
ATOM      6  H1  UNL     1      21.410  -6.050  -6.451  1.00  0.00     0.160 HD
BRANCH   5   7
HETATM    7  C3  UNL     1      19.800  -6.303  -5.050  1.00  0.00     0.147 C 
BRANCH   7   8
HETATM    8  C2  UNL     1      18.632  -6.427  -5.925  1.00  0.00    -0.018 C 
HETATM    9  C1  UNL     1      17.537  -7.020  -5.495  1.00  0.00     0.008 C 
ENDBRANCH   7   8
ENDBRANCH   5   7
ENDBRANCH   2   4
ENDBRANCH   1   2
BRANCH   1  10
HETATM   10  C5  UNL     1      18.913  -2.683  -3.251  1.00  0.00     0.157 C 
HETATM   11  C6  UNL     1      18.700  -4.051  -2.599  1.00  0.00     0.040 C 
HETATM   12  C7  UNL     1      17.206  -4.247  -2.672  1.00  0.00    -0.007 C 
HETATM   13  C8  UNL     1      16.938  -3.633  -4.059  1.00  0.00     0.012 C 
HETATM   14  C9  UNL     1      17.539  -2.257  -3.721  1.00  0.00     0.022 C 
BRANCH  12  15
HETATM   15  C12 UNL     1      16.478  -3.252  -1.803  1.00  0.00    -0.005 A 
HETATM   16  C10 UNL     1      15.997  -4.113  -0.596  1.00  0.00    -0.003 A 
HETATM   17  C11 UNL     1      15.050  -3.410  -1.487  1.00  0.00     0.011 A 
ENDBRANCH  12  15
ENDBRANCH   1  10
TORSDOF 7
ENDMDL
MODEL 5
REMARK VINA RESULT: -6.130181031      1.276      2.103
REMARK  7 active torsions:
REMARK  status: ('A' for Active; 'I' for Inactive)
REMARK    1  A    between atoms: C2_2  and  C3_3 
REMARK    2  A    between atoms: C3_3  and  N1_4 
REMARK    3  A    between atoms: C4_6  and  N2_7 
REMARK    4  A    between atoms: N2_7  and  O1_9 
REMARK    5  A    between atoms: O1_9  and  C5_10 
REMARK    6  A    between atoms: C7_12  and  C12_17 
REMARK    7  A    between atoms: C9_14  and  C10_15 
ROOT
HETATM    1  O1  UNL     1      15.331  -7.841  -1.512  1.00  0.00    -0.274 OA
ENDROOT
BRANCH   1   2
HETATM    2  N2  UNL     1      14.989  -8.482  -0.374  1.00  0.00    -0.262 N 
ATOM      3  H2  UNL     1      15.296  -8.086   0.514  1.00  0.00     0.195 HD
BRANCH   2   4
HETATM    4  C4  UNL     1      14.224  -9.673  -0.346  1.00  0.00     0.200 C 
HETATM    5  N1  UNL     1      14.088 -10.324   0.749  1.00  0.00    -0.381 N 
ATOM      6  H1  UNL     1      13.538 -11.182   0.769  1.00  0.00     0.160 HD
BRANCH   5   7
HETATM    7  C3  UNL     1      14.717  -9.837   1.959  1.00  0.00     0.147 C 
BRANCH   7   8
HETATM    8  C2  UNL     1      14.926 -10.893   2.953  1.00  0.00    -0.018 C 
HETATM    9  C1  UNL     1      15.230 -12.117   2.572  1.00  0.00     0.008 C 
ENDBRANCH   7   8
ENDBRANCH   5   7
ENDBRANCH   2   4
ENDBRANCH   1   2
BRANCH   1  10
HETATM   10  C5  UNL     1      15.348  -6.487  -1.255  1.00  0.00     0.157 C 
HETATM   11  C6  UNL     1      14.612  -5.699  -2.340  1.00  0.00     0.040 C 
HETATM   12  C7  UNL     1      15.677  -4.792  -2.901  1.00  0.00    -0.007 C 
HETATM   13  C8  UNL     1      16.877  -5.756  -2.862  1.00  0.00     0.012 C 
HETATM   14  C9  UNL     1      16.788  -6.030  -1.350  1.00  0.00     0.022 C 
BRANCH  12  15
HETATM   15  C12 UNL     1      16.127  -3.776  -1.881  1.00  0.00    -0.005 A 
HETATM   16  C10 UNL     1      15.495  -2.447  -2.392  1.00  0.00    -0.003 A 
HETATM   17  C11 UNL     1      16.958  -2.622  -2.261  1.00  0.00     0.011 A 
ENDBRANCH  12  15
ENDBRANCH   1  10
TORSDOF 7
ENDMDL
