MODEL 1
REMARK VINA RESULT: -5.136510831      0.000      0.000
REMARK  4 active torsions:
REMARK  status: ('A' for Active; 'I' for Inactive)
REMARK    1  A    between atoms: C2_2  and  S1_3 
REMARK    2  A    between atoms: S1_3  and  C3_4 
REMARK    3  A    between atoms: C6_8  and  O2_9 
REMARK    4  A    between atoms: C7_11  and  O3_12 
ROOT
HETATM    1  C3  UNL     1      34.890  61.645  19.271  1.00  0.00     0.190 C 
HETATM    2  C4  UNL     1      33.993  61.022  20.307  1.00  0.00     0.104 C 
HETATM    3  C5  UNL     1      33.306  59.846  19.618  1.00  0.00     0.269 C 
HETATM    4  O1  UNL     1      32.625  60.367  18.520  1.00  0.00    -0.329 OA
HETATM    5  C6  UNL     1      32.504  59.441  17.480  1.00  0.00     0.293 C 
HETATM    6  C7  UNL     1      33.903  59.257  16.904  1.00  0.00     0.228 C 
HETATM    7  C8  UNL     1      34.852  59.673  18.025  1.00  0.00     0.297 C 
HETATM    8  O4  UNL     1      34.380  59.061  19.167  1.00  0.00    -0.329 OA
HETATM    9  O5  UNL     1      34.873  61.039  18.050  1.00  0.00    -0.343 OA
ENDROOT
BRANCH   1  10
HETATM   10  S1  UNL     1      36.572  61.880  19.939  1.00  0.00    -0.137 SA
BRANCH  10  11
HETATM   11  C2  UNL     1      36.778  60.804  21.392  1.00  0.00     0.072 C 
HETATM   12  C1  UNL     1      37.346  59.471  20.968  1.00  0.00     0.016 C 
ENDBRANCH  10  11
ENDBRANCH   1  10
BRANCH   6  13
HETATM   13  O3  UNL     1      34.072  57.920  16.575  1.00  0.00    -0.386 OA
ATOM     14  H3  UNL     1      34.717  57.859  15.879  1.00  0.00     0.210 HD
ENDBRANCH   6  13
BRANCH   5  15
HETATM   15  O2  UNL     1      31.741  60.047  16.491  1.00  0.00    -0.368 OA
ATOM     16  H2  UNL     1      32.333  60.591  15.984  1.00  0.00     0.212 HD
ENDBRANCH   5  15
TORSDOF 4
ENDMDL
MODEL 2
REMARK VINA RESULT: -5.108113705      4.022      5.343
REMARK  4 active torsions:
REMARK  status: ('A' for Active; 'I' for Inactive)
REMARK    1  A    between atoms: C2_2  and  S1_3 
REMARK    2  A    between atoms: S1_3  and  C3_4 
REMARK    3  A    between atoms: C6_8  and  O2_9 
REMARK    4  A    between atoms: C7_11  and  O3_12 
ROOT
HETATM    1  C3  UNL     1      36.221  61.349  17.309  1.00  0.00     0.190 C 
HETATM    2  C4  UNL     1      35.987  60.533  16.066  1.00  0.00     0.104 C 
HETATM    3  C5  UNL     1      37.288  60.589  15.270  1.00  0.00     0.269 C 
HETATM    4  O1  UNL     1      37.547  61.937  15.022  1.00  0.00    -0.329 OA
HETATM    5  C6  UNL     1      38.914  62.201  14.905  1.00  0.00     0.293 C 
HETATM    6  C7  UNL     1      39.506  62.037  16.300  1.00  0.00     0.228 C 
HETATM    7  C8  UNL     1      38.528  61.128  17.040  1.00  0.00     0.297 C 
HETATM    8  O4  UNL     1      38.243  60.094  16.174  1.00  0.00    -0.329 OA
HETATM    9  O5  UNL     1      37.464  61.900  17.414  1.00  0.00    -0.343 OA
ENDROOT
BRANCH   1  10
HETATM   10  S1  UNL     1      35.715  60.416  18.793  1.00  0.00    -0.137 SA
BRANCH  10  11
HETATM   11  C2  UNL     1      34.380  61.329  19.629  1.00  0.00     0.072 C 
HETATM   12  C1  UNL     1      34.965  62.274  20.649  1.00  0.00     0.016 C 
ENDBRANCH  10  11
ENDBRANCH   1  10
BRANCH   6  13
HETATM   13  O3  UNL     1      40.753  61.440  16.181  1.00  0.00    -0.386 OA
ATOM     14  H3  UNL     1      40.648  60.500  16.268  1.00  0.00     0.210 HD
ENDBRANCH   6  13
BRANCH   5  15
HETATM   15  O2  UNL     1      39.034  63.546  14.576  1.00  0.00    -0.368 OA
ATOM     16  H2  UNL     1      39.653  63.597  13.857  1.00  0.00     0.212 HD
ENDBRANCH   5  15
TORSDOF 4
ENDMDL
MODEL 3
REMARK VINA RESULT: -5.097598895      4.052      5.528
REMARK  4 active torsions:
REMARK  status: ('A' for Active; 'I' for Inactive)
REMARK    1  A    between atoms: C2_2  and  S1_3 
REMARK    2  A    between atoms: S1_3  and  C3_4 
REMARK    3  A    between atoms: C6_8  and  O2_9 
REMARK    4  A    between atoms: C7_11  and  O3_12 
ROOT
HETATM    1  C3  UNL     1      36.167  61.322  17.142  1.00  0.00     0.190 C 
HETATM    2  C4  UNL     1      35.971  60.519  15.884  1.00  0.00     0.104 C 
HETATM    3  C5  UNL     1      37.292  60.595  15.123  1.00  0.00     0.269 C 
HETATM    4  O1  UNL     1      37.546  61.947  14.898  1.00  0.00    -0.329 OA
HETATM    5  C6  UNL     1      38.914  62.225  14.819  1.00  0.00     0.293 C 
HETATM    6  C7  UNL     1      39.471  62.047  16.227  1.00  0.00     0.228 C 
HETATM    7  C8  UNL     1      38.482  61.122  16.931  1.00  0.00     0.297 C 
HETATM    8  O4  UNL     1      38.227  60.096  16.045  1.00  0.00    -0.329 OA
HETATM    9  O5  UNL     1      37.403  61.881  17.286  1.00  0.00    -0.343 OA
ENDROOT
BRANCH   1  10
HETATM   10  S1  UNL     1      35.631  60.366  18.601  1.00  0.00    -0.137 SA
BRANCH  10  11
HETATM   11  C2  UNL     1      34.154  59.400  18.155  1.00  0.00     0.072 C 
HETATM   12  C1  UNL     1      32.911  60.112  18.630  1.00  0.00     0.016 C 
ENDBRANCH  10  11
ENDBRANCH   1  10
BRANCH   6  13
HETATM   13  O3  UNL     1      40.726  61.462  16.133  1.00  0.00    -0.386 OA
ATOM     14  H3  UNL     1      41.090  61.662  15.278  1.00  0.00     0.210 HD
ENDBRANCH   6  13
BRANCH   5  15
HETATM   15  O2  UNL     1      39.031  63.574  14.510  1.00  0.00    -0.368 OA
ATOM     16  H2  UNL     1      39.753  63.652  13.897  1.00  0.00     0.212 HD
ENDBRANCH   5  15
TORSDOF 4
ENDMDL
MODEL 4
REMARK VINA RESULT: -5.064014012      3.573      5.227
REMARK  4 active torsions:
REMARK  status: ('A' for Active; 'I' for Inactive)
REMARK    1  A    between atoms: C2_2  and  S1_3 
REMARK    2  A    between atoms: S1_3  and  C3_4 
REMARK    3  A    between atoms: C6_8  and  O2_9 
REMARK    4  A    between atoms: C7_11  and  O3_12 
ROOT
HETATM    1  C3  UNL     1      36.419  60.632  18.548  1.00  0.00     0.190 C 
HETATM    2  C4  UNL     1      37.462  60.872  19.605  1.00  0.00     0.104 C 
HETATM    3  C5  UNL     1      38.692  61.404  18.874  1.00  0.00     0.269 C 
HETATM    4  O1  UNL     1      39.049  60.437  17.936  1.00  0.00    -0.329 OA
HETATM    5  C6  UNL     1      39.680  60.990  16.818  1.00  0.00     0.293 C 
HETATM    6  C7  UNL     1      38.608  61.762  16.056  1.00  0.00     0.228 C 
HETATM    7  C8  UNL     1      37.533  62.076  17.094  1.00  0.00     0.297 C 
HETATM    8  O4  UNL     1      38.205  62.540  18.206  1.00  0.00    -0.329 OA
HETATM    9  O5  UNL     1      36.802  60.936  17.276  1.00  0.00    -0.343 OA
ENDROOT
BRANCH   1  10
HETATM   10  S1  UNL     1      34.833  61.397  19.028  1.00  0.00    -0.137 SA
BRANCH  10  11
HETATM   11  C2  UNL     1      33.497  60.193  18.752  1.00  0.00     0.072 C 
HETATM   12  C1  UNL     1      34.049  58.955  18.089  1.00  0.00     0.016 C 
ENDBRANCH  10  11
ENDBRANCH   1  10
BRANCH   6  13
HETATM   13  O3  UNL     1      39.176  62.925  15.555  1.00  0.00    -0.386 OA
ATOM     14  H3  UNL     1      39.207  63.571  16.252  1.00  0.00     0.210 HD
ENDBRANCH   6  13
BRANCH   5  15
HETATM   15  O2  UNL     1      40.058  59.928  16.007  1.00  0.00    -0.368 OA
ATOM     16  H2  UNL     1      40.862  59.577  16.372  1.00  0.00     0.212 HD
ENDBRANCH   5  15
TORSDOF 4
ENDMDL
MODEL 5
REMARK VINA RESULT: -5.058484225      1.226      1.282
REMARK  4 active torsions:
REMARK  status: ('A' for Active; 'I' for Inactive)
REMARK    1  A    between atoms: C2_2  and  S1_3 
REMARK    2  A    between atoms: S1_3  and  C3_4 
REMARK    3  A    between atoms: C6_8  and  O2_9 
REMARK    4  A    between atoms: C7_11  and  O3_12 
ROOT
HETATM    1  C3  UNL     1      35.037  61.671  19.203  1.00  0.00     0.190 C 
HETATM    2  C4  UNL     1      34.157  61.083  20.272  1.00  0.00     0.104 C 
HETATM    3  C5  UNL     1      33.433  59.905  19.625  1.00  0.00     0.269 C 
HETATM    4  O1  UNL     1      32.732  60.417  18.534  1.00  0.00    -0.329 OA
HETATM    5  C6  UNL     1      32.570  59.473  17.516  1.00  0.00     0.293 C 
HETATM    6  C7  UNL     1      33.951  59.256  16.908  1.00  0.00     0.228 C 
HETATM    7  C8  UNL     1      34.935  59.677  17.996  1.00  0.00     0.297 C 
HETATM    8  O4  UNL     1      34.482  59.094  19.161  1.00  0.00    -0.329 OA
HETATM    9  O5  UNL     1      34.979  61.043  17.994  1.00  0.00    -0.343 OA
ENDROOT
BRANCH   1  10
HETATM   10  S1  UNL     1      36.738  61.891  19.823  1.00  0.00    -0.137 SA
BRANCH  10  11
HETATM   11  C2  UNL     1      37.860  62.067  18.400  1.00  0.00     0.072 C 
HETATM   12  C1  UNL     1      38.600  60.773  18.166  1.00  0.00     0.016 C 
ENDBRANCH  10  11
ENDBRANCH   1  10
BRANCH   6  13
HETATM   13  O3  UNL     1      34.090  57.909  16.601  1.00  0.00    -0.386 OA
ATOM     14  H3  UNL     1      35.016  57.698  16.579  1.00  0.00     0.210 HD
ENDBRANCH   6  13
BRANCH   5  15
HETATM   15  O2  UNL     1      31.792  60.073  16.535  1.00  0.00    -0.368 OA
ATOM     16  H2  UNL     1      31.166  59.419  16.245  1.00  0.00     0.212 HD
ENDBRANCH   5  15
TORSDOF 4
ENDMDL
