MODEL 1
REMARK VINA RESULT: -5.398977101      0.000      0.000
REMARK  5 active torsions:
REMARK  status: ('A' for Active; 'I' for Inactive)
REMARK    1  A    between atoms: C2_2  and  O1_3 
REMARK    2  A    between atoms: O1_3  and  C3_4 
REMARK    3  A    between atoms: C6_8  and  O3_9 
REMARK    4  A    between atoms: C7_11  and  O4_12 
REMARK    5  A    between atoms: C9_15  and  O5_16 
ROOT
HETATM    1  O4  UNL     1      37.278  61.298  14.133  1.00  0.00    -0.272 OA
HETATM    2  C8  UNL     1      37.530  60.431  13.083  1.00  0.00     0.229 C 
HETATM    3  N1  UNL     1      37.735  59.721  12.192  1.00  0.00    -0.164 NA
ENDROOT
BRANCH   1   4
HETATM    4  C7  UNL     1      37.813  61.088  15.403  1.00  0.00     0.206 C 
HETATM    5  C6  UNL     1      36.871  61.473  16.524  1.00  0.00     0.179 C 
HETATM    6  C4  UNL     1      37.647  61.176  17.813  1.00  0.00     0.152 C 
HETATM    7  O2  UNL     1      38.611  62.171  17.913  1.00  0.00    -0.351 OA
HETATM    8  C5  UNL     1      36.681  61.152  18.950  1.00  0.00     0.042 C 
HETATM    9  C3  UNL     1      39.587  61.913  16.980  1.00  0.00     0.291 C 
HETATM   10  C9  UNL     1      39.077  61.866  15.563  1.00  0.00     0.206 C 
BRANCH   5  11
HETATM   11  O3  UNL     1      35.699  60.754  16.523  1.00  0.00    -0.390 OA
ATOM     12  H3  UNL     1      35.164  61.026  15.786  1.00  0.00     0.210 HD
ENDBRANCH   5  11
BRANCH   9  13
HETATM   13  O1  UNL     1      40.141  60.672  17.265  1.00  0.00    -0.359 OA
BRANCH  13  14
HETATM   14  C2  UNL     1      41.374  60.761  17.900  1.00  0.00     0.166 C 
HETATM   15  C1  UNL     1      41.726  59.365  18.380  1.00  0.00     0.033 C 
ENDBRANCH  13  14
ENDBRANCH   9  13
BRANCH  10  16
HETATM   16  O5  UNL     1      38.939  63.137  15.046  1.00  0.00    -0.388 OA
ATOM     17  H5  UNL     1      38.356  63.137  14.296  1.00  0.00     0.210 HD
ENDBRANCH  10  16
ENDBRANCH   1   4
TORSDOF 5
ENDMDL
MODEL 2
REMARK VINA RESULT: -5.359791973      1.473      1.715
REMARK  5 active torsions:
REMARK  status: ('A' for Active; 'I' for Inactive)
REMARK    1  A    between atoms: C2_2  and  O1_3 
REMARK    2  A    between atoms: O1_3  and  C3_4 
REMARK    3  A    between atoms: C6_8  and  O3_9 
REMARK    4  A    between atoms: C7_11  and  O4_12 
REMARK    5  A    between atoms: C9_15  and  O5_16 
ROOT
HETATM    1  O4  UNL     1      36.349  61.150  15.312  1.00  0.00    -0.272 OA
HETATM    2  C8  UNL     1      37.070  60.796  14.183  1.00  0.00     0.229 C 
HETATM    3  N1  UNL     1      37.661  60.514  13.229  1.00  0.00    -0.164 NA
ENDROOT
BRANCH   1   4
HETATM    4  C7  UNL     1      36.795  60.836  16.595  1.00  0.00     0.206 C 
HETATM    5  C6  UNL     1      35.692  60.838  17.632  1.00  0.00     0.179 C 
HETATM    6  C4  UNL     1      36.388  60.485  18.952  1.00  0.00     0.152 C 
HETATM    7  O2  UNL     1      37.108  61.615  19.316  1.00  0.00    -0.351 OA
HETATM    8  C5  UNL     1      35.346  60.084  19.942  1.00  0.00     0.042 C 
HETATM    9  C3  UNL     1      38.199  61.711  18.486  1.00  0.00     0.291 C 
HETATM   10  C9  UNL     1      37.846  61.805  17.025  1.00  0.00     0.206 C 
BRANCH   5  11
HETATM   11  O3  UNL     1      34.703  59.918  17.379  1.00  0.00    -0.390 OA
ATOM     12  H3  UNL     1      33.879  60.371  17.240  1.00  0.00     0.210 HD
ENDBRANCH   5  11
BRANCH   9  13
HETATM   13  O1  UNL     1      38.973  60.570  18.655  1.00  0.00    -0.359 OA
BRANCH  13  14
HETATM   14  C2  UNL     1      40.288  60.740  18.239  1.00  0.00     0.166 C 
HETATM   15  C1  UNL     1      40.739  59.417  17.646  1.00  0.00     0.033 C 
ENDBRANCH  13  14
ENDBRANCH   9  13
BRANCH  10  16
HETATM   16  O5  UNL     1      37.493  63.094  16.684  1.00  0.00    -0.388 OA
ATOM     17  H5  UNL     1      37.041  63.524  17.400  1.00  0.00     0.210 HD
ENDBRANCH  10  16
ENDBRANCH   1   4
TORSDOF 5
ENDMDL
MODEL 3
REMARK VINA RESULT: -5.358139510      3.313      5.256
REMARK  5 active torsions:
REMARK  status: ('A' for Active; 'I' for Inactive)
REMARK    1  A    between atoms: C2_2  and  O1_3 
REMARK    2  A    between atoms: O1_3  and  C3_4 
REMARK    3  A    between atoms: C6_8  and  O3_9 
REMARK    4  A    between atoms: C7_11  and  O4_12 
REMARK    5  A    between atoms: C9_15  and  O5_16 
ROOT
HETATM    1  O4  UNL     1      33.826  58.907  17.753  1.00  0.00    -0.272 OA
HETATM    2  C8  UNL     1      32.771  58.954  16.856  1.00  0.00     0.229 C 
HETATM    3  N1  UNL     1      31.882  58.976  16.116  1.00  0.00    -0.164 NA
ENDROOT
BRANCH   1   4
HETATM    4  C7  UNL     1      34.639  60.015  17.989  1.00  0.00     0.206 C 
HETATM    5  C6  UNL     1      35.790  60.134  17.013  1.00  0.00     0.179 C 
HETATM    6  C4  UNL     1      36.550  61.392  17.448  1.00  0.00     0.152 C 
HETATM    7  O2  UNL     1      37.217  61.047  18.616  1.00  0.00    -0.351 OA
HETATM    8  C5  UNL     1      37.454  61.807  16.335  1.00  0.00     0.042 C 
HETATM    9  C3  UNL     1      36.290  60.964  19.627  1.00  0.00     0.291 C 
HETATM   10  C9  UNL     1      35.199  59.958  19.371  1.00  0.00     0.206 C 
BRANCH   5  11
HETATM   11  O3  UNL     1      35.386  60.277  15.706  1.00  0.00    -0.390 OA
ATOM     12  H3  UNL     1      35.109  61.174  15.559  1.00  0.00     0.210 HD
ENDBRANCH   5  11
BRANCH   9  13
HETATM   13  O1  UNL     1      35.686  62.207  19.765  1.00  0.00    -0.359 OA
BRANCH  13  14
HETATM   14  C2  UNL     1      34.799  62.265  20.833  1.00  0.00     0.166 C 
HETATM   15  C1  UNL     1      35.038  63.589  21.535  1.00  0.00     0.033 C 
ENDBRANCH  13  14
ENDBRANCH   9  13
BRANCH  10  16
HETATM   16  O5  UNL     1      35.623  58.681  19.676  1.00  0.00    -0.388 OA
ATOM     17  H5  UNL     1      36.548  58.671  19.890  1.00  0.00     0.210 HD
ENDBRANCH  10  16
ENDBRANCH   1   4
TORSDOF 5
ENDMDL
MODEL 4
REMARK VINA RESULT: -5.293228244      2.434      2.978
REMARK  5 active torsions:
REMARK  status: ('A' for Active; 'I' for Inactive)
REMARK    1  A    between atoms: C2_2  and  O1_3 
REMARK    2  A    between atoms: O1_3  and  C3_4 
REMARK    3  A    between atoms: C6_8  and  O3_9 
REMARK    4  A    between atoms: C7_11  and  O4_12 
REMARK    5  A    between atoms: C9_15  and  O5_16 
ROOT
HETATM    1  O4  UNL     1      35.135  60.487  16.705  1.00  0.00    -0.272 OA
HETATM    2  C8  UNL     1      34.508  59.253  16.626  1.00  0.00     0.229 C 
HETATM    3  N1  UNL     1      33.980  58.228  16.540  1.00  0.00    -0.164 NA
ENDROOT
BRANCH   1   4
HETATM    4  C7  UNL     1      36.106  60.756  17.668  1.00  0.00     0.206 C 
HETATM    5  C6  UNL     1      35.569  61.501  18.872  1.00  0.00     0.179 C 
HETATM    6  C4  UNL     1      36.783  61.700  19.788  1.00  0.00     0.152 C 
HETATM    7  O2  UNL     1      37.557  62.681  19.183  1.00  0.00    -0.351 OA
HETATM    8  C5  UNL     1      36.291  62.069  21.148  1.00  0.00     0.042 C 
HETATM    9  C3  UNL     1      38.172  62.123  18.087  1.00  0.00     0.291 C 
HETATM   10  C9  UNL     1      37.212  61.562  17.071  1.00  0.00     0.206 C 
BRANCH   5  11
HETATM   11  O3  UNL     1      34.595  60.809  19.552  1.00  0.00    -0.390 OA
ATOM     12  H3  UNL     1      34.539  61.137  20.442  1.00  0.00     0.210 HD
ENDBRANCH   5  11
BRANCH   9  13
HETATM   13  O1  UNL     1      38.973  61.076  18.527  1.00  0.00    -0.359 OA
BRANCH  13  14
HETATM   14  C2  UNL     1      40.206  61.030  17.886  1.00  0.00     0.166 C 
HETATM   15  C1  UNL     1      40.378  59.618  17.359  1.00  0.00     0.033 C 
ENDBRANCH  13  14
ENDBRANCH   9  13
BRANCH  10  16
HETATM   16  O5  UNL     1      36.710  62.560  16.262  1.00  0.00    -0.388 OA
ATOM     17  H5  UNL     1      35.853  62.326  15.927  1.00  0.00     0.210 HD
ENDBRANCH  10  16
ENDBRANCH   1   4
TORSDOF 5
ENDMDL
MODEL 5
REMARK VINA RESULT: -5.206585747      2.983      4.497
REMARK  5 active torsions:
REMARK  status: ('A' for Active; 'I' for Inactive)
REMARK    1  A    between atoms: C2_2  and  O1_3 
REMARK    2  A    between atoms: O1_3  and  C3_4 
REMARK    3  A    between atoms: C6_8  and  O3_9 
REMARK    4  A    between atoms: C7_11  and  O4_12 
REMARK    5  A    between atoms: C9_15  and  O5_16 
ROOT
HETATM    1  O4  UNL     1      36.105  60.709  15.772  1.00  0.00    -0.272 OA
HETATM    2  C8  UNL     1      37.471  60.666  15.541  1.00  0.00     0.229 C 
HETATM    3  N1  UNL     1      38.610  60.647  15.337  1.00  0.00    -0.164 NA
ENDROOT
BRANCH   1   4
HETATM    4  C7  UNL     1      35.515  59.999  16.816  1.00  0.00     0.206 C 
HETATM    5  C6  UNL     1      34.019  59.826  16.655  1.00  0.00     0.179 C 
HETATM    6  C4  UNL     1      33.575  59.039  17.894  1.00  0.00     0.152 C 
HETATM    7  O2  UNL     1      33.634  59.936  18.953  1.00  0.00    -0.351 OA
HETATM    8  C5  UNL     1      32.211  58.490  17.640  1.00  0.00     0.042 C 
HETATM    9  C3  UNL     1      34.957  60.145  19.261  1.00  0.00     0.291 C 
HETATM   10  C9  UNL     1      35.771  60.687  18.116  1.00  0.00     0.206 C 
BRANCH   5  11
HETATM   11  O3  UNL     1      33.669  59.127  15.523  1.00  0.00    -0.390 OA
ATOM     12  H3  UNL     1      33.510  58.218  15.752  1.00  0.00     0.210 HD
ENDBRANCH   5  11
BRANCH   9  13
HETATM   13  O1  UNL     1      35.514  58.926  19.628  1.00  0.00    -0.359 OA
BRANCH  13  14
HETATM   14  C2  UNL     1      36.636  59.064  20.436  1.00  0.00     0.166 C 
HETATM   15  C1  UNL     1      36.178  59.735  21.718  1.00  0.00     0.033 C 
ENDBRANCH  13  14
ENDBRANCH   9  13
BRANCH  10  16
HETATM   16  O5  UNL     1      35.600  62.050  17.990  1.00  0.00    -0.388 OA
ATOM     17  H5  UNL     1      35.838  62.498  18.793  1.00  0.00     0.210 HD
ENDBRANCH  10  16
ENDBRANCH   1   4
TORSDOF 5
ENDMDL
