MODEL 1
REMARK VINA RESULT: -6.317319552      0.000      0.000
REMARK  4 active torsions:
REMARK  status: ('A' for Active; 'I' for Inactive)
REMARK    1  A    between atoms: C3_3  and  N1_4 
REMARK    2  A    between atoms: C5_6  and  O1_7 
REMARK    3  A    between atoms: C6_9  and  O2_10 
REMARK    4  A    between atoms: C7_12  and  N2_13 
ROOT
HETATM    1  C1  UNL     1      35.964  62.929  21.362  1.00  0.00     0.014 C 
HETATM    2  C2  UNL     1      35.311  62.364  20.541  1.00  0.00    -0.096 C 
HETATM    3  C3  UNL     1      34.513  61.699  19.520  1.00  0.00     0.242 C 
ENDROOT
BRANCH   3   4
HETATM    4  N1  UNL     1      35.004  60.426  19.117  1.00  0.00    -0.278 N 
HETATM    5  C4  UNL     1      34.070  59.486  18.627  1.00  0.00     0.185 C 
HETATM    6  C5  UNL     1      34.088  59.259  17.143  1.00  0.00     0.171 C 
HETATM    7  C6  UNL     1      35.362  59.692  16.455  1.00  0.00     0.201 C 
HETATM    8  C7  UNL     1      35.943  60.873  17.146  1.00  0.00     0.303 C 
HETATM    9  O3  UNL     1      36.182  60.472  18.472  1.00  0.00    -0.251 OA
BRANCH   6  10
HETATM   10  O1  UNL     1      33.832  57.930  16.883  1.00  0.00    -0.391 OA
ATOM     11  H1  UNL     1      33.076  57.862  16.312  1.00  0.00     0.210 HD
ENDBRANCH   6  10
BRANCH   7  12
HETATM   12  O2  UNL     1      35.018  60.012  15.135  1.00  0.00    -0.388 OA
ATOM     13  H2  UNL     1      35.762  59.775  14.595  1.00  0.00     0.210 HD
ENDBRANCH   7  12
BRANCH   8  14
HETATM   14  N2  UNL     1      37.177  61.346  16.576  1.00  0.00    -0.269 N 
HETATM   15  C8  UNL     1      38.436  61.253  17.040  1.00  0.00     0.114 A 
HETATM   16  C9  UNL     1      39.330  61.838  16.147  1.00  0.00     0.037 A 
HETATM   17  C10 UNL     1      38.550  62.292  15.118  1.00  0.00     0.108 A 
HETATM   18  N3  UNL     1      37.291  61.985  15.404  1.00  0.00    -0.308 N 
ATOM     19  H3  UNL     1      36.501  62.210  14.801  1.00  0.00     0.186 HD
ENDBRANCH   8  14
ENDBRANCH   3   4
TORSDOF 4
ENDMDL
MODEL 2
REMARK VINA RESULT: -6.185946165      2.483      4.444
REMARK  4 active torsions:
REMARK  status: ('A' for Active; 'I' for Inactive)
REMARK    1  A    between atoms: C3_3  and  N1_4 
REMARK    2  A    between atoms: C5_6  and  O1_7 
REMARK    3  A    between atoms: C6_9  and  O2_10 
REMARK    4  A    between atoms: C7_12  and  N2_13 
ROOT
HETATM    1  C1  UNL     1      36.794  59.283  22.977  1.00  0.00     0.014 C 
HETATM    2  C2  UNL     1      36.988  59.446  21.812  1.00  0.00    -0.096 C 
HETATM    3  C3  UNL     1      37.211  59.616  20.383  1.00  0.00     0.242 C 
ENDROOT
BRANCH   3   4
HETATM    4  N1  UNL     1      36.793  60.872  19.861  1.00  0.00    -0.278 N 
HETATM    5  C4  UNL     1      37.711  61.591  19.063  1.00  0.00     0.185 C 
HETATM    6  C5  UNL     1      37.430  61.597  17.588  1.00  0.00     0.171 C 
HETATM    7  C6  UNL     1      36.007  61.249  17.217  1.00  0.00     0.201 C 
HETATM    8  C7  UNL     1      35.446  60.274  18.189  1.00  0.00     0.303 C 
HETATM    9  O3  UNL     1      35.515  60.895  19.449  1.00  0.00    -0.251 OA
BRANCH   6  10
HETATM   10  O1  UNL     1      37.773  62.826  17.065  1.00  0.00    -0.391 OA
ATOM     11  H1  UNL     1      38.719  62.884  16.998  1.00  0.00     0.210 HD
ENDBRANCH   6  10
BRANCH   7  12
HETATM   12  O2  UNL     1      36.051  60.694  15.931  1.00  0.00    -0.388 OA
ATOM     13  H2  UNL     1      35.507  59.916  15.952  1.00  0.00     0.210 HD
ENDBRANCH   7  12
BRANCH   8  14
HETATM   14  N2  UNL     1      34.081  59.899  17.932  1.00  0.00    -0.269 N 
HETATM   15  C8  UNL     1      32.965  60.157  18.638  1.00  0.00     0.114 A 
HETATM   16  C9  UNL     1      31.851  59.612  18.005  1.00  0.00     0.037 A 
HETATM   17  C10 UNL     1      32.346  59.010  16.881  1.00  0.00     0.108 A 
HETATM   18  N3  UNL     1      33.659  59.199  16.870  1.00  0.00    -0.308 N 
ATOM     19  H3  UNL     1      34.278  58.851  16.138  1.00  0.00     0.186 HD
ENDBRANCH   8  14
ENDBRANCH   3   4
TORSDOF 4
ENDMDL
MODEL 3
REMARK VINA RESULT: -5.997409732      1.972      3.579
REMARK  4 active torsions:
REMARK  status: ('A' for Active; 'I' for Inactive)
REMARK    1  A    between atoms: C3_3  and  N1_4 
REMARK    2  A    between atoms: C5_6  and  O1_7 
REMARK    3  A    between atoms: C6_9  and  O2_10 
REMARK    4  A    between atoms: C7_12  and  N2_13 
ROOT
HETATM    1  C1  UNL     1      31.357  59.975  17.352  1.00  0.00     0.014 C 
HETATM    2  C2  UNL     1      32.303  59.848  18.067  1.00  0.00    -0.096 C 
HETATM    3  C3  UNL     1      33.469  59.671  18.920  1.00  0.00     0.242 C 
ENDROOT
BRANCH   3   4
HETATM    4  N1  UNL     1      34.097  60.881  19.329  1.00  0.00    -0.278 N 
HETATM    5  C4  UNL     1      34.719  60.903  20.597  1.00  0.00     0.185 C 
HETATM    6  C5  UNL     1      36.220  60.868  20.590  1.00  0.00     0.171 C 
HETATM    7  C6  UNL     1      36.852  61.274  19.278  1.00  0.00     0.201 C 
HETATM    8  C7  UNL     1      35.982  60.872  18.142  1.00  0.00     0.303 C 
HETATM    9  O3  UNL     1      34.751  61.518  18.344  1.00  0.00    -0.251 OA
BRANCH   6  10
HETATM   10  O1  UNL     1      36.699  61.655  21.615  1.00  0.00    -0.391 OA
ATOM     11  H1  UNL     1      37.617  61.841  21.465  1.00  0.00     0.210 HD
ENDBRANCH   6  10
BRANCH   7  12
HETATM   12  O2  UNL     1      38.090  60.620  19.208  1.00  0.00    -0.388 OA
ATOM     13  H2  UNL     1      38.164  60.272  18.328  1.00  0.00     0.210 HD
ENDBRANCH   7  12
BRANCH   8  14
HETATM   14  N2  UNL     1      36.491  61.239  16.847  1.00  0.00    -0.269 N 
HETATM   15  C8  UNL     1      36.345  60.631  15.656  1.00  0.00     0.114 A 
HETATM   16  C9  UNL     1      36.997  61.351  14.658  1.00  0.00     0.037 A 
HETATM   17  C10 UNL     1      37.545  62.426  15.302  1.00  0.00     0.108 A 
HETATM   18  N3  UNL     1      37.227  62.328  16.587  1.00  0.00    -0.308 N 
ATOM     19  H3  UNL     1      37.511  63.004  17.295  1.00  0.00     0.186 HD
ENDBRANCH   8  14
ENDBRANCH   3   4
TORSDOF 4
ENDMDL
MODEL 4
REMARK VINA RESULT: -5.821813329      2.675      5.389
REMARK  4 active torsions:
REMARK  status: ('A' for Active; 'I' for Inactive)
REMARK    1  A    between atoms: C3_3  and  N1_4 
REMARK    2  A    between atoms: C5_6  and  O1_7 
REMARK    3  A    between atoms: C6_9  and  O2_10 
REMARK    4  A    between atoms: C7_12  and  N2_13 
ROOT
HETATM    1  C1  UNL     1      42.581  58.863  18.550  1.00  0.00     0.014 C 
HETATM    2  C2  UNL     1      41.473  59.271  18.384  1.00  0.00    -0.096 C 
HETATM    3  C3  UNL     1      40.111  59.755  18.208  1.00  0.00     0.242 C 
ENDROOT
BRANCH   3   4
HETATM    4  N1  UNL     1      40.003  61.149  17.943  1.00  0.00    -0.278 N 
HETATM    5  C4  UNL     1      40.116  61.574  16.601  1.00  0.00     0.185 C 
HETATM    6  C5  UNL     1      38.835  61.993  15.938  1.00  0.00     0.171 C 
HETATM    7  C6  UNL     1      37.716  62.340  16.894  1.00  0.00     0.201 C 
HETATM    8  C7  UNL     1      37.811  61.505  18.120  1.00  0.00     0.303 C 
HETATM    9  O3  UNL     1      39.071  61.775  18.681  1.00  0.00    -0.251 OA
BRANCH   6  10
HETATM   10  O1  UNL     1      39.086  63.051  15.092  1.00  0.00    -0.391 OA
ATOM     11  H1  UNL     1      38.972  63.866  15.566  1.00  0.00     0.210 HD
ENDBRANCH   6  10
BRANCH   7  12
HETATM   12  O2  UNL     1      36.516  62.088  16.216  1.00  0.00    -0.388 OA
ATOM     13  H2  UNL     1      35.854  61.941  16.881  1.00  0.00     0.210 HD
ENDBRANCH   7  12
BRANCH   8  14
HETATM   14  N2  UNL     1      36.798  61.781  19.104  1.00  0.00    -0.269 N 
HETATM   15  C8  UNL     1      36.918  62.230  20.367  1.00  0.00     0.114 A 
HETATM   16  C9  UNL     1      35.664  62.372  20.955  1.00  0.00     0.037 A 
HETATM   17  C10 UNL     1      34.777  61.987  19.987  1.00  0.00     0.108 A 
HETATM   18  N3  UNL     1      35.479  61.647  18.913  1.00  0.00    -0.308 N 
ATOM     19  H3  UNL     1      35.061  61.321  18.042  1.00  0.00     0.186 HD
ENDBRANCH   8  14
ENDBRANCH   3   4
TORSDOF 4
ENDMDL
MODEL 5
REMARK VINA RESULT: -5.801978804      2.406      5.154
REMARK  4 active torsions:
REMARK  status: ('A' for Active; 'I' for Inactive)
REMARK    1  A    between atoms: C3_3  and  N1_4 
REMARK    2  A    between atoms: C5_6  and  O1_7 
REMARK    3  A    between atoms: C6_9  and  O2_10 
REMARK    4  A    between atoms: C7_12  and  N2_13 
ROOT
HETATM    1  C1  UNL     1      42.457  59.564  18.527  1.00  0.00     0.014 C 
HETATM    2  C2  UNL     1      41.287  59.747  18.392  1.00  0.00    -0.096 C 
HETATM    3  C3  UNL     1      39.852  59.955  18.254  1.00  0.00     0.242 C 
ENDROOT
BRANCH   3   4
HETATM    4  N1  UNL     1      39.469  61.298  17.981  1.00  0.00    -0.278 N 
HETATM    5  C4  UNL     1      39.835  61.845  16.731  1.00  0.00     0.185 C 
HETATM    6  C5  UNL     1      38.725  61.992  15.731  1.00  0.00     0.171 C 
HETATM    7  C6  UNL     1      37.336  61.978  16.326  1.00  0.00     0.201 C 
HETATM    8  C7  UNL     1      37.298  61.095  17.521  1.00  0.00     0.303 C 
HETATM    9  O3  UNL     1      38.241  61.617  18.423  1.00  0.00    -0.251 OA
BRANCH   6  10
HETATM   10  O1  UNL     1      38.920  63.145  15.001  1.00  0.00    -0.391 OA
ATOM     11  H1  UNL     1      39.512  63.718  15.472  1.00  0.00     0.210 HD
ENDBRANCH   6  10
BRANCH   7  12
HETATM   12  O2  UNL     1      36.476  61.497  15.329  1.00  0.00    -0.388 OA
ATOM     13  H2  UNL     1      36.984  60.894  14.799  1.00  0.00     0.210 HD
ENDBRANCH   7  12
BRANCH   8  14
HETATM   14  N2  UNL     1      36.017  61.035  18.174  1.00  0.00    -0.269 N 
HETATM   15  C8  UNL     1      35.029  60.129  18.059  1.00  0.00     0.114 A 
HETATM   16  C9  UNL     1      33.966  60.457  18.898  1.00  0.00     0.037 A 
HETATM   17  C10 UNL     1      34.359  61.607  19.527  1.00  0.00     0.108 A 
HETATM   18  N3  UNL     1      35.568  61.917  19.077  1.00  0.00    -0.308 N 
ATOM     19  H3  UNL     1      36.097  62.733  19.385  1.00  0.00     0.186 HD
ENDBRANCH   8  14
ENDBRANCH   3   4
TORSDOF 4
ENDMDL
