MODEL 1
REMARK VINA RESULT: -7.705438043      0.000      0.000
REMARK  4 active torsions:
REMARK  status: ('A' for Active; 'I' for Inactive)
REMARK    1  A    between atoms: C2_2  and  C5_5 
REMARK    2  A    between atoms: C6_6  and  C7_7 
REMARK    3  A    between atoms: C8_8  and  C9_9 
REMARK    4  A    between atoms: C9_9  and  N1_10 
ROOT
HETATM    1  C7  UNL     1      16.207  12.807 -11.031  1.00  0.00     0.055 A 
HETATM    2  C8  UNL     1      17.365  12.360 -11.594  1.00  0.00     0.023 A 
HETATM    3  S1  UNL     1      17.654  10.873 -10.805  1.00  0.00    -0.075 SA
HETATM    4  C13 UNL     1      16.299  10.851  -9.779  1.00  0.00     0.109 A 
HETATM    5  N3  UNL     1      15.895   9.852  -8.803  1.00  0.00    -0.093 NA
HETATM    6  C14 UNL     1      15.643  12.017 -10.078  1.00  0.00     0.095 A 
HETATM    7  C15 UNL     1      14.388  12.370  -9.380  1.00  0.00     0.103 C 
HETATM    8  N4  UNL     1      13.389  12.631  -8.825  1.00  0.00    -0.191 NA
ENDROOT
BRANCH   1   9
HETATM    9  C6  UNL     1      15.630  14.105 -11.440  1.00  0.00    -0.063 C 
HETATM   10  C5  UNL     1      15.182  15.181 -11.786  1.00  0.00    -0.092 C 
BRANCH  10  11
HETATM   11  C2  UNL     1      14.668  16.483 -12.209  1.00  0.00     0.013 C 
HETATM   12  C1  UNL     1      15.123  17.606 -11.280  1.00  0.00     0.028 C 
HETATM   13  C3  UNL     1      15.184  16.747 -13.599  1.00  0.00     0.028 C 
HETATM   14  C4  UNL     1      13.151  16.496 -12.170  1.00  0.00     0.028 C 
ENDBRANCH  10  11
ENDBRANCH   1   9
BRANCH   2  15
HETATM   15  C9  UNL     1      18.214  12.974 -12.678  1.00  0.00     0.176 C 
BRANCH  15  16
HETATM   16  N1  UNL     1      19.365  13.645 -12.190  1.00  0.00    -0.347 N 
HETATM   17  C10 UNL     1      19.374  14.951 -11.807  1.00  0.00     0.109 A 
HETATM   18  C11 UNL     1      20.628  15.311 -11.396  1.00  0.00     0.106 A 
HETATM   19  N2  UNL     1      21.400  14.220 -11.525  1.00  0.00    -0.361 N 
HETATM   20  C12 UNL     1      20.616  13.218 -12.009  1.00  0.00     0.182 A 
ATOM     21  H2  UNL     1      22.393  14.154 -11.302  1.00  0.00     0.166 HD
ENDBRANCH  15  16
ENDBRANCH   2  15
TORSDOF 4
ENDMDL
MODEL 2
REMARK VINA RESULT: -7.645384161      2.199      2.828
REMARK  4 active torsions:
REMARK  status: ('A' for Active; 'I' for Inactive)
REMARK    1  A    between atoms: C2_2  and  C5_5 
REMARK    2  A    between atoms: C6_6  and  C7_7 
REMARK    3  A    between atoms: C8_8  and  C9_9 
REMARK    4  A    between atoms: C9_9  and  N1_10 
ROOT
HETATM    1  C7  UNL     1      15.675  12.753  -9.240  1.00  0.00     0.055 A 
HETATM    2  C8  UNL     1      16.881  12.129  -9.364  1.00  0.00     0.023 A 
HETATM    3  S1  UNL     1      16.860  10.950  -8.130  1.00  0.00    -0.075 SA
HETATM    4  C13 UNL     1      15.320  11.274  -7.483  1.00  0.00     0.109 A 
HETATM    5  N3  UNL     1      14.629  10.631  -6.377  1.00  0.00    -0.093 NA
HETATM    6  C14 UNL     1      14.853  12.306  -8.253  1.00  0.00     0.095 A 
HETATM    7  C15 UNL     1      13.515  12.884  -7.998  1.00  0.00     0.103 C 
HETATM    8  N4  UNL     1      12.449  13.325  -7.790  1.00  0.00    -0.191 NA
ENDROOT
BRANCH   1   9
HETATM    9  C6  UNL     1      15.319  13.876 -10.133  1.00  0.00    -0.063 C 
HETATM   10  C5  UNL     1      15.055  14.804 -10.874  1.00  0.00    -0.092 C 
BRANCH  10  11
HETATM   11  C2  UNL     1      14.764  15.924 -11.766  1.00  0.00     0.013 C 
HETATM   12  C1  UNL     1      15.170  17.263 -11.155  1.00  0.00     0.028 C 
HETATM   13  C3  UNL     1      15.536  15.704 -13.041  1.00  0.00     0.028 C 
HETATM   14  C4  UNL     1      13.272  16.019 -12.033  1.00  0.00     0.028 C 
ENDBRANCH  10  11
ENDBRANCH   1   9
BRANCH   2  15
HETATM   15  C9  UNL     1      17.993  12.362 -10.354  1.00  0.00     0.176 C 
BRANCH  15  16
HETATM   16  N1  UNL     1      17.953  11.492 -11.474  1.00  0.00    -0.347 N 
HETATM   17  C10 UNL     1      19.036  11.201 -12.246  1.00  0.00     0.109 A 
HETATM   18  C11 UNL     1      18.679  10.344 -13.251  1.00  0.00     0.106 A 
HETATM   19  N2  UNL     1      17.367  10.103 -13.099  1.00  0.00    -0.361 N 
HETATM   20  C12 UNL     1      16.943  10.808 -12.015  1.00  0.00     0.182 A 
ATOM     21  H2  UNL     1      16.792   9.501 -13.689  1.00  0.00     0.166 HD
ENDBRANCH  15  16
ENDBRANCH   2  15
TORSDOF 4
ENDMDL
MODEL 3
REMARK VINA RESULT: -7.510221369      1.723      2.345
REMARK  4 active torsions:
REMARK  status: ('A' for Active; 'I' for Inactive)
REMARK    1  A    between atoms: C2_2  and  C5_5 
REMARK    2  A    between atoms: C6_6  and  C7_7 
REMARK    3  A    between atoms: C8_8  and  C9_9 
REMARK    4  A    between atoms: C9_9  and  N1_10 
ROOT
HETATM    1  C7  UNL     1      14.518  12.584  -9.759  1.00  0.00     0.055 A 
HETATM    2  C8  UNL     1      15.269  11.519 -10.159  1.00  0.00     0.023 A 
HETATM    3  S1  UNL     1      15.006  10.353  -8.940  1.00  0.00    -0.075 SA
HETATM    4  C13 UNL     1      13.948  11.242  -7.948  1.00  0.00     0.109 A 
HETATM    5  N3  UNL     1      13.308  10.857  -6.702  1.00  0.00    -0.093 NA
HETATM    6  C14 UNL     1      13.823  12.442  -8.598  1.00  0.00     0.095 A 
HETATM    7  C15 UNL     1      12.966  13.509  -8.039  1.00  0.00     0.103 C 
HETATM    8  N4  UNL     1      12.275  14.343  -7.587  1.00  0.00    -0.191 NA
ENDROOT
BRANCH   1   9
HETATM    9  C6  UNL     1      14.502  13.829 -10.556  1.00  0.00    -0.063 C 
HETATM   10  C5  UNL     1      14.518  14.853 -11.212  1.00  0.00    -0.092 C 
BRANCH  10  11
HETATM   11  C2  UNL     1      14.565  16.083 -11.999  1.00  0.00     0.013 C 
HETATM   12  C1  UNL     1      15.079  17.265 -11.181  1.00  0.00     0.028 C 
HETATM   13  C3  UNL     1      15.489  15.845 -13.164  1.00  0.00     0.028 C 
HETATM   14  C4  UNL     1      13.174  16.470 -12.467  1.00  0.00     0.028 C 
ENDBRANCH  10  11
ENDBRANCH   1   9
BRANCH   2  15
HETATM   15  C9  UNL     1      16.122  11.345 -11.390  1.00  0.00     0.176 C 
BRANCH  15  16
HETATM   16  N1  UNL     1      17.312  12.117 -11.373  1.00  0.00    -0.347 N 
HETATM   17  C10 UNL     1      17.727  12.889 -12.415  1.00  0.00     0.109 A 
HETATM   18  C11 UNL     1      18.911  13.501 -12.102  1.00  0.00     0.106 A 
HETATM   19  N2  UNL     1      19.229  13.105 -10.860  1.00  0.00    -0.361 N 
HETATM   20  C12 UNL     1      18.247  12.264 -10.433  1.00  0.00     0.182 A 
ATOM     21  H2  UNL     1      20.056  13.382 -10.332  1.00  0.00     0.166 HD
ENDBRANCH  15  16
ENDBRANCH   2  15
TORSDOF 4
ENDMDL
MODEL 4
REMARK VINA RESULT: -7.459114656      1.351      4.752
REMARK  4 active torsions:
REMARK  status: ('A' for Active; 'I' for Inactive)
REMARK    1  A    between atoms: C2_2  and  C5_5 
REMARK    2  A    between atoms: C6_6  and  C7_7 
REMARK    3  A    between atoms: C8_8  and  C9_9 
REMARK    4  A    between atoms: C9_9  and  N1_10 
ROOT
HETATM    1  C7  UNL     1      17.461  13.323 -11.679  1.00  0.00     0.055 A 
HETATM    2  C8  UNL     1      17.231  11.982 -11.594  1.00  0.00     0.023 A 
HETATM    3  S1  UNL     1      18.769  11.288 -11.852  1.00  0.00    -0.075 SA
HETATM    4  C13 UNL     1      19.671  12.714 -12.061  1.00  0.00     0.109 A 
HETATM    5  N3  UNL     1      21.091  12.878 -12.325  1.00  0.00    -0.093 NA
HETATM    6  C14 UNL     1      18.741  13.712 -11.924  1.00  0.00     0.095 A 
HETATM    7  C15 UNL     1      19.143  15.130 -12.043  1.00  0.00     0.103 C 
HETATM    8  N4  UNL     1      19.478  16.250 -12.130  1.00  0.00    -0.191 NA
ENDROOT
BRANCH   1   9
HETATM    9  C6  UNL     1      16.345  14.283 -11.534  1.00  0.00    -0.063 C 
HETATM   10  C5  UNL     1      15.446  15.090 -11.399  1.00  0.00    -0.092 C 
BRANCH  10  11
HETATM   11  C2  UNL     1      14.380  16.074 -11.219  1.00  0.00     0.013 C 
HETATM   12  C1  UNL     1      13.462  16.151 -12.436  1.00  0.00     0.028 C 
HETATM   13  C3  UNL     1      13.577  15.662 -10.014  1.00  0.00     0.028 C 
HETATM   14  C4  UNL     1      14.963  17.465 -11.046  1.00  0.00     0.028 C 
ENDBRANCH  10  11
ENDBRANCH   1   9
BRANCH   2  15
HETATM   15  C9  UNL     1      15.952  11.236 -11.311  1.00  0.00     0.176 C 
BRANCH  15  16
HETATM   16  N1  UNL     1      15.650  11.123  -9.930  1.00  0.00    -0.347 N 
HETATM   17  C10 UNL     1      14.638  11.797  -9.318  1.00  0.00     0.109 A 
HETATM   18  C11 UNL     1      14.606  11.488  -7.986  1.00  0.00     0.106 A 
HETATM   19  N2  UNL     1      15.605  10.617  -7.772  1.00  0.00    -0.361 N 
HETATM   20  C12 UNL     1      16.228  10.407  -8.963  1.00  0.00     0.182 A 
ATOM     21  H2  UNL     1      15.852  10.191  -6.879  1.00  0.00     0.166 HD
ENDBRANCH  15  16
ENDBRANCH   2  15
TORSDOF 4
ENDMDL
MODEL 5
REMARK VINA RESULT: -7.404698132      1.768      2.514
REMARK  4 active torsions:
REMARK  status: ('A' for Active; 'I' for Inactive)
REMARK    1  A    between atoms: C2_2  and  C5_5 
REMARK    2  A    between atoms: C6_6  and  C7_7 
REMARK    3  A    between atoms: C8_8  and  C9_9 
REMARK    4  A    between atoms: C9_9  and  N1_10 
ROOT
HETATM    1  C7  UNL     1      15.728  13.478 -10.212  1.00  0.00     0.055 A 
HETATM    2  C8  UNL     1      16.874  12.859 -10.617  1.00  0.00     0.023 A 
HETATM    3  S1  UNL     1      17.090  11.612  -9.471  1.00  0.00    -0.075 SA
HETATM    4  C13 UNL     1      15.722  11.902  -8.504  1.00  0.00     0.109 A 
HETATM    5  N3  UNL     1      15.264  11.199  -7.317  1.00  0.00    -0.093 NA
HETATM    6  C14 UNL     1      15.120  12.978  -9.103  1.00  0.00     0.095 A 
HETATM    7  C15 UNL     1      13.872  13.543  -8.547  1.00  0.00     0.103 C 
HETATM    8  N4  UNL     1      12.877  13.974  -8.099  1.00  0.00    -0.191 NA
ENDROOT
BRANCH   1   9
HETATM    9  C6  UNL     1      15.212  14.651 -10.950  1.00  0.00    -0.063 C 
HETATM   10  C5  UNL     1      14.808  15.631 -11.545  1.00  0.00    -0.092 C 
BRANCH  10  11
HETATM   11  C2  UNL     1      14.341  16.825 -12.248  1.00  0.00     0.013 C 
HETATM   12  C1  UNL     1      12.818  16.876 -12.339  1.00  0.00     0.028 C 
HETATM   13  C3  UNL     1      14.835  18.025 -11.483  1.00  0.00     0.028 C 
HETATM   14  C4  UNL     1      14.848  16.834 -13.679  1.00  0.00     0.028 C 
ENDBRANCH  10  11
ENDBRANCH   1   9
BRANCH   2  15
HETATM   15  C9  UNL     1      17.761  13.146 -11.801  1.00  0.00     0.176 C 
BRANCH  15  16
HETATM   16  N1  UNL     1      18.319  11.982 -12.391  1.00  0.00    -0.347 N 
HETATM   17  C10 UNL     1      17.590  11.057 -13.073  1.00  0.00     0.109 A 
HETATM   18  C11 UNL     1      18.405  10.049 -13.512  1.00  0.00     0.106 A 
HETATM   19  N2  UNL     1      19.645  10.353 -13.098  1.00  0.00    -0.361 N 
HETATM   20  C12 UNL     1      19.574  11.530 -12.419  1.00  0.00     0.182 A 
ATOM     21  H2  UNL     1      20.487   9.802 -13.262  1.00  0.00     0.166 HD
ENDBRANCH  15  16
ENDBRANCH   2  15
TORSDOF 4
ENDMDL
