MODEL 1
REMARK VINA RESULT: -6.574318571      0.000      0.000
REMARK  4 active torsions:
REMARK  status: ('A' for Active; 'I' for Inactive)
REMARK    1  A    between atoms: C2_2  and  N1_5 
REMARK    2  A    between atoms: N1_5  and  C5_7 
REMARK    3  A    between atoms: C6_10  and  C7_11 
REMARK       I    between atoms: C7_11  and  N2_13 
REMARK    4  A    between atoms: N2_13  and  C8_15 
ROOT
HETATM    1  C5  UNL     1      14.455  13.042  -8.175  1.00  0.00     0.100 A 
HETATM    2  S1  UNL     1      13.801  14.193  -9.196  1.00  0.00    -0.033 SA
HETATM    3  S2  UNL     1      14.901  13.375 -10.601  1.00  0.00    -0.043 SA
HETATM    4  C6  UNL     1      15.203  12.499  -9.171  1.00  0.00     0.114 A 
ENDROOT
BRANCH   4   5
HETATM    5  C7  UNL     1      16.152  11.347  -9.146  1.00  0.00     0.267 C 
HETATM    6  O1  UNL     1      15.681  10.212  -9.369  1.00  0.00    -0.267 OA
HETATM    7  N2  UNL     1      17.543  11.493  -8.882  1.00  0.00    -0.302 N 
ATOM      8  H2  UNL     1      17.973  11.145  -8.025  1.00  0.00     0.171 HD
BRANCH   7   9
HETATM    9  C8  UNL     1      18.236  12.108  -9.816  1.00  0.00     0.151 A 
HETATM   10  N3  UNL     1      18.980  13.203  -9.685  1.00  0.00    -0.346 N 
HETATM   11  C9  UNL     1      19.598  13.670 -10.729  1.00  0.00     0.097 A 
ATOM     12  H3  UNL     1      19.063  13.669  -8.781  1.00  0.00     0.167 HD
HETATM   13  C10 UNL     1      19.448  13.002 -11.916  1.00  0.00     0.070 A 
HETATM   14  S3  UNL     1      18.411  11.720 -11.468  1.00  0.00    -0.064 SA
ENDBRANCH   7   9
ENDBRANCH   4   5
BRANCH   1  15
HETATM   15  N1  UNL     1      14.266  12.764  -6.768  1.00  0.00    -0.374 N 
ATOM     16  H1  UNL     1      14.653  13.412  -6.082  1.00  0.00     0.161 HD
BRANCH  15  17
HETATM   17  C2  UNL     1      13.560  11.619  -6.308  1.00  0.00     0.020 C 
HETATM   18  C1  UNL     1      12.642  11.902  -5.147  1.00  0.00     0.037 C 
HETATM   19  C3  UNL     1      12.663  11.144  -7.459  1.00  0.00     0.037 C 
HETATM   20  C4  UNL     1      14.521  10.513  -5.966  1.00  0.00     0.037 C 
ENDBRANCH  15  17
ENDBRANCH   1  15
TORSDOF 4
ENDMDL
MODEL 2
REMARK VINA RESULT: -6.555752896      1.113      1.616
REMARK  4 active torsions:
REMARK  status: ('A' for Active; 'I' for Inactive)
REMARK    1  A    between atoms: C2_2  and  N1_5 
REMARK    2  A    between atoms: N1_5  and  C5_7 
REMARK    3  A    between atoms: C6_10  and  C7_11 
REMARK       I    between atoms: C7_11  and  N2_13 
REMARK    4  A    between atoms: N2_13  and  C8_15 
ROOT
HETATM    1  C5  UNL     1      14.962  12.418  -8.650  1.00  0.00     0.100 A 
HETATM    2  S1  UNL     1      14.054  13.771  -9.024  1.00  0.00    -0.033 SA
HETATM    3  S2  UNL     1      14.567  13.431 -10.889  1.00  0.00    -0.043 SA
HETATM    4  C6  UNL     1      15.298  12.212  -9.950  1.00  0.00     0.114 A 
ENDROOT
BRANCH   4   5
HETATM    5  C7  UNL     1      16.143  11.149 -10.571  1.00  0.00     0.267 C 
HETATM    6  O1  UNL     1      15.600  10.406 -11.416  1.00  0.00    -0.267 OA
HETATM    7  N2  UNL     1      17.514  10.957 -10.241  1.00  0.00    -0.302 N 
ATOM      8  H2  UNL     1      17.840  10.136  -9.730  1.00  0.00     0.171 HD
BRANCH   7   9
HETATM    9  C8  UNL     1      18.332  11.908 -10.637  1.00  0.00     0.151 A 
HETATM   10  N3  UNL     1      18.862  12.880  -9.899  1.00  0.00    -0.346 N 
HETATM   11  C9  UNL     1      19.656  13.737 -10.469  1.00  0.00     0.097 A 
ATOM     12  H3  UNL     1      18.649  12.951  -8.904  1.00  0.00     0.167 HD
HETATM   13  C10 UNL     1      19.904  13.590 -11.809  1.00  0.00     0.070 A 
HETATM   14  S3  UNL     1      18.972  12.210 -12.189  1.00  0.00    -0.064 SA
ENDBRANCH   7   9
ENDBRANCH   4   5
BRANCH   1  15
HETATM   15  N1  UNL     1      15.252  11.752  -7.399  1.00  0.00    -0.374 N 
ATOM     16  H1  UNL     1      16.046  12.072  -6.843  1.00  0.00     0.161 HD
BRANCH  15  17
HETATM   17  C2  UNL     1      14.470  10.667  -6.916  1.00  0.00     0.020 C 
HETATM   18  C1  UNL     1      13.850   9.837  -8.011  1.00  0.00     0.037 C 
HETATM   19  C3  UNL     1      15.412   9.731  -6.149  1.00  0.00     0.037 C 
HETATM   20  C4  UNL     1      13.414  11.165  -5.967  1.00  0.00     0.037 C 
ENDBRANCH  15  17
ENDBRANCH   1  15
TORSDOF 4
ENDMDL
MODEL 3
REMARK VINA RESULT: -6.536955967      1.092      1.158
REMARK  4 active torsions:
REMARK  status: ('A' for Active; 'I' for Inactive)
REMARK    1  A    between atoms: C2_2  and  N1_5 
REMARK    2  A    between atoms: N1_5  and  C5_7 
REMARK    3  A    between atoms: C6_10  and  C7_11 
REMARK       I    between atoms: C7_11  and  N2_13 
REMARK    4  A    between atoms: N2_13  and  C8_15 
ROOT
HETATM    1  C5  UNL     1      14.960  12.393  -8.609  1.00  0.00     0.100 A 
HETATM    2  S1  UNL     1      14.029  13.735  -8.967  1.00  0.00    -0.033 SA
HETATM    3  S2  UNL     1      14.498  13.392 -10.842  1.00  0.00    -0.043 SA
HETATM    4  C6  UNL     1      15.265  12.184  -9.917  1.00  0.00     0.114 A 
ENDROOT
BRANCH   4   5
HETATM    5  C7  UNL     1      16.104  11.127 -10.554  1.00  0.00     0.267 C 
HETATM    6  O1  UNL     1      15.555  10.393 -11.402  1.00  0.00    -0.267 OA
HETATM    7  N2  UNL     1      17.478  10.931 -10.237  1.00  0.00    -0.302 N 
ATOM      8  H2  UNL     1      17.808  10.106  -9.737  1.00  0.00     0.171 HD
BRANCH   7   9
HETATM    9  C8  UNL     1      18.293  11.886 -10.631  1.00  0.00     0.151 A 
HETATM   10  N3  UNL     1      18.836  12.846  -9.886  1.00  0.00    -0.346 N 
HETATM   11  C9  UNL     1      19.624  13.710 -10.455  1.00  0.00     0.097 A 
ATOM     12  H3  UNL     1      18.636  12.904  -8.888  1.00  0.00     0.167 HD
HETATM   13  C10 UNL     1      19.854  13.581 -11.799  1.00  0.00     0.070 A 
HETATM   14  S3  UNL     1      18.913  12.209 -12.187  1.00  0.00    -0.064 SA
ENDBRANCH   7   9
ENDBRANCH   4   5
BRANCH   1  15
HETATM   15  N1  UNL     1      15.290  11.736  -7.363  1.00  0.00    -0.374 N 
ATOM     16  H1  UNL     1      16.149  11.999  -6.881  1.00  0.00     0.161 HD
BRANCH  15  17
HETATM   17  C2  UNL     1      14.457  10.738  -6.787  1.00  0.00     0.020 C 
HETATM   18  C1  UNL     1      13.315  11.298  -5.979  1.00  0.00     0.037 C 
HETATM   19  C3  UNL     1      13.822   9.953  -7.941  1.00  0.00     0.037 C 
HETATM   20  C4  UNL     1      15.276   9.788  -5.957  1.00  0.00     0.037 C 
ENDBRANCH  15  17
ENDBRANCH   1  15
TORSDOF 4
ENDMDL
MODEL 4
REMARK VINA RESULT: -6.527796212      1.114      1.500
REMARK  4 active torsions:
REMARK  status: ('A' for Active; 'I' for Inactive)
REMARK    1  A    between atoms: C2_2  and  N1_5 
REMARK    2  A    between atoms: N1_5  and  C5_7 
REMARK    3  A    between atoms: C6_10  and  C7_11 
REMARK       I    between atoms: C7_11  and  N2_13 
REMARK    4  A    between atoms: N2_13  and  C8_15 
ROOT
HETATM    1  C5  UNL     1      14.979  12.391  -8.629  1.00  0.00     0.100 A 
HETATM    2  S1  UNL     1      14.046  13.733  -8.983  1.00  0.00    -0.033 SA
HETATM    3  S2  UNL     1      14.520  13.399 -10.859  1.00  0.00    -0.043 SA
HETATM    4  C6  UNL     1      15.287  12.189  -9.937  1.00  0.00     0.114 A 
ENDROOT
BRANCH   4   5
HETATM    5  C7  UNL     1      16.130  11.136 -10.577  1.00  0.00     0.267 C 
HETATM    6  O1  UNL     1      15.585  10.407 -11.432  1.00  0.00    -0.267 OA
HETATM    7  N2  UNL     1      17.502  10.938 -10.253  1.00  0.00    -0.302 N 
ATOM      8  H2  UNL     1      17.830  10.109  -9.757  1.00  0.00     0.171 HD
BRANCH   7   9
HETATM    9  C8  UNL     1      18.319  11.896 -10.637  1.00  0.00     0.151 A 
HETATM   10  N3  UNL     1      18.841  12.864  -9.887  1.00  0.00    -0.346 N 
HETATM   11  C9  UNL     1      19.636  13.729 -10.445  1.00  0.00     0.097 A 
ATOM     12  H3  UNL     1      18.621  12.926  -8.893  1.00  0.00     0.167 HD
HETATM   13  C10 UNL     1      19.893  13.593 -11.784  1.00  0.00     0.070 A 
HETATM   14  S3  UNL     1      18.968  12.213 -12.182  1.00  0.00    -0.064 SA
ENDBRANCH   7   9
ENDBRANCH   4   5
BRANCH   1  15
HETATM   15  N1  UNL     1      15.306  11.729  -7.385  1.00  0.00    -0.374 N 
ATOM     16  H1  UNL     1      16.117  12.050  -6.855  1.00  0.00     0.161 HD
BRANCH  15  17
HETATM   17  C2  UNL     1      14.537  10.648  -6.875  1.00  0.00     0.020 C 
HETATM   18  C1  UNL     1      15.316   9.727  -5.971  1.00  0.00     0.037 C 
HETATM   19  C3  UNL     1      13.418  11.249  -6.015  1.00  0.00     0.037 C 
HETATM   20  C4  UNL     1      13.909   9.875  -8.003  1.00  0.00     0.037 C 
ENDBRANCH  15  17
ENDBRANCH   1  15
TORSDOF 4
ENDMDL
MODEL 5
REMARK VINA RESULT: -6.493923991      0.876      1.007
REMARK  4 active torsions:
REMARK  status: ('A' for Active; 'I' for Inactive)
REMARK    1  A    between atoms: C2_2  and  N1_5 
REMARK    2  A    between atoms: N1_5  and  C5_7 
REMARK    3  A    between atoms: C6_10  and  C7_11 
REMARK       I    between atoms: C7_11  and  N2_13 
REMARK    4  A    between atoms: N2_13  and  C8_15 
ROOT
HETATM    1  C5  UNL     1      14.568  12.898  -8.256  1.00  0.00     0.100 A 
HETATM    2  S1  UNL     1      13.898  14.029  -9.289  1.00  0.00    -0.033 SA
HETATM    3  S2  UNL     1      15.006  13.208 -10.686  1.00  0.00    -0.043 SA
HETATM    4  C6  UNL     1      15.321  12.353  -9.247  1.00  0.00     0.114 A 
ENDROOT
BRANCH   4   5
HETATM    5  C7  UNL     1      16.285  11.214  -9.210  1.00  0.00     0.267 C 
HETATM    6  O1  UNL     1      15.811  10.060  -9.267  1.00  0.00    -0.267 OA
HETATM    7  N2  UNL     1      17.694  11.392  -9.112  1.00  0.00    -0.302 N 
ATOM      8  H2  UNL     1      18.218  11.133  -8.276  1.00  0.00     0.171 HD
BRANCH   7   9
HETATM    9  C8  UNL     1      18.274  11.913 -10.171  1.00  0.00     0.151 A 
HETATM   10  N3  UNL     1      18.480  11.332 -11.351  1.00  0.00    -0.346 N 
HETATM   11  C9  UNL     1      19.076  12.009 -12.288  1.00  0.00     0.097 A 
ATOM     12  H3  UNL     1      18.176  10.372 -11.516  1.00  0.00     0.167 HD
HETATM   13  C10 UNL     1      19.460  13.293 -12.006  1.00  0.00     0.070 A 
HETATM   14  S3  UNL     1      18.943  13.468 -10.387  1.00  0.00    -0.064 SA
ENDBRANCH   7   9
ENDBRANCH   4   5
BRANCH   1  15
HETATM   15  N1  UNL     1      14.385  12.634  -6.845  1.00  0.00    -0.374 N 
ATOM     16  H1  UNL     1      14.789  13.280  -6.167  1.00  0.00     0.161 HD
BRANCH  15  17
HETATM   17  C2  UNL     1      13.661  11.506  -6.371  1.00  0.00     0.020 C 
HETATM   18  C1  UNL     1      12.715  11.826  -5.242  1.00  0.00     0.037 C 
HETATM   19  C3  UNL     1      12.792  11.002  -7.530  1.00  0.00     0.037 C 
HETATM   20  C4  UNL     1      14.608  10.406  -5.973  1.00  0.00     0.037 C 
ENDBRANCH  15  17
ENDBRANCH   1  15
TORSDOF 4
ENDMDL
