MODEL 1
REMARK VINA RESULT: -8.771692500      0.000      0.000
REMARK  6 active torsions:
REMARK  status: ('A' for Active; 'I' for Inactive)
REMARK    1  A    between atoms: C2_2  and  C4_4 
REMARK    2  A    between atoms: C11_11  and  N1_12 
REMARK       I    between atoms: N1_12  and  C12_14 
REMARK    3  A    between atoms: C12_14  and  C13_16 
REMARK    4  A    between atoms: C13_16  and  S1_17 
REMARK    5  A    between atoms: S1_17  and  C14_18 
REMARK    6  A    between atoms: N4_24  and  C16_26 
ROOT
HETATM    1  N1  UNL     1       7.518 -11.897 -24.636  1.00  0.00    -0.355 N 
ATOM      2  H1  UNL     1       7.249 -11.514 -25.543  1.00  0.00     0.162 HD
HETATM    3  C12 UNL     1       7.101 -11.196 -23.490  1.00  0.00     0.227 C 
HETATM    4  O1  UNL     1       7.328 -11.539 -22.326  1.00  0.00    -0.273 OA
ENDROOT
BRANCH   3   5
HETATM    5  C13 UNL     1       6.313  -9.927 -23.750  1.00  0.00     0.184 C 
BRANCH   5   6
HETATM    6  S1  UNL     1       5.279  -9.511 -22.323  1.00  0.00    -0.094 SA
BRANCH   6   7
HETATM    7  C14 UNL     1       3.586  -9.303 -22.926  1.00  0.00     0.130 A 
HETATM    8  N2  UNL     1       2.863  -8.195 -22.976  1.00  0.00    -0.286 N 
HETATM    9  N3  UNL     1       1.697  -8.206 -23.473  1.00  0.00    -0.279 N 
ATOM     10  H2  UNL     1       3.248  -7.324 -22.610  1.00  0.00     0.188 HD
HETATM   11  C15 UNL     1       1.217  -9.367 -23.946  1.00  0.00     0.162 A 
ATOM     12  H3  UNL     1       1.137  -7.354 -23.513  1.00  0.00     0.189 HD
HETATM   13  N4  UNL     1       0.035  -9.556 -24.493  1.00  0.00    -0.365 N 
HETATM   14  S2  UNL     1       2.514 -10.430 -23.642  1.00  0.00    -0.027 SA
ATOM     15  H4  UNL     1      -0.631  -8.790 -24.598  1.00  0.00     0.162 HD
BRANCH  13  16
HETATM   16  C16 UNL     1      -0.280 -10.890 -24.937  1.00  0.00     0.083 A 
HETATM   17  C17 UNL     1      -1.223 -11.721 -24.150  1.00  0.00     0.027 A 
HETATM   18  C18 UNL     1      -1.734 -11.061 -25.375  1.00  0.00     0.027 A 
ENDBRANCH  13  16
ENDBRANCH   6   7
ENDBRANCH   5   6
ENDBRANCH   3   5
BRANCH   1  19
HETATM   19  C11 UNL     1       8.308 -13.135 -24.634  1.00  0.00     0.093 C 
HETATM   20  C4  UNL     1       7.516 -14.357 -24.702  1.00  0.00     0.034 C 
HETATM   21  C5  UNL     1       8.430 -15.522 -24.903  1.00  0.00    -0.023 C 
HETATM   22  C6  UNL     1       9.657 -15.429 -25.327  1.00  0.00    -0.021 C 
HETATM   23  C7  UNL     1      10.331 -14.157 -25.678  1.00  0.00    -0.028 C 
HETATM   24  C8  UNL     1      10.855 -14.342 -27.117  1.00  0.00     0.019 C 
HETATM   25  C9  UNL     1      11.591 -14.063 -24.831  1.00  0.00     0.019 C 
HETATM   26  C10 UNL     1       9.456 -12.975 -25.610  1.00  0.00     0.038 C 
BRANCH  20  27
HETATM   27  C2  UNL     1       6.394 -14.534 -25.640  1.00  0.00    -0.013 C 
HETATM   28  C1  UNL     1       6.623 -14.840 -27.053  1.00  0.00     0.010 C 
HETATM   29  C3  UNL     1       5.434 -15.634 -25.136  1.00  0.00     0.010 C 
ENDBRANCH  20  27
ENDBRANCH   1  19
TORSDOF 6
ENDMDL
MODEL 2
REMARK VINA RESULT: -8.594139962      3.299      8.921
REMARK  6 active torsions:
REMARK  status: ('A' for Active; 'I' for Inactive)
REMARK    1  A    between atoms: C2_2  and  C4_4 
REMARK    2  A    between atoms: C11_11  and  N1_12 
REMARK       I    between atoms: N1_12  and  C12_14 
REMARK    3  A    between atoms: C12_14  and  C13_16 
REMARK    4  A    between atoms: C13_16  and  S1_17 
REMARK    5  A    between atoms: S1_17  and  C14_18 
REMARK    6  A    between atoms: N4_24  and  C16_26 
ROOT
HETATM    1  N1  UNL     1       4.934 -13.121 -24.305  1.00  0.00    -0.355 N 
ATOM      2  H1  UNL     1       5.945 -12.994 -24.351  1.00  0.00     0.162 HD
HETATM    3  C12 UNL     1       4.424 -14.377 -24.678  1.00  0.00     0.227 C 
HETATM    4  O1  UNL     1       3.230 -14.694 -24.659  1.00  0.00    -0.273 OA
ENDROOT
BRANCH   3   5
HETATM    5  C13 UNL     1       5.454 -15.392 -25.134  1.00  0.00     0.184 C 
BRANCH   5   6
HETATM    6  S1  UNL     1       6.288 -14.828 -26.639  1.00  0.00    -0.094 SA
BRANCH   6   7
HETATM    7  C14 UNL     1       7.968 -14.344 -26.175  1.00  0.00     0.130 A 
HETATM    8  N2  UNL     1       8.345 -13.440 -25.285  1.00  0.00    -0.286 N 
HETATM    9  N3  UNL     1       9.575 -13.247 -25.041  1.00  0.00    -0.279 N 
ATOM     10  H2  UNL     1       7.640 -12.893 -24.790  1.00  0.00     0.188 HD
HETATM   11  C15 UNL     1      10.479 -13.981 -25.707  1.00  0.00     0.162 A 
ATOM     12  H3  UNL     1       9.869 -12.551 -24.355  1.00  0.00     0.189 HD
HETATM   13  N4  UNL     1      11.787 -13.912 -25.576  1.00  0.00    -0.365 N 
HETATM   14  S2  UNL     1       9.483 -14.952 -26.691  1.00  0.00    -0.027 SA
ATOM     15  H4  UNL     1      12.222 -13.259 -24.923  1.00  0.00     0.162 HD
BRANCH  13  16
HETATM   16  C16 UNL     1      12.579 -14.797 -26.392  1.00  0.00     0.083 A 
HETATM   17  C17 UNL     1      13.323 -14.252 -27.553  1.00  0.00     0.027 A 
HETATM   18  C18 UNL     1      14.080 -14.526 -26.308  1.00  0.00     0.027 A 
ENDBRANCH  13  16
ENDBRANCH   6   7
ENDBRANCH   5   6
ENDBRANCH   3   5
BRANCH   1  19
HETATM   19  C11 UNL     1       4.130 -11.978 -23.853  1.00  0.00     0.093 C 
HETATM   20  C4  UNL     1       4.872 -10.979 -23.093  1.00  0.00     0.034 C 
HETATM   21  C5  UNL     1       4.004  -9.784 -22.876  1.00  0.00    -0.023 C 
HETATM   22  C6  UNL     1       2.930  -9.520 -23.563  1.00  0.00    -0.021 C 
HETATM   23  C7  UNL     1       2.410 -10.362 -24.665  1.00  0.00    -0.028 C 
HETATM   24  C8  UNL     1       2.267  -9.423 -25.881  1.00  0.00     0.019 C 
HETATM   25  C9  UNL     1       0.979 -10.738 -24.313  1.00  0.00     0.019 C 
HETATM   26  C10 UNL     1       3.277 -11.502 -25.010  1.00  0.00     0.038 C 
BRANCH  20  27
HETATM   27  C2  UNL     1       6.191 -10.472 -23.510  1.00  0.00    -0.013 C 
HETATM   28  C1  UNL     1       6.499  -9.041 -23.491  1.00  0.00     0.010 C 
HETATM   29  C3  UNL     1       7.315 -11.141 -22.688  1.00  0.00     0.010 C 
ENDBRANCH  20  27
ENDBRANCH   1  19
TORSDOF 6
ENDMDL
MODEL 3
REMARK VINA RESULT: -8.540385816      2.537      7.885
REMARK  6 active torsions:
REMARK  status: ('A' for Active; 'I' for Inactive)
REMARK    1  A    between atoms: C2_2  and  C4_4 
REMARK    2  A    between atoms: C11_11  and  N1_12 
REMARK       I    between atoms: N1_12  and  C12_14 
REMARK    3  A    between atoms: C12_14  and  C13_16 
REMARK    4  A    between atoms: C13_16  and  S1_17 
REMARK    5  A    between atoms: S1_17  and  C14_18 
REMARK    6  A    between atoms: N4_24  and  C16_26 
ROOT
HETATM    1  N1  UNL     1       1.990  -9.260 -24.284  1.00  0.00    -0.355 N 
ATOM      2  H1  UNL     1       2.806  -9.565 -24.815  1.00  0.00     0.162 HD
HETATM    3  C12 UNL     1       1.964  -7.922 -23.853  1.00  0.00     0.227 C 
HETATM    4  O1  UNL     1       1.042  -7.398 -23.220  1.00  0.00    -0.273 OA
ENDROOT
BRANCH   3   5
HETATM    5  C13 UNL     1       3.182  -7.094 -24.214  1.00  0.00     0.184 C 
BRANCH   5   6
HETATM    6  S1  UNL     1       4.370  -7.072 -22.847  1.00  0.00    -0.094 SA
BRANCH   6   7
HETATM    7  C14 UNL     1       5.666  -8.271 -23.240  1.00  0.00     0.130 A 
HETATM    8  N2  UNL     1       6.930  -8.038 -23.556  1.00  0.00    -0.286 N 
HETATM    9  N3  UNL     1       7.732  -8.999 -23.762  1.00  0.00    -0.279 N 
ATOM     10  H2  UNL     1       7.263  -7.077 -23.634  1.00  0.00     0.188 HD
HETATM   11  C15 UNL     1       7.266 -10.252 -23.652  1.00  0.00     0.162 A 
ATOM     12  H3  UNL     1       8.707  -8.823 -24.006  1.00  0.00     0.189 HD
HETATM   13  N4  UNL     1       7.957 -11.359 -23.830  1.00  0.00    -0.365 N 
HETATM   14  S2  UNL     1       5.634  -9.983 -23.242  1.00  0.00    -0.027 SA
ATOM     15  H4  UNL     1       8.946 -11.333 -24.077  1.00  0.00     0.162 HD
BRANCH  13  16
HETATM   16  C16 UNL     1       7.257 -12.607 -23.660  1.00  0.00     0.083 A 
HETATM   17  C17 UNL     1       6.570 -13.225 -24.820  1.00  0.00     0.027 A 
HETATM   18  C18 UNL     1       7.890 -13.770 -24.423  1.00  0.00     0.027 A 
ENDBRANCH  13  16
ENDBRANCH   6   7
ENDBRANCH   5   6
ENDBRANCH   3   5
BRANCH   1  19
HETATM   19  C11 UNL     1       0.938 -10.254 -24.034  1.00  0.00     0.093 C 
HETATM   20  C4  UNL     1      -0.225 -10.136 -24.905  1.00  0.00     0.034 C 
HETATM   21  C5  UNL     1      -1.116 -11.316 -24.694  1.00  0.00    -0.023 C 
HETATM   22  C6  UNL     1      -0.742 -12.429 -24.132  1.00  0.00    -0.021 C 
HETATM   23  C7  UNL     1       0.622 -12.695 -23.620  1.00  0.00    -0.028 C 
HETATM   24  C8  UNL     1       1.081 -13.998 -24.306  1.00  0.00     0.019 C 
HETATM   25  C9  UNL     1       0.491 -13.072 -22.153  1.00  0.00     0.019 C 
HETATM   26  C10 UNL     1       1.587 -11.616 -23.893  1.00  0.00     0.038 C 
BRANCH  20  27
HETATM   27  C2  UNL     1      -0.119  -9.942 -26.361  1.00  0.00    -0.013 C 
HETATM   28  C1  UNL     1      -1.105 -10.512 -27.280  1.00  0.00     0.010 C 
HETATM   29  C3  UNL     1      -0.067  -8.437 -26.705  1.00  0.00     0.010 C 
ENDBRANCH  20  27
ENDBRANCH   1  19
TORSDOF 6
ENDMDL
MODEL 4
REMARK VINA RESULT: -8.479830319      1.364      1.443
REMARK  6 active torsions:
REMARK  status: ('A' for Active; 'I' for Inactive)
REMARK    1  A    between atoms: C2_2  and  C4_4 
REMARK    2  A    between atoms: C11_11  and  N1_12 
REMARK       I    between atoms: N1_12  and  C12_14 
REMARK    3  A    between atoms: C12_14  and  C13_16 
REMARK    4  A    between atoms: C13_16  and  S1_17 
REMARK    5  A    between atoms: S1_17  and  C14_18 
REMARK    6  A    between atoms: N4_24  and  C16_26 
ROOT
HETATM    1  N1  UNL     1       7.838 -11.822 -24.696  1.00  0.00    -0.355 N 
ATOM      2  H1  UNL     1       7.678 -11.382 -25.603  1.00  0.00     0.162 HD
HETATM    3  C12 UNL     1       7.340 -11.160 -23.560  1.00  0.00     0.227 C 
HETATM    4  O1  UNL     1       7.434 -11.572 -22.400  1.00  0.00    -0.273 OA
ENDROOT
BRANCH   3   5
HETATM    5  C13 UNL     1       6.639  -9.843 -23.825  1.00  0.00     0.184 C 
BRANCH   5   6
HETATM    6  S1  UNL     1       5.270  -9.600 -22.664  1.00  0.00    -0.094 SA
BRANCH   6   7
HETATM    7  C14 UNL     1       3.864 -10.558 -23.280  1.00  0.00     0.130 A 
HETATM    8  N2  UNL     1       3.803 -11.856 -23.530  1.00  0.00    -0.286 N 
HETATM    9  N3  UNL     1       2.720 -12.389 -23.919  1.00  0.00    -0.279 N 
ATOM     10  H2  UNL     1       4.635 -12.434 -23.407  1.00  0.00     0.188 HD
HETATM   11  C15 UNL     1       1.643 -11.603 -24.071  1.00  0.00     0.162 A 
ATOM     12  H3  UNL     1       2.670 -13.389 -24.112  1.00  0.00     0.189 HD
HETATM   13  N4  UNL     1       0.447 -11.990 -24.463  1.00  0.00    -0.365 N 
HETATM   14  S2  UNL     1       2.259 -10.077 -23.630  1.00  0.00    -0.027 SA
ATOM     15  H4  UNL     1       0.251 -12.965 -24.690  1.00  0.00     0.162 HD
BRANCH  13  16
HETATM   16  C16 UNL     1      -0.574 -10.977 -24.557  1.00  0.00     0.083 A 
HETATM   17  C17 UNL     1      -1.686 -11.146 -25.525  1.00  0.00     0.027 A 
HETATM   18  C18 UNL     1      -1.952 -11.454 -24.100  1.00  0.00     0.027 A 
ENDBRANCH  13  16
ENDBRANCH   6   7
ENDBRANCH   5   6
ENDBRANCH   3   5
BRANCH   1  19
HETATM   19  C11 UNL     1       8.569 -13.097 -24.685  1.00  0.00     0.093 C 
HETATM   20  C4  UNL     1       7.720 -14.281 -24.706  1.00  0.00     0.034 C 
HETATM   21  C5  UNL     1       8.572 -15.492 -24.902  1.00  0.00    -0.023 C 
HETATM   22  C6  UNL     1       9.791 -15.466 -25.358  1.00  0.00    -0.021 C 
HETATM   23  C7  UNL     1      10.516 -14.236 -25.753  1.00  0.00    -0.028 C 
HETATM   24  C8  UNL     1      10.994 -14.477 -27.200  1.00  0.00     0.019 C 
HETATM   25  C9  UNL     1      11.799 -14.184 -24.939  1.00  0.00     0.019 C 
HETATM   26  C10 UNL     1       9.698 -13.013 -25.691  1.00  0.00     0.038 C 
BRANCH  20  27
HETATM   27  C2  UNL     1       6.568 -14.425 -25.613  1.00  0.00    -0.013 C 
HETATM   28  C1  UNL     1       6.749 -14.718 -27.035  1.00  0.00     0.010 C 
HETATM   29  C3  UNL     1       5.600 -15.511 -25.094  1.00  0.00     0.010 C 
ENDBRANCH  20  27
ENDBRANCH   1  19
TORSDOF 6
ENDMDL
MODEL 5
REMARK VINA RESULT: -8.319489080      2.528      7.540
REMARK  6 active torsions:
REMARK  status: ('A' for Active; 'I' for Inactive)
REMARK    1  A    between atoms: C2_2  and  C4_4 
REMARK    2  A    between atoms: C11_11  and  N1_12 
REMARK       I    between atoms: N1_12  and  C12_14 
REMARK    3  A    between atoms: C12_14  and  C13_16 
REMARK    4  A    between atoms: C13_16  and  S1_17 
REMARK    5  A    between atoms: S1_17  and  C14_18 
REMARK    6  A    between atoms: N4_24  and  C16_26 
ROOT
HETATM    1  N1  UNL     1       2.633  -9.490 -24.064  1.00  0.00    -0.355 N 
ATOM      2  H1  UNL     1       2.706  -9.044 -24.979  1.00  0.00     0.162 HD
HETATM    3  C12 UNL     1       3.666  -9.246 -23.142  1.00  0.00     0.227 C 
HETATM    4  O1  UNL     1       3.713  -9.696 -21.993  1.00  0.00    -0.273 OA
ENDROOT
BRANCH   3   5
HETATM    5  C13 UNL     1       4.789  -8.357 -23.638  1.00  0.00     0.184 C 
BRANCH   5   6
HETATM    6  S1  UNL     1       6.380  -8.895 -22.959  1.00  0.00    -0.094 SA
BRANCH   6   7
HETATM    7  C14 UNL     1       6.682 -10.574 -23.561  1.00  0.00     0.130 A 
HETATM    8  N2  UNL     1       7.804 -11.274 -23.509  1.00  0.00    -0.286 N 
HETATM    9  N3  UNL     1       7.842 -12.466 -23.939  1.00  0.00    -0.279 N 
ATOM     10  H2  UNL     1       8.646 -10.850 -23.119  1.00  0.00     0.188 HD
HETATM   11  C15 UNL     1       6.718 -12.996 -24.446  1.00  0.00     0.162 A 
ATOM     12  H3  UNL     1       8.705 -13.009 -23.901  1.00  0.00     0.189 HD
HETATM   13  N4  UNL     1       6.581 -14.213 -24.932  1.00  0.00    -0.365 N 
HETATM   14  S2  UNL     1       5.617 -11.708 -24.275  1.00  0.00    -0.027 SA
ATOM     15  H4  UNL     1       7.364 -14.866 -24.956  1.00  0.00     0.162 HD
BRANCH  13  16
HETATM   16  C16 UNL     1       5.279 -14.581 -25.427  1.00  0.00     0.083 A 
HETATM   17  C17 UNL     1       5.164 -15.604 -26.495  1.00  0.00     0.027 A 
HETATM   18  C18 UNL     1       4.886 -16.021 -25.100  1.00  0.00     0.027 A 
ENDBRANCH  13  16
ENDBRANCH   6   7
ENDBRANCH   5   6
ENDBRANCH   3   5
BRANCH   1  19
HETATM   19  C11 UNL     1       1.457 -10.335 -23.819  1.00  0.00     0.093 C 
HETATM   20  C4  UNL     1       0.285  -9.986 -24.613  1.00  0.00     0.034 C 
HETATM   21  C5  UNL     1      -0.763 -11.034 -24.428  1.00  0.00    -0.023 C 
HETATM   22  C6  UNL     1      -0.534 -12.227 -23.961  1.00  0.00    -0.021 C 
HETATM   23  C7  UNL     1       0.798 -12.727 -23.545  1.00  0.00    -0.028 C 
HETATM   24  C8  UNL     1       1.024 -14.030 -24.339  1.00  0.00     0.019 C 
HETATM   25  C9  UNL     1       0.680 -13.185 -22.100  1.00  0.00     0.019 C 
HETATM   26  C10 UNL     1       1.899 -11.784 -23.803  1.00  0.00     0.038 C 
BRANCH  20  27
HETATM   27  C2  UNL     1       0.351  -9.704 -26.057  1.00  0.00    -0.013 C 
HETATM   28  C1  UNL     1      -0.666 -10.212 -26.980  1.00  0.00     0.010 C 
HETATM   29  C3  UNL     1       0.406  -8.182 -26.312  1.00  0.00     0.010 C 
ENDBRANCH  20  27
ENDBRANCH   1  19
TORSDOF 6
ENDMDL
