MODEL 1
REMARK VINA RESULT: -9.555882063      0.000      0.000
REMARK  7 active torsions:
REMARK  status: ('A' for Active; 'I' for Inactive)
REMARK    1  A    between atoms: C2_2  and  C3_3 
REMARK    2  A    between atoms: C3_3  and  N1_4 
REMARK    3  A    between atoms: N1_4  and  C5_6 
REMARK    4  A    between atoms: C9_12  and  N3_13 
REMARK    5  A    between atoms: N3_13  and  C10_15 
REMARK    6  A    between atoms: C12_17  and  C13_18 
REMARK    7  A    between atoms: N4_21  and  C16_22 
ROOT
HETATM    1  C10 UNL     1       3.491 -12.713 -24.124  1.00  0.00     0.137 A 
HETATM    2  C11 UNL     1       4.813 -13.011 -24.339  1.00  0.00     0.077 A 
HETATM    3  C12 UNL     1       4.921 -14.335 -24.766  1.00  0.00     0.033 A 
HETATM    4  N5  UNL     1       3.673 -14.791 -24.795  1.00  0.00    -0.303 N 
ATOM      5  H5  UNL     1       3.408 -15.738 -25.068  1.00  0.00     0.186 HD
HETATM    6  N6  UNL     1       2.831 -13.862 -24.426  1.00  0.00    -0.285 N 
ATOM      7  H6  UNL     1       1.819 -13.982 -24.372  1.00  0.00     0.188 HD
ENDROOT
BRANCH   1   8
HETATM    8  N3  UNL     1       2.889 -11.656 -23.743  1.00  0.00    -0.175 N 
ATOM      9  H3  UNL     1       3.389 -11.020 -23.122  1.00  0.00     0.186 HD
BRANCH   8  10
HETATM   10  C9  UNL     1       1.572 -11.310 -24.129  1.00  0.00     0.685 A 
HETATM   11  N2  UNL     1       0.486 -11.926 -23.631  1.00  0.00    -0.196 N 
HETATM   12  C7  UNL     1      -0.781 -11.629 -23.961  1.00  0.00     0.026 A 
ATOM     13  H2  UNL     1       0.636 -12.672 -22.953  1.00  0.00     0.184 HD
HETATM   14  C6  UNL     1      -0.963 -10.618 -24.879  1.00  0.00     0.074 A 
HETATM   15  C8  UNL     1      -1.956 -12.337 -23.391  1.00  0.00     0.069 C 
HETATM   16  C5  UNL     1       0.133  -9.947 -25.425  1.00  0.00     0.120 A 
HETATM   17  N7  UNL     1       1.359 -10.313 -25.035  1.00  0.00    -0.176 N 
ATOM     18  H7  UNL     1       2.165  -9.829 -25.429  1.00  0.00     0.186 HD
BRANCH  16  19
HETATM   19  N1  UNL     1      -0.098  -8.903 -26.367  1.00  0.00    -0.371 N 
HETATM   20  C4  UNL     1      -0.462  -9.288 -27.713  1.00  0.00     0.151 C 
BRANCH  19  21
HETATM   21  C3  UNL     1       0.033  -7.518 -25.971  1.00  0.00     0.123 C 
BRANCH  21  22
HETATM   22  C2  UNL     1      -0.087  -6.583 -27.161  1.00  0.00     0.015 C 
HETATM   23  C1  UNL     1      -0.462  -5.208 -26.669  1.00  0.00     0.006 C 
ENDBRANCH  21  22
ENDBRANCH  19  21
ENDBRANCH  16  19
ENDBRANCH   8  10
ENDBRANCH   1   8
BRANCH   3  24
HETATM   24  C13 UNL     1       6.213 -14.976 -25.090  1.00  0.00     0.040 C 
HETATM   25  C14 UNL     1       6.501 -15.066 -26.554  1.00  0.00     0.030 C 
HETATM   26  C15 UNL     1       7.841 -14.585 -26.967  1.00  0.00     0.118 C 
HETATM   27  N4  UNL     1       8.912 -14.813 -26.075  1.00  0.00    -0.409 N 
HETATM   28  C19 UNL     1       8.580 -15.080 -24.711  1.00  0.00     0.118 C 
HETATM   29  C20 UNL     1       7.351 -14.278 -24.337  1.00  0.00     0.030 C 
BRANCH  27  30
HETATM   30  C16 UNL     1      10.071 -14.004 -26.260  1.00  0.00     0.070 C 
HETATM   31  C17 UNL     1      11.028 -14.130 -25.088  1.00  0.00     0.031 C 
HETATM   32  C18 UNL     1      10.832 -14.211 -27.521  1.00  0.00     0.031 C 
ENDBRANCH  27  30
ENDBRANCH   3  24
TORSDOF 7
ENDMDL
MODEL 2
REMARK VINA RESULT: -9.311401912      0.743      1.193
REMARK  7 active torsions:
REMARK  status: ('A' for Active; 'I' for Inactive)
REMARK    1  A    between atoms: C2_2  and  C3_3 
REMARK    2  A    between atoms: C3_3  and  N1_4 
REMARK    3  A    between atoms: N1_4  and  C5_6 
REMARK    4  A    between atoms: C9_12  and  N3_13 
REMARK    5  A    between atoms: N3_13  and  C10_15 
REMARK    6  A    between atoms: C12_17  and  C13_18 
REMARK    7  A    between atoms: N4_21  and  C16_22 
ROOT
HETATM    1  C10 UNL     1       3.674 -12.627 -24.166  1.00  0.00     0.137 A 
HETATM    2  C11 UNL     1       4.991 -12.941 -24.388  1.00  0.00     0.077 A 
HETATM    3  C12 UNL     1       5.080 -14.268 -24.812  1.00  0.00     0.033 A 
HETATM    4  N5  UNL     1       3.826 -14.709 -24.831  1.00  0.00    -0.303 N 
ATOM      5  H5  UNL     1       3.548 -15.653 -25.099  1.00  0.00     0.186 HD
HETATM    6  N6  UNL     1       2.997 -13.769 -24.459  1.00  0.00    -0.285 N 
ATOM      7  H6  UNL     1       1.985 -13.876 -24.398  1.00  0.00     0.188 HD
ENDROOT
BRANCH   1   8
HETATM    8  N3  UNL     1       3.087 -11.562 -23.785  1.00  0.00    -0.175 N 
ATOM      9  H3  UNL     1       3.597 -10.931 -23.166  1.00  0.00     0.186 HD
BRANCH   8  10
HETATM   10  C9  UNL     1       1.773 -11.199 -24.166  1.00  0.00     0.685 A 
HETATM   11  N2  UNL     1       0.686 -11.861 -23.738  1.00  0.00    -0.196 N 
HETATM   12  C7  UNL     1      -0.578 -11.552 -24.067  1.00  0.00     0.026 A 
ATOM     13  H2  UNL     1       0.831 -12.658 -23.117  1.00  0.00     0.184 HD
HETATM   14  C6  UNL     1      -0.756 -10.473 -24.906  1.00  0.00     0.074 A 
HETATM   15  C8  UNL     1      -1.756 -12.314 -23.575  1.00  0.00     0.069 C 
HETATM   16  C5  UNL     1       0.343  -9.752 -25.378  1.00  0.00     0.120 A 
HETATM   17  N7  UNL     1       1.565 -10.136 -24.995  1.00  0.00    -0.176 N 
ATOM     18  H7  UNL     1       2.373  -9.615 -25.336  1.00  0.00     0.186 HD
BRANCH  16  19
HETATM   19  N1  UNL     1       0.117  -8.640 -26.239  1.00  0.00    -0.371 N 
HETATM   20  C4  UNL     1      -0.018  -7.337 -25.624  1.00  0.00     0.151 C 
BRANCH  19  21
HETATM   21  C3  UNL     1       0.028  -8.827 -27.670  1.00  0.00     0.123 C 
BRANCH  21  22
HETATM   22  C2  UNL     1       0.879  -7.819 -28.421  1.00  0.00     0.015 C 
HETATM   23  C1  UNL     1       2.308  -8.297 -28.436  1.00  0.00     0.006 C 
ENDBRANCH  21  22
ENDBRANCH  19  21
ENDBRANCH  16  19
ENDBRANCH   8  10
ENDBRANCH   1   8
BRANCH   3  24
HETATM   24  C13 UNL     1       6.362 -14.926 -25.142  1.00  0.00     0.040 C 
HETATM   25  C14 UNL     1       6.651 -15.000 -26.608  1.00  0.00     0.030 C 
HETATM   26  C15 UNL     1       7.999 -14.536 -27.011  1.00  0.00     0.118 C 
HETATM   27  N4  UNL     1       9.065 -14.794 -26.120  1.00  0.00    -0.409 N 
HETATM   28  C19 UNL     1       8.725 -15.074 -24.761  1.00  0.00     0.118 C 
HETATM   29  C20 UNL     1       7.510 -14.257 -24.378  1.00  0.00     0.030 C 
BRANCH  27  30
HETATM   30  C16 UNL     1      10.238 -14.001 -26.292  1.00  0.00     0.070 C 
HETATM   31  C17 UNL     1      11.192 -14.162 -25.123  1.00  0.00     0.031 C 
HETATM   32  C18 UNL     1      10.995 -14.201 -27.556  1.00  0.00     0.031 C 
ENDBRANCH  27  30
ENDBRANCH   3  24
TORSDOF 7
ENDMDL
MODEL 3
REMARK VINA RESULT: -9.099905207      1.283      3.333
REMARK  7 active torsions:
REMARK  status: ('A' for Active; 'I' for Inactive)
REMARK    1  A    between atoms: C2_2  and  C3_3 
REMARK    2  A    between atoms: C3_3  and  N1_4 
REMARK    3  A    between atoms: N1_4  and  C5_6 
REMARK    4  A    between atoms: C9_12  and  N3_13 
REMARK    5  A    between atoms: N3_13  and  C10_15 
REMARK    6  A    between atoms: C12_17  and  C13_18 
REMARK    7  A    between atoms: N4_21  and  C16_22 
ROOT
HETATM    1  C10 UNL     1       4.173 -12.312 -24.052  1.00  0.00     0.137 A 
HETATM    2  C11 UNL     1       5.465 -12.704 -24.297  1.00  0.00     0.077 A 
HETATM    3  C12 UNL     1       5.469 -14.037 -24.710  1.00  0.00     0.033 A 
HETATM    4  N5  UNL     1       4.191 -14.405 -24.701  1.00  0.00    -0.303 N 
ATOM      5  H5  UNL     1       3.854 -15.333 -24.955  1.00  0.00     0.186 HD
HETATM    6  N6  UNL     1       3.426 -13.415 -24.322  1.00  0.00    -0.285 N 
ATOM      7  H6  UNL     1       2.410 -13.463 -24.241  1.00  0.00     0.188 HD
ENDROOT
BRANCH   1   8
HETATM    8  N3  UNL     1       3.657 -11.211 -23.671  1.00  0.00    -0.175 N 
ATOM      9  H3  UNL     1       4.148 -10.677 -22.954  1.00  0.00     0.186 HD
BRANCH   8  10
HETATM   10  C9  UNL     1       2.445 -10.684 -24.177  1.00  0.00     0.685 A 
HETATM   11  N2  UNL     1       2.383  -9.517 -24.839  1.00  0.00    -0.196 N 
HETATM   12  C7  UNL     1       1.261  -8.980 -25.342  1.00  0.00     0.026 A 
ATOM     13  H2  UNL     1       3.253  -9.000 -24.968  1.00  0.00     0.184 HD
HETATM   14  C6  UNL     1       0.095  -9.691 -25.158  1.00  0.00     0.074 A 
HETATM   15  C8  UNL     1       1.233  -7.681 -26.065  1.00  0.00     0.069 C 
HETATM   16  C5  UNL     1       0.106 -10.910 -24.477  1.00  0.00     0.120 A 
HETATM   17  N7  UNL     1       1.275 -11.365 -24.011  1.00  0.00    -0.176 N 
ATOM     18  H7  UNL     1       1.291 -12.255 -23.512  1.00  0.00     0.186 HD
BRANCH  16  19
HETATM   19  N1  UNL     1      -1.119 -11.618 -24.312  1.00  0.00    -0.371 N 
HETATM   20  C4  UNL     1      -2.287 -11.096 -24.989  1.00  0.00     0.151 C 
BRANCH  19  21
HETATM   21  C3  UNL     1      -1.173 -12.810 -23.495  1.00  0.00     0.123 C 
BRANCH  21  22
HETATM   22  C2  UNL     1      -2.049 -12.612 -22.272  1.00  0.00     0.015 C 
HETATM   23  C1  UNL     1      -1.421 -13.319 -21.098  1.00  0.00     0.006 C 
ENDBRANCH  21  22
ENDBRANCH  19  21
ENDBRANCH  16  19
ENDBRANCH   8  10
ENDBRANCH   1   8
BRANCH   3  24
HETATM   24  C13 UNL     1       6.704 -14.772 -25.058  1.00  0.00     0.040 C 
HETATM   25  C14 UNL     1       6.944 -14.901 -26.528  1.00  0.00     0.030 C 
HETATM   26  C15 UNL     1       8.301 -14.521 -26.984  1.00  0.00     0.118 C 
HETATM   27  N4  UNL     1       9.379 -14.810 -26.118  1.00  0.00    -0.409 N 
HETATM   28  C19 UNL     1       9.067 -15.035 -24.742  1.00  0.00     0.118 C 
HETATM   29  C20 UNL     1       7.908 -14.144 -24.347  1.00  0.00     0.030 C 
BRANCH  27  30
HETATM   30  C16 UNL     1      10.586 -14.086 -26.347  1.00  0.00     0.070 C 
HETATM   31  C17 UNL     1      11.517 -14.169 -25.151  1.00  0.00     0.031 C 
HETATM   32  C18 UNL     1      11.351 -14.440 -27.572  1.00  0.00     0.031 C 
ENDBRANCH  27  30
ENDBRANCH   3  24
TORSDOF 7
ENDMDL
MODEL 4
REMARK VINA RESULT: -9.058401427      1.230      3.012
REMARK  7 active torsions:
REMARK  status: ('A' for Active; 'I' for Inactive)
REMARK    1  A    between atoms: C2_2  and  C3_3 
REMARK    2  A    between atoms: C3_3  and  N1_4 
REMARK    3  A    between atoms: N1_4  and  C5_6 
REMARK    4  A    between atoms: C9_12  and  N3_13 
REMARK    5  A    between atoms: N3_13  and  C10_15 
REMARK    6  A    between atoms: C12_17  and  C13_18 
REMARK    7  A    between atoms: N4_21  and  C16_22 
ROOT
HETATM    1  C10 UNL     1       3.996 -12.210 -23.997  1.00  0.00     0.137 A 
HETATM    2  C11 UNL     1       5.285 -12.613 -24.237  1.00  0.00     0.077 A 
HETATM    3  C12 UNL     1       5.279 -13.947 -24.649  1.00  0.00     0.033 A 
HETATM    4  N5  UNL     1       3.999 -14.304 -24.644  1.00  0.00    -0.303 N 
ATOM      5  H5  UNL     1       3.655 -15.230 -24.898  1.00  0.00     0.186 HD
HETATM    6  N6  UNL     1       3.241 -13.307 -24.268  1.00  0.00    -0.285 N 
ATOM      7  H6  UNL     1       2.224 -13.347 -24.189  1.00  0.00     0.188 HD
ENDROOT
BRANCH   1   8
HETATM    8  N3  UNL     1       3.487 -11.105 -23.617  1.00  0.00    -0.175 N 
ATOM      9  H3  UNL     1       3.715 -10.772 -22.680  1.00  0.00     0.186 HD
BRANCH   8  10
HETATM   10  C9  UNL     1       2.627 -10.312 -24.413  1.00  0.00     0.685 A 
HETATM   11  N2  UNL     1       3.003  -9.131 -24.930  1.00  0.00    -0.196 N 
HETATM   12  C7  UNL     1       2.225  -8.347 -25.693  1.00  0.00     0.026 A 
ATOM     13  H2  UNL     1       3.948  -8.806 -24.727  1.00  0.00     0.184 HD
HETATM   14  C6  UNL     1       0.952  -8.802 -25.957  1.00  0.00     0.074 A 
HETATM   15  C8  UNL     1       2.678  -7.042 -26.244  1.00  0.00     0.069 C 
HETATM   16  C5  UNL     1       0.513 -10.024 -25.442  1.00  0.00     0.120 A 
HETATM   17  N7  UNL     1       1.360 -10.736 -24.691  1.00  0.00    -0.176 N 
ATOM     18  H7  UNL     1       1.048 -11.629 -24.311  1.00  0.00     0.186 HD
BRANCH  16  19
HETATM   19  N1  UNL     1      -0.809 -10.462 -25.742  1.00  0.00    -0.371 N 
HETATM   20  C4  UNL     1      -1.196 -10.510 -27.136  1.00  0.00     0.151 C 
BRANCH  19  21
HETATM   21  C3  UNL     1      -1.714 -10.840 -24.680  1.00  0.00     0.123 C 
BRANCH  21  22
HETATM   22  C2  UNL     1      -1.521 -12.288 -24.268  1.00  0.00     0.015 C 
HETATM   23  C1  UNL     1      -2.008 -12.466 -22.853  1.00  0.00     0.006 C 
ENDBRANCH  21  22
ENDBRANCH  19  21
ENDBRANCH  16  19
ENDBRANCH   8  10
ENDBRANCH   1   8
BRANCH   3  24
HETATM   24  C13 UNL     1       6.509 -14.691 -24.993  1.00  0.00     0.040 C 
HETATM   25  C14 UNL     1       6.738 -14.847 -26.463  1.00  0.00     0.030 C 
HETATM   26  C15 UNL     1       8.093 -14.480 -26.935  1.00  0.00     0.118 C 
HETATM   27  N4  UNL     1       9.176 -14.758 -26.071  1.00  0.00    -0.409 N 
HETATM   28  C19 UNL     1       8.874 -14.957 -24.690  1.00  0.00     0.118 C 
HETATM   29  C20 UNL     1       7.721 -14.055 -24.302  1.00  0.00     0.030 C 
BRANCH  27  30
HETATM   30  C16 UNL     1      10.384 -14.042 -26.321  1.00  0.00     0.070 C 
HETATM   31  C17 UNL     1      11.361 -14.183 -25.169  1.00  0.00     0.031 C 
HETATM   32  C18 UNL     1      11.094 -14.359 -27.590  1.00  0.00     0.031 C 
ENDBRANCH  27  30
ENDBRANCH   3  24
TORSDOF 7
ENDMDL
MODEL 5
REMARK VINA RESULT: -8.944514571      2.792      8.237
REMARK  7 active torsions:
REMARK  status: ('A' for Active; 'I' for Inactive)
REMARK    1  A    between atoms: C2_2  and  C3_3 
REMARK    2  A    between atoms: C3_3  and  N1_4 
REMARK    3  A    between atoms: N1_4  and  C5_6 
REMARK    4  A    between atoms: C9_12  and  N3_13 
REMARK    5  A    between atoms: N3_13  and  C10_15 
REMARK    6  A    between atoms: C12_17  and  C13_18 
REMARK    7  A    between atoms: N4_21  and  C16_22 
ROOT
HETATM    1  C10 UNL     1       6.873 -10.427 -23.014  1.00  0.00     0.137 A 
HETATM    2  C11 UNL     1       5.667 -10.079 -23.567  1.00  0.00     0.077 A 
HETATM    3  C12 UNL     1       5.063  -9.104 -22.771  1.00  0.00     0.033 A 
HETATM    4  N5  UNL     1       5.915  -8.897 -21.772  1.00  0.00    -0.303 N 
ATOM      5  H5  UNL     1       5.765  -8.235 -21.011  1.00  0.00     0.186 HD
HETATM    6  N6  UNL     1       6.971  -9.657 -21.899  1.00  0.00    -0.285 N 
ATOM      7  H6  UNL     1       7.759  -9.670 -21.251  1.00  0.00     0.188 HD
ENDROOT
BRANCH   1   8
HETATM    8  N3  UNL     1       7.782 -11.250 -23.361  1.00  0.00    -0.175 N 
ATOM      9  H3  UNL     1       8.751 -11.007 -23.151  1.00  0.00     0.186 HD
BRANCH   8  10
HETATM   10  C9  UNL     1       7.533 -12.478 -24.019  1.00  0.00     0.685 A 
HETATM   11  N2  UNL     1       8.519 -13.278 -24.457  1.00  0.00    -0.196 N 
HETATM   12  C7  UNL     1       8.333 -14.452 -25.080  1.00  0.00     0.026 A 
ATOM     13  H2  UNL     1       9.480 -12.971 -24.304  1.00  0.00     0.184 HD
HETATM   14  C6  UNL     1       7.029 -14.851 -25.277  1.00  0.00     0.074 A 
HETATM   15  C8  UNL     1       9.453 -15.308 -25.554  1.00  0.00     0.069 C 
HETATM   16  C5  UNL     1       5.969 -14.054 -24.841  1.00  0.00     0.120 A 
HETATM   17  N7  UNL     1       6.253 -12.900 -24.229  1.00  0.00    -0.176 N 
ATOM     18  H7  UNL     1       5.484 -12.312 -23.908  1.00  0.00     0.186 HD
BRANCH  16  19
HETATM   19  N1  UNL     1       4.634 -14.505 -25.059  1.00  0.00    -0.371 N 
HETATM   20  C4  UNL     1       4.461 -15.801 -25.679  1.00  0.00     0.151 C 
BRANCH  19  21
HETATM   21  C3  UNL     1       3.511 -13.682 -24.668  1.00  0.00     0.123 C 
BRANCH  21  22
HETATM   22  C2  UNL     1       2.295 -14.523 -24.323  1.00  0.00     0.015 C 
HETATM   23  C1  UNL     1       1.189 -13.616 -23.848  1.00  0.00     0.006 C 
ENDBRANCH  21  22
ENDBRANCH  19  21
ENDBRANCH  16  19
ENDBRANCH   8  10
ENDBRANCH   1   8
BRANCH   3  24
HETATM   24  C13 UNL     1       3.748  -8.504 -23.086  1.00  0.00     0.040 C 
HETATM   25  C14 UNL     1       3.822  -7.298 -23.967  1.00  0.00     0.030 C 
HETATM   26  C15 UNL     1       2.912  -7.311 -25.136  1.00  0.00     0.118 C 
HETATM   27  N4  UNL     1       1.649  -7.920 -24.965  1.00  0.00    -0.409 N 
HETATM   28  C19 UNL     1       1.505  -8.828 -23.871  1.00  0.00     0.118 C 
HETATM   29  C20 UNL     1       2.811  -9.568 -23.669  1.00  0.00     0.030 C 
BRANCH  27  30
HETATM   30  C16 UNL     1       0.967  -8.307 -26.156  1.00  0.00     0.070 C 
HETATM   31  C17 UNL     1       1.943  -8.702 -27.249  1.00  0.00     0.031 C 
HETATM   32  C18 UNL     1      -0.054  -9.380 -26.019  1.00  0.00     0.031 C 
ENDBRANCH  27  30
ENDBRANCH   3  24
TORSDOF 7
ENDMDL
