MODEL 1
REMARK VINA RESULT: -10.347594741      0.000      0.000
REMARK  9 active torsions:
REMARK  status: ('A' for Active; 'I' for Inactive)
REMARK    1  A    between atoms: C2_2  and  C3_3 
REMARK    2  A    between atoms: C8_8  and  C9_9 
REMARK    3  A    between atoms: C9_9  and  C10_10 
REMARK    4  A    between atoms: C14_14  and  O1_15 
REMARK    5  A    between atoms: O1_15  and  C15_16 
REMARK    6  A    between atoms: C18_19  and  O2_20 
REMARK    7  A    between atoms: O2_20  and  C19_21 
REMARK    8  A    between atoms: C21_24  and  O4_25 
REMARK    9  A    between atoms: C22_27  and  O5_28 
ROOT
HETATM    1  O1  UNL     1       6.790 -13.466 -24.660  1.00  0.00    -0.338 OA
ENDROOT
BRANCH   1   2
HETATM    2  C14 UNL     1       5.510 -13.083 -24.375  1.00  0.00     0.087 A 
HETATM    3  C3  UNL     1       4.433 -13.978 -24.549  1.00  0.00     0.003 A 
HETATM    4  C4  UNL     1       3.128 -13.634 -24.284  1.00  0.00    -0.049 A 
HETATM    5  C5  UNL     1       1.948 -14.510 -24.411  1.00  0.00     0.049 C 
HETATM    6  C6  UNL     1       2.847 -12.341 -23.821  1.00  0.00     0.008 A 
HETATM    7  C7  UNL     1       3.905 -11.490 -23.658  1.00  0.00     0.011 A 
HETATM    8  C8  UNL     1       5.219 -11.827 -23.922  1.00  0.00    -0.020 A 
BRANCH   3   9
HETATM    9  C2  UNL     1       4.715 -15.313 -25.018  1.00  0.00     0.004 C 
HETATM   10  C1  UNL     1       4.369 -15.896 -26.128  1.00  0.00     0.012 C 
ENDBRANCH   3   9
BRANCH   8  11
HETATM   11  C9  UNL     1       6.252 -10.782 -23.667  1.00  0.00     0.068 C 
BRANCH  11  12
HETATM   12  C10 UNL     1       5.685  -9.427 -23.613  1.00  0.00    -0.020 C 
HETATM   13  C11 UNL     1       6.502  -8.380 -23.581  1.00  0.00    -0.091 C 
HETATM   14  C12 UNL     1       5.979  -6.967 -23.525  1.00  0.00     0.042 C 
HETATM   15  C13 UNL     1       7.988  -8.532 -23.596  1.00  0.00     0.042 C 
ENDBRANCH  11  12
ENDBRANCH   8  11
ENDBRANCH   1   2
BRANCH   1  16
HETATM   16  C15 UNL     1       7.314 -14.662 -25.097  1.00  0.00     0.183 C 
HETATM   17  C16 UNL     1       8.354 -15.253 -24.141  1.00  0.00     0.006 C 
HETATM   18  C17 UNL     1       9.641 -15.250 -24.442  1.00  0.00     0.006 C 
HETATM   19  C18 UNL     1      10.254 -14.708 -25.681  1.00  0.00     0.185 C 
HETATM   20  C21 UNL     1       9.294 -13.864 -26.394  1.00  0.00     0.182 C 
HETATM   21  C22 UNL     1       7.973 -14.658 -26.447  1.00  0.00     0.182 C 
BRANCH  19  22
HETATM   22  O2  UNL     1      11.536 -14.209 -25.470  1.00  0.00    -0.310 OA
BRANCH  22  23
HETATM   23  C19 UNL     1      12.619 -14.353 -26.294  1.00  0.00     0.255 C 
HETATM   24  C20 UNL     1      14.031 -14.260 -25.860  1.00  0.00     0.126 C 
HETATM   25  O3  UNL     1      12.355 -14.575 -27.482  1.00  0.00    -0.266 OA
ENDBRANCH  22  23
ENDBRANCH  19  22
BRANCH  20  26
HETATM   26  O4  UNL     1       8.977 -12.664 -25.768  1.00  0.00    -0.390 OA
ATOM     27  H4  UNL     1       8.900 -11.913 -26.343  1.00  0.00     0.210 HD
ENDBRANCH  20  26
BRANCH  21  28
HETATM   28  O5  UNL     1       7.266 -14.222 -27.506  1.00  0.00    -0.390 OA
ATOM     29  H5  UNL     1       6.611 -14.798 -27.882  1.00  0.00     0.210 HD
ENDBRANCH  21  28
ENDBRANCH   1  16
TORSDOF 9
ENDMDL
MODEL 2
REMARK VINA RESULT: -9.665089365      4.493      9.119
REMARK  9 active torsions:
REMARK  status: ('A' for Active; 'I' for Inactive)
REMARK    1  A    between atoms: C2_2  and  C3_3 
REMARK    2  A    between atoms: C8_8  and  C9_9 
REMARK    3  A    between atoms: C9_9  and  C10_10 
REMARK    4  A    between atoms: C14_14  and  O1_15 
REMARK    5  A    between atoms: O1_15  and  C15_16 
REMARK    6  A    between atoms: C18_19  and  O2_20 
REMARK    7  A    between atoms: O2_20  and  C19_21 
REMARK    8  A    between atoms: C21_24  and  O4_25 
REMARK    9  A    between atoms: C22_27  and  O5_28 
ROOT
HETATM    1  O1  UNL     1       3.457  -9.536 -24.067  1.00  0.00    -0.338 OA
ENDROOT
BRANCH   1   2
HETATM    2  C14 UNL     1       4.788  -9.786 -23.887  1.00  0.00     0.087 A 
HETATM    3  C3  UNL     1       5.706  -8.727 -23.729  1.00  0.00     0.003 A 
HETATM    4  C4  UNL     1       7.055  -8.929 -23.553  1.00  0.00    -0.049 A 
HETATM    5  C5  UNL     1       8.080  -7.887 -23.354  1.00  0.00     0.049 C 
HETATM    6  C6  UNL     1       7.547 -10.242 -23.530  1.00  0.00     0.008 A 
HETATM    7  C7  UNL     1       6.640 -11.254 -23.683  1.00  0.00     0.011 A 
HETATM    8  C8  UNL     1       5.283 -11.059 -23.860  1.00  0.00    -0.020 A 
BRANCH   3   9
HETATM    9  C2  UNL     1       5.207  -7.373 -23.745  1.00  0.00     0.004 C 
HETATM   10  C1  UNL     1       4.995  -6.575 -24.750  1.00  0.00     0.012 C 
ENDBRANCH   3   9
BRANCH   8  11
HETATM   11  C9  UNL     1       4.434 -12.278 -23.989  1.00  0.00     0.068 C 
BRANCH  11  12
HETATM   12  C10 UNL     1       5.171 -13.426 -24.536  1.00  0.00    -0.020 C 
HETATM   13  C11 UNL     1       4.503 -14.516 -24.900  1.00  0.00    -0.091 C 
HETATM   14  C12 UNL     1       5.204 -15.723 -25.467  1.00  0.00     0.042 C 
HETATM   15  C13 UNL     1       3.018 -14.616 -24.770  1.00  0.00     0.042 C 
ENDBRANCH  11  12
ENDBRANCH   8  11
ENDBRANCH   1   2
BRANCH   1  16
HETATM   16  C15 UNL     1       2.577  -9.920 -25.054  1.00  0.00     0.183 C 
HETATM   17  C16 UNL     1       2.459  -8.901 -26.190  1.00  0.00     0.006 C 
HETATM   18  C17 UNL     1       1.378  -8.153 -26.330  1.00  0.00     0.006 C 
HETATM   19  C18 UNL     1       0.173  -8.177 -25.464  1.00  0.00     0.185 C 
HETATM   20  C21 UNL     1       0.456  -8.895 -24.220  1.00  0.00     0.182 C 
HETATM   21  C22 UNL     1       1.164 -10.204 -24.627  1.00  0.00     0.182 C 
BRANCH  19  22
HETATM   22  O2  UNL     1      -0.449  -6.935 -25.376  1.00  0.00    -0.310 OA
BRANCH  22  23
HETATM   23  C19 UNL     1       0.142  -5.708 -25.513  1.00  0.00     0.255 C 
HETATM   24  C20 UNL     1      -0.184  -4.725 -26.570  1.00  0.00     0.126 C 
HETATM   25  O3  UNL     1       1.009  -5.441 -24.671  1.00  0.00    -0.266 OA
ENDBRANCH  22  23
ENDBRANCH  19  22
BRANCH  20  26
HETATM   26  O4  UNL     1       1.334  -8.257 -23.351  1.00  0.00    -0.390 OA
ATOM     27  H4  UNL     1       1.146  -8.370 -22.427  1.00  0.00     0.210 HD
ENDBRANCH  20  26
BRANCH  21  28
HETATM   28  O5  UNL     1       0.957 -11.110 -23.654  1.00  0.00    -0.390 OA
ATOM     29  H5  UNL     1       0.140 -11.595 -23.652  1.00  0.00     0.210 HD
ENDBRANCH  21  28
ENDBRANCH   1  16
TORSDOF 9
ENDMDL
MODEL 3
REMARK VINA RESULT: -9.624150891      3.678      7.402
REMARK  9 active torsions:
REMARK  status: ('A' for Active; 'I' for Inactive)
REMARK    1  A    between atoms: C2_2  and  C3_3 
REMARK    2  A    between atoms: C8_8  and  C9_9 
REMARK    3  A    between atoms: C9_9  and  C10_10 
REMARK    4  A    between atoms: C14_14  and  O1_15 
REMARK    5  A    between atoms: O1_15  and  C15_16 
REMARK    6  A    between atoms: C18_19  and  O2_20 
REMARK    7  A    between atoms: O2_20  and  C19_21 
REMARK    8  A    between atoms: C21_24  and  O4_25 
REMARK    9  A    between atoms: C22_27  and  O5_28 
ROOT
HETATM    1  O1  UNL     1       3.774 -11.415 -24.500  1.00  0.00    -0.338 OA
ENDROOT
BRANCH   1   2
HETATM    2  C14 UNL     1       5.016 -11.965 -24.349  1.00  0.00     0.087 A 
HETATM    3  C3  UNL     1       5.278 -13.283 -24.775  1.00  0.00     0.003 A 
HETATM    4  C4  UNL     1       6.510 -13.881 -24.635  1.00  0.00    -0.049 A 
HETATM    5  C5  UNL     1       6.880 -15.239 -25.075  1.00  0.00     0.049 C 
HETATM    6  C6  UNL     1       7.553 -13.155 -24.044  1.00  0.00     0.008 A 
HETATM    7  C7  UNL     1       7.277 -11.878 -23.639  1.00  0.00     0.011 A 
HETATM    8  C8  UNL     1       6.044 -11.270 -23.776  1.00  0.00    -0.020 A 
BRANCH   3   9
HETATM    9  C2  UNL     1       4.212 -14.035 -25.391  1.00  0.00     0.004 C 
HETATM   10  C1  UNL     1       3.346 -14.844 -24.855  1.00  0.00     0.012 C 
ENDBRANCH   3   9
BRANCH   8  11
HETATM   11  C9  UNL     1       5.925  -9.862 -23.299  1.00  0.00     0.068 C 
BRANCH  11  12
HETATM   12  C10 UNL     1       7.188  -9.119 -23.406  1.00  0.00    -0.020 C 
HETATM   13  C11 UNL     1       7.158  -7.819 -23.680  1.00  0.00    -0.091 C 
HETATM   14  C12 UNL     1       8.421  -7.005 -23.801  1.00  0.00     0.042 C 
HETATM   15  C13 UNL     1       5.876  -7.081 -23.887  1.00  0.00     0.042 C 
ENDBRANCH  11  12
ENDBRANCH   8  11
ENDBRANCH   1   2
BRANCH   1  16
HETATM   16  C15 UNL     1       2.714 -11.288 -23.630  1.00  0.00     0.183 C 
HETATM   17  C16 UNL     1       1.417 -11.904 -24.163  1.00  0.00     0.006 C 
HETATM   18  C17 UNL     1       0.415 -11.145 -24.571  1.00  0.00     0.006 C 
HETATM   19  C18 UNL     1       0.383  -9.661 -24.580  1.00  0.00     0.185 C 
HETATM   20  C21 UNL     1       1.732  -9.123 -24.396  1.00  0.00     0.182 C 
HETATM   21  C22 UNL     1       2.348  -9.893 -23.210  1.00  0.00     0.182 C 
BRANCH  19  22
HETATM   22  O2  UNL     1      -0.391  -9.149 -25.617  1.00  0.00    -0.310 OA
BRANCH  22  23
HETATM   23  C19 UNL     1      -0.352  -9.521 -26.934  1.00  0.00     0.255 C 
HETATM   24  C20 UNL     1      -1.324 -10.426 -27.587  1.00  0.00     0.126 C 
HETATM   25  O3  UNL     1       0.581  -9.043 -27.591  1.00  0.00    -0.266 OA
ENDBRANCH  22  23
ENDBRANCH  19  22
BRANCH  20  26
HETATM   26  O4  UNL     1       2.603  -9.326 -25.460  1.00  0.00    -0.390 OA
ATOM     27  H4  UNL     1       3.411  -8.828 -25.424  1.00  0.00     0.210 HD
ENDBRANCH  20  26
BRANCH  21  28
HETATM   28  O5  UNL     1       3.299  -9.118 -22.658  1.00  0.00    -0.390 OA
ATOM     29  H5  UNL     1       4.207  -9.286 -22.879  1.00  0.00     0.210 HD
ENDBRANCH  21  28
ENDBRANCH   1  16
TORSDOF 9
ENDMDL
MODEL 4
REMARK VINA RESULT: -9.582102782      3.870      7.004
REMARK  9 active torsions:
REMARK  status: ('A' for Active; 'I' for Inactive)
REMARK    1  A    between atoms: C2_2  and  C3_3 
REMARK    2  A    between atoms: C8_8  and  C9_9 
REMARK    3  A    between atoms: C9_9  and  C10_10 
REMARK    4  A    between atoms: C14_14  and  O1_15 
REMARK    5  A    between atoms: O1_15  and  C15_16 
REMARK    6  A    between atoms: C18_19  and  O2_20 
REMARK    7  A    between atoms: O2_20  and  C19_21 
REMARK    8  A    between atoms: C21_24  and  O4_25 
REMARK    9  A    between atoms: C22_27  and  O5_28 
ROOT
HETATM    1  O1  UNL     1       4.316 -10.808 -23.738  1.00  0.00    -0.338 OA
ENDROOT
BRANCH   1   2
HETATM    2  C14 UNL     1       3.960 -12.090 -24.051  1.00  0.00     0.087 A 
HETATM    3  C3  UNL     1       4.925 -13.020 -24.492  1.00  0.00     0.003 A 
HETATM    4  C4  UNL     1       4.612 -14.317 -24.825  1.00  0.00    -0.049 A 
HETATM    5  C5  UNL     1       5.557 -15.361 -25.267  1.00  0.00     0.049 C 
HETATM    6  C6  UNL     1       3.280 -14.742 -24.727  1.00  0.00     0.008 A 
HETATM    7  C7  UNL     1       2.361 -13.825 -24.296  1.00  0.00     0.011 A 
HETATM    8  C8  UNL     1       2.666 -12.520 -23.959  1.00  0.00    -0.020 A 
BRANCH   3   9
HETATM    9  C2  UNL     1       6.300 -12.594 -24.589  1.00  0.00     0.004 C 
HETATM   10  C1  UNL     1       7.221 -12.535 -23.673  1.00  0.00     0.012 C 
ENDBRANCH   3   9
BRANCH   8  11
HETATM   11  C9  UNL     1       1.543 -11.660 -23.487  1.00  0.00     0.068 C 
BRANCH  11  12
HETATM   12  C10 UNL     1       0.663 -11.227 -24.581  1.00  0.00    -0.020 C 
HETATM   13  C11 UNL     1      -0.609 -11.612 -24.586  1.00  0.00    -0.091 C 
HETATM   14  C12 UNL     1      -1.558 -11.199 -25.682  1.00  0.00     0.042 C 
HETATM   15  C13 UNL     1      -1.180 -12.479 -23.512  1.00  0.00     0.042 C 
ENDBRANCH  11  12
ENDBRANCH   8  11
ENDBRANCH   1   2
BRANCH   1  16
HETATM   16  C15 UNL     1       3.576  -9.730 -23.307  1.00  0.00     0.183 C 
HETATM   17  C16 UNL     1       3.385  -8.659 -24.384  1.00  0.00     0.006 C 
HETATM   18  C17 UNL     1       4.022  -7.502 -24.321  1.00  0.00     0.006 C 
HETATM   19  C18 UNL     1       4.970  -7.077 -23.261  1.00  0.00     0.185 C 
HETATM   20  C21 UNL     1       5.383  -8.229 -22.457  1.00  0.00     0.182 C 
HETATM   21  C22 UNL     1       4.093  -8.995 -22.102  1.00  0.00     0.182 C 
BRANCH  19  22
HETATM   22  O2  UNL     1       5.960  -6.223 -23.739  1.00  0.00    -0.310 OA
BRANCH  22  23
HETATM   23  C19 UNL     1       6.669  -6.355 -24.901  1.00  0.00     0.255 C 
HETATM   24  C20 UNL     1       6.422  -5.580 -26.137  1.00  0.00     0.126 C 
HETATM   25  O3  UNL     1       7.575  -7.197 -24.875  1.00  0.00    -0.266 OA
ENDBRANCH  22  23
ENDBRANCH  19  22
BRANCH  20  26
HETATM   26  O4  UNL     1       6.191  -9.151 -23.112  1.00  0.00    -0.390 OA
ATOM     27  H4  UNL     1       6.337  -9.966 -22.646  1.00  0.00     0.210 HD
ENDBRANCH  20  26
BRANCH  21  28
HETATM   28  O5  UNL     1       4.317  -9.691 -20.973  1.00  0.00    -0.390 OA
ATOM     29  H5  UNL     1       5.213  -9.800 -20.678  1.00  0.00     0.210 HD
ENDBRANCH  21  28
ENDBRANCH   1  16
TORSDOF 9
ENDMDL
MODEL 5
REMARK VINA RESULT: -9.549346444      3.269      7.410
REMARK  9 active torsions:
REMARK  status: ('A' for Active; 'I' for Inactive)
REMARK    1  A    between atoms: C2_2  and  C3_3 
REMARK    2  A    between atoms: C8_8  and  C9_9 
REMARK    3  A    between atoms: C9_9  and  C10_10 
REMARK    4  A    between atoms: C14_14  and  O1_15 
REMARK    5  A    between atoms: O1_15  and  C15_16 
REMARK    6  A    between atoms: C18_19  and  O2_20 
REMARK    7  A    between atoms: O2_20  and  C19_21 
REMARK    8  A    between atoms: C21_24  and  O4_25 
REMARK    9  A    between atoms: C22_27  and  O5_28 
ROOT
HETATM    1  O1  UNL     1       4.412 -12.229 -24.547  1.00  0.00    -0.338 OA
ENDROOT
BRANCH   1   2
HETATM    2  C14 UNL     1       5.749 -12.503 -24.619  1.00  0.00     0.087 A 
HETATM    3  C3  UNL     1       6.211 -13.687 -25.231  1.00  0.00     0.003 A 
HETATM    4  C4  UNL     1       7.546 -14.008 -25.319  1.00  0.00    -0.049 A 
HETATM    5  C5  UNL     1       8.118 -15.206 -25.963  1.00  0.00     0.049 C 
HETATM    6  C6  UNL     1       8.493 -13.127 -24.780  1.00  0.00     0.008 A 
HETATM    7  C7  UNL     1       8.024 -11.984 -24.193  1.00  0.00     0.011 A 
HETATM    8  C8  UNL     1       6.685 -11.654 -24.100  1.00  0.00    -0.020 A 
BRANCH   3   9
HETATM    9  C2  UNL     1       5.242 -14.596 -25.795  1.00  0.00     0.004 C 
HETATM   10  C1  UNL     1       4.787 -15.721 -25.329  1.00  0.00     0.012 C 
ENDBRANCH   3   9
BRANCH   8  11
HETATM   11  C9  UNL     1       6.351 -10.356 -23.446  1.00  0.00     0.068 C 
BRANCH  11  12
HETATM   12  C10 UNL     1       7.429  -9.365 -23.570  1.00  0.00    -0.020 C 
HETATM   13  C11 UNL     1       7.121  -8.077 -23.682  1.00  0.00    -0.091 C 
HETATM   14  C12 UNL     1       8.184  -7.016 -23.811  1.00  0.00     0.042 C 
HETATM   15  C13 UNL     1       5.707  -7.598 -23.688  1.00  0.00     0.042 C 
ENDBRANCH  11  12
ENDBRANCH   8  11
ENDBRANCH   1   2
BRANCH   1  16
HETATM   16  C15 UNL     1       3.480 -12.460 -23.560  1.00  0.00     0.183 C 
HETATM   17  C16 UNL     1       2.372 -13.426 -23.989  1.00  0.00     0.006 C 
HETATM   18  C17 UNL     1       1.146 -12.997 -24.233  1.00  0.00     0.006 C 
HETATM   19  C18 UNL     1       0.669 -11.595 -24.137  1.00  0.00     0.185 C 
HETATM   20  C21 UNL     1       1.806 -10.675 -24.065  1.00  0.00     0.182 C 
HETATM   21  C22 UNL     1       2.768 -11.258 -23.009  1.00  0.00     0.182 C 
BRANCH  19  22
HETATM   22  O2  UNL     1      -0.346 -11.310 -25.046  1.00  0.00    -0.310 OA
BRANCH  22  23
HETATM   23  C19 UNL     1      -1.691 -11.482 -24.858  1.00  0.00     0.255 C 
HETATM   24  C20 UNL     1      -2.320 -11.908 -23.588  1.00  0.00     0.126 C 
HETATM   25  O3  UNL     1      -2.397 -11.253 -25.848  1.00  0.00    -0.266 OA
ENDBRANCH  22  23
ENDBRANCH  19  22
BRANCH  20  26
HETATM   26  O4  UNL     1       2.559 -10.569 -25.229  1.00  0.00    -0.390 OA
ATOM     27  H4  UNL     1       3.028  -9.750 -25.336  1.00  0.00     0.210 HD
ENDBRANCH  20  26
BRANCH  21  28
HETATM   28  O5  UNL     1       3.504 -10.247 -22.512  1.00  0.00    -0.390 OA
ATOM     29  H5  UNL     1       4.261 -10.456 -21.979  1.00  0.00     0.210 HD
ENDBRANCH  21  28
ENDBRANCH   1  16
TORSDOF 9
ENDMDL
