MODEL 1
REMARK VINA RESULT: -8.308930759      0.000      0.000
REMARK  9 active torsions:
REMARK  status: ('A' for Active; 'I' for Inactive)
REMARK    1  A    between atoms: C5_5  and  C6_6 
REMARK    2  A    between atoms: C8_10  and  O1_11 
REMARK    3  A    between atoms: O1_11  and  C9_12 
REMARK    4  A    between atoms: C9_12  and  C10_13 
REMARK    5  A    between atoms: C10_13  and  O3_15 
REMARK    6  A    between atoms: O3_15  and  C11_16 
REMARK    7  A    between atoms: C11_16  and  O4_17 
REMARK    8  A    between atoms: C12_19  and  C13_20 
REMARK    9  A    between atoms: C21_28  and  O5_29 
ROOT
HETATM    1  C6  UNL     1       2.878  -9.052 -24.166  1.00  0.00     0.017 C 
HETATM    2  N1  UNL     1       2.921 -10.063 -24.908  1.00  0.00    -0.386 N 
ATOM      3  H1  UNL     1       2.211 -10.270 -25.611  1.00  0.00     0.159 HD
HETATM    4  C7  UNL     1       4.012 -10.864 -24.686  1.00  0.00     0.122 C 
HETATM    5  C8  UNL     1       3.758 -12.357 -24.598  1.00  0.00     0.174 C 
HETATM    6  C12 UNL     1       5.116 -12.912 -24.312  1.00  0.00    -0.049 C 
HETATM    7  C16 UNL     1       6.064 -12.233 -23.711  1.00  0.00    -0.012 C 
HETATM    8  C17 UNL     1       5.916 -10.806 -23.231  1.00  0.00    -0.021 C 
HETATM    9  C18 UNL     1       6.824  -9.973 -24.073  1.00  0.00     0.019 C 
HETATM   10  C19 UNL     1       6.450 -10.735 -21.793  1.00  0.00     0.019 C 
HETATM   11  C20 UNL     1       4.479 -10.489 -23.292  1.00  0.00     0.057 C 
HETATM   12  C21 UNL     1       4.056  -9.067 -23.259  1.00  0.00     0.170 C 
ENDROOT
BRANCH   5  13
HETATM   13  O1  UNL     1       2.917 -12.571 -23.527  1.00  0.00    -0.370 OA
BRANCH  13  14
HETATM   14  C9  UNL     1       1.786 -13.300 -23.810  1.00  0.00     0.279 C 
BRANCH  14  15
HETATM   15  C10 UNL     1       0.618 -12.710 -23.097  1.00  0.00     0.284 C 
HETATM   16  O2  UNL     1       0.394 -13.043 -21.906  1.00  0.00    -0.263 OA
BRANCH  15  17
HETATM   17  O3  UNL     1      -0.237 -11.801 -23.700  1.00  0.00    -0.294 OA
BRANCH  17  18
HETATM   18  C11 UNL     1      -1.568 -12.191 -23.946  1.00  0.00     0.344 C 
BRANCH  18  19
HETATM   19  O4  UNL     1      -2.368 -12.011 -22.819  1.00  0.00    -0.377 OA
ATOM     20  H4  UNL     1      -2.371 -12.784 -22.268  1.00  0.00     0.212 HD
ENDBRANCH  18  19
ENDBRANCH  17  18
ENDBRANCH  15  17
ENDBRANCH  14  15
ENDBRANCH  13  14
ENDBRANCH   5  13
BRANCH   6  21
HETATM   21  C13 UNL     1       5.404 -14.303 -24.736  1.00  0.00     0.009 C 
HETATM   22  C14 UNL     1       6.811 -14.460 -25.278  1.00  0.00     0.014 C 
HETATM   23  C15 UNL     1       4.472 -14.725 -25.850  1.00  0.00     0.014 C 
ENDBRANCH   6  21
BRANCH   1  24
HETATM   24  C5  UNL     1       1.853  -7.958 -24.113  1.00  0.00     0.041 C 
HETATM   25  C4  UNL     1       0.498  -8.432 -24.575  1.00  0.00     0.038 C 
HETATM   26  C3  UNL     1      -0.145  -7.122 -24.956  1.00  0.00    -0.024 C 
HETATM   27  C2  UNL     1       0.802  -6.246 -25.272  1.00  0.00    -0.087 C 
HETATM   28  C1  UNL     1       0.568  -4.841 -25.701  1.00  0.00     0.043 C 
HETATM   29  C22 UNL     1       2.143  -6.878 -25.134  1.00  0.00     0.044 C 
ENDBRANCH   1  24
BRANCH  12  30
HETATM   30  O5  UNL     1       5.000  -8.128 -23.535  1.00  0.00    -0.389 OA
ATOM     31  H5  UNL     1       4.896  -7.309 -23.065  1.00  0.00     0.210 HD
ENDBRANCH  12  30
TORSDOF 9
ENDMDL
MODEL 2
REMARK VINA RESULT: -8.102256854      1.462      2.168
REMARK  9 active torsions:
REMARK  status: ('A' for Active; 'I' for Inactive)
REMARK    1  A    between atoms: C5_5  and  C6_6 
REMARK    2  A    between atoms: C8_10  and  O1_11 
REMARK    3  A    between atoms: O1_11  and  C9_12 
REMARK    4  A    between atoms: C9_12  and  C10_13 
REMARK    5  A    between atoms: C10_13  and  O3_15 
REMARK    6  A    between atoms: O3_15  and  C11_16 
REMARK    7  A    between atoms: C11_16  and  O4_17 
REMARK    8  A    between atoms: C12_19  and  C13_20 
REMARK    9  A    between atoms: C21_28  and  O5_29 
ROOT
HETATM    1  C6  UNL     1       1.577  -7.731 -24.859  1.00  0.00     0.017 C 
HETATM    2  N1  UNL     1       1.880  -8.819 -25.406  1.00  0.00    -0.386 N 
ATOM      3  H1  UNL     1       1.394  -9.187 -26.224  1.00  0.00     0.159 HD
HETATM    4  C7  UNL     1       2.927  -9.467 -24.802  1.00  0.00     0.122 C 
HETATM    5  C8  UNL     1       2.759 -10.955 -24.555  1.00  0.00     0.174 C 
HETATM    6  C12 UNL     1       4.029 -11.325 -23.860  1.00  0.00    -0.049 C 
HETATM    7  C16 UNL     1       4.739 -10.480 -23.151  1.00  0.00    -0.012 C 
HETATM    8  C17 UNL     1       4.376  -9.026 -22.944  1.00  0.00    -0.021 C 
HETATM    9  C18 UNL     1       5.414  -8.219 -23.648  1.00  0.00     0.019 C 
HETATM   10  C19 UNL     1       4.510  -8.716 -21.446  1.00  0.00     0.019 C 
HETATM   11  C20 UNL     1       2.987  -8.871 -23.408  1.00  0.00     0.057 C 
HETATM   12  C21 UNL     1       2.476  -7.507 -23.696  1.00  0.00     0.170 C 
ENDROOT
BRANCH   5  13
HETATM   13  O1  UNL     1       1.683 -11.116 -23.708  1.00  0.00    -0.370 OA
BRANCH  13  14
HETATM   14  C9  UNL     1       0.741 -12.024 -24.127  1.00  0.00     0.279 C 
BRANCH  14  15
HETATM   15  C10 UNL     1      -0.512 -11.310 -24.503  1.00  0.00     0.284 C 
HETATM   16  O2  UNL     1      -0.514 -10.567 -25.517  1.00  0.00    -0.263 OA
BRANCH  15  17
HETATM   17  O3  UNL     1      -1.684 -11.434 -23.773  1.00  0.00    -0.294 OA
BRANCH  17  18
HETATM   18  C11 UNL     1      -1.887 -12.608 -23.022  1.00  0.00     0.344 C 
BRANCH  18  19
HETATM   19  O4  UNL     1      -2.573 -12.343 -21.839  1.00  0.00    -0.377 OA
ATOM     20  H4  UNL     1      -2.465 -13.047 -21.211  1.00  0.00     0.212 HD
ENDBRANCH  18  19
ENDBRANCH  17  18
ENDBRANCH  15  17
ENDBRANCH  14  15
ENDBRANCH  13  14
ENDBRANCH   5  13
BRANCH   6  21
HETATM   21  C13 UNL     1       4.511 -12.721 -23.984  1.00  0.00     0.009 C 
HETATM   22  C14 UNL     1       5.978 -12.793 -24.359  1.00  0.00     0.014 C 
HETATM   23  C15 UNL     1       3.759 -13.449 -25.076  1.00  0.00     0.014 C 
ENDBRANCH   6  21
BRANCH   1  24
HETATM   24  C5  UNL     1       0.502  -6.752 -25.228  1.00  0.00     0.041 C 
HETATM   25  C4  UNL     1      -0.008  -6.975 -26.629  1.00  0.00     0.038 C 
HETATM   26  C3  UNL     1      -0.596  -5.621 -26.936  1.00  0.00    -0.024 C 
HETATM   27  C2  UNL     1       0.016  -4.701 -26.198  1.00  0.00    -0.087 C 
HETATM   28  C1  UNL     1      -0.283  -3.244 -26.215  1.00  0.00     0.043 C 
HETATM   29  C22 UNL     1       1.052  -5.345 -25.343  1.00  0.00     0.044 C 
ENDBRANCH   1  24
BRANCH  12  30
HETATM   30  O5  UNL     1       3.393  -6.519 -23.866  1.00  0.00    -0.389 OA
ATOM     31  H5  UNL     1       3.678  -6.389 -24.763  1.00  0.00     0.210 HD
ENDBRANCH  12  30
TORSDOF 9
ENDMDL
MODEL 3
REMARK VINA RESULT: -7.949013552      0.979      1.271
REMARK  9 active torsions:
REMARK  status: ('A' for Active; 'I' for Inactive)
REMARK    1  A    between atoms: C5_5  and  C6_6 
REMARK    2  A    between atoms: C8_10  and  O1_11 
REMARK    3  A    between atoms: O1_11  and  C9_12 
REMARK    4  A    between atoms: C9_12  and  C10_13 
REMARK    5  A    between atoms: C10_13  and  O3_15 
REMARK    6  A    between atoms: O3_15  and  C11_16 
REMARK    7  A    between atoms: C11_16  and  O4_17 
REMARK    8  A    between atoms: C12_19  and  C13_20 
REMARK    9  A    between atoms: C21_28  and  O5_29 
ROOT
HETATM    1  C6  UNL     1       3.273  -9.632 -24.072  1.00  0.00     0.017 C 
HETATM    2  N1  UNL     1       3.544 -10.510 -24.928  1.00  0.00    -0.386 N 
ATOM      3  H1  UNL     1       2.927 -10.739 -25.707  1.00  0.00     0.159 HD
HETATM    4  C7  UNL     1       4.748 -11.132 -24.717  1.00  0.00     0.122 C 
HETATM    5  C8  UNL     1       4.767 -12.644 -24.835  1.00  0.00     0.174 C 
HETATM    6  C12 UNL     1       6.183 -12.990 -24.508  1.00  0.00    -0.049 C 
HETATM    7  C16 UNL     1       6.954 -12.245 -23.751  1.00  0.00    -0.012 C 
HETATM    8  C17 UNL     1       6.520 -10.944 -23.113  1.00  0.00    -0.021 C 
HETATM    9  C18 UNL     1       7.308  -9.860 -23.767  1.00  0.00     0.019 C 
HETATM   10  C19 UNL     1       6.945 -10.978 -21.638  1.00  0.00     0.019 C 
HETATM   11  C20 UNL     1       5.055 -10.876 -23.253  1.00  0.00     0.057 C 
HETATM   12  C21 UNL     1       4.379  -9.566 -23.080  1.00  0.00     0.170 C 
ENDROOT
BRANCH   5  13
HETATM   13  O1  UNL     1       3.916 -13.145 -23.873  1.00  0.00    -0.370 OA
BRANCH  13  14
HETATM   14  C9  UNL     1       2.783 -13.756 -24.355  1.00  0.00     0.279 C 
BRANCH  14  15
HETATM   15  C10 UNL     1       1.582 -13.194 -23.675  1.00  0.00     0.284 C 
HETATM   16  O2  UNL     1       1.736 -12.349 -22.757  1.00  0.00    -0.263 OA
BRANCH  15  17
HETATM   17  O3  UNL     1       0.293 -13.569 -24.017  1.00  0.00    -0.294 OA
BRANCH  17  18
HETATM   18  C11 UNL     1      -0.758 -12.663 -23.775  1.00  0.00     0.344 C 
BRANCH  18  19
HETATM   19  O4  UNL     1      -1.214 -12.751 -22.462  1.00  0.00    -0.377 OA
ATOM     20  H4  UNL     1      -0.697 -13.366 -21.955  1.00  0.00     0.212 HD
ENDBRANCH  18  19
ENDBRANCH  17  18
ENDBRANCH  15  17
ENDBRANCH  14  15
ENDBRANCH  13  14
ENDBRANCH   5  13
BRANCH   6  21
HETATM   21  C13 UNL     1       6.745 -14.238 -25.075  1.00  0.00     0.009 C 
HETATM   22  C14 UNL     1       5.736 -15.370 -25.090  1.00  0.00     0.014 C 
HETATM   23  C15 UNL     1       7.913 -14.723 -24.246  1.00  0.00     0.014 C 
ENDBRANCH   6  21
BRANCH   1  24
HETATM   24  C5  UNL     1       2.064  -8.750 -23.970  1.00  0.00     0.041 C 
HETATM   25  C4  UNL     1       0.815  -9.448 -24.445  1.00  0.00     0.038 C 
HETATM   26  C3  UNL     1      -0.064  -8.266 -24.769  1.00  0.00    -0.024 C 
HETATM   27  C2  UNL     1       0.701  -7.218 -25.053  1.00  0.00    -0.087 C 
HETATM   28  C1  UNL     1       0.206  -5.864 -25.423  1.00  0.00     0.043 C 
HETATM   29  C22 UNL     1       2.138  -7.596 -24.947  1.00  0.00     0.044 C 
ENDBRANCH   1  24
BRANCH  12  30
HETATM   30  O5  UNL     1       5.149  -8.449 -23.158  1.00  0.00    -0.389 OA
ATOM     31  H5  UNL     1       5.722  -8.307 -22.414  1.00  0.00     0.210 HD
ENDBRANCH  12  30
TORSDOF 9
ENDMDL
MODEL 4
REMARK VINA RESULT: -7.943064661      1.263      1.533
REMARK  9 active torsions:
REMARK  status: ('A' for Active; 'I' for Inactive)
REMARK    1  A    between atoms: C5_5  and  C6_6 
REMARK    2  A    between atoms: C8_10  and  O1_11 
REMARK    3  A    between atoms: O1_11  and  C9_12 
REMARK    4  A    between atoms: C9_12  and  C10_13 
REMARK    5  A    between atoms: C10_13  and  O3_15 
REMARK    6  A    between atoms: O3_15  and  C11_16 
REMARK    7  A    between atoms: C11_16  and  O4_17 
REMARK    8  A    between atoms: C12_19  and  C13_20 
REMARK    9  A    between atoms: C21_28  and  O5_29 
ROOT
HETATM    1  C6  UNL     1       1.959  -8.274 -24.748  1.00  0.00     0.017 C 
HETATM    2  N1  UNL     1       2.332  -9.323 -25.329  1.00  0.00    -0.386 N 
ATOM      3  H1  UNL     1       1.862  -9.703 -26.151  1.00  0.00     0.159 HD
HETATM    4  C7  UNL     1       3.430  -9.910 -24.755  1.00  0.00     0.122 C 
HETATM    5  C8  UNL     1       3.374 -11.411 -24.548  1.00  0.00     0.174 C 
HETATM    6  C12 UNL     1       4.676 -11.708 -23.877  1.00  0.00    -0.049 C 
HETATM    7  C16 UNL     1       5.334 -10.833 -23.154  1.00  0.00    -0.012 C 
HETATM    8  C17 UNL     1       4.870  -9.415 -22.903  1.00  0.00    -0.021 C 
HETATM    9  C18 UNL     1       5.837  -8.516 -23.597  1.00  0.00     0.019 C 
HETATM   10  C19 UNL     1       5.002  -9.136 -21.399  1.00  0.00     0.019 C 
HETATM   11  C20 UNL     1       3.467  -9.348 -23.346  1.00  0.00     0.057 C 
HETATM   12  C21 UNL     1       2.855  -8.017 -23.591  1.00  0.00     0.170 C 
ENDROOT
BRANCH   5  13
HETATM   13  O1  UNL     1       2.324 -11.672 -23.693  1.00  0.00    -0.370 OA
BRANCH  13  14
HETATM   14  C9  UNL     1       1.460 -12.656 -24.111  1.00  0.00     0.279 C 
BRANCH  14  15
HETATM   15  C10 UNL     1       0.056 -12.166 -24.012  1.00  0.00     0.284 C 
HETATM   16  O2  UNL     1      -0.804 -12.881 -23.439  1.00  0.00    -0.263 OA
BRANCH  15  17
HETATM   17  O3  UNL     1      -0.341 -10.944 -24.530  1.00  0.00    -0.294 OA
BRANCH  17  18
HETATM   18  C11 UNL     1      -1.604 -10.853 -25.146  1.00  0.00     0.344 C 
BRANCH  18  19
HETATM   19  O4  UNL     1      -2.632 -10.867 -24.205  1.00  0.00    -0.377 OA
ATOM     20  H4  UNL     1      -3.281 -11.530 -24.411  1.00  0.00     0.212 HD
ENDBRANCH  18  19
ENDBRANCH  17  18
ENDBRANCH  15  17
ENDBRANCH  14  15
ENDBRANCH  13  14
ENDBRANCH   5  13
BRANCH   6  21
HETATM   21  C13 UNL     1       5.255 -13.062 -24.046  1.00  0.00     0.009 C 
HETATM   22  C14 UNL     1       6.732 -13.019 -24.383  1.00  0.00     0.014 C 
HETATM   23  C15 UNL     1       4.582 -13.791 -25.186  1.00  0.00     0.014 C 
ENDBRANCH   6  21
BRANCH   1  24
HETATM   24  C5  UNL     1       0.812  -7.366 -25.079  1.00  0.00     0.041 C 
HETATM   25  C4  UNL     1       0.185  -7.707 -26.406  1.00  0.00     0.038 C 
HETATM   26  C3  UNL     1      -0.490  -6.402 -26.746  1.00  0.00    -0.024 C 
HETATM   27  C2  UNL     1       0.146  -5.409 -26.132  1.00  0.00    -0.087 C 
HETATM   28  C1  UNL     1      -0.218  -3.970 -26.218  1.00  0.00     0.043 C 
HETATM   29  C22 UNL     1       1.285  -5.951 -25.339  1.00  0.00     0.044 C 
ENDBRANCH   1  24
BRANCH  12  30
HETATM   30  O5  UNL     1       3.697  -6.961 -23.745  1.00  0.00    -0.389 OA
ATOM     31  H5  UNL     1       3.591  -6.482 -24.558  1.00  0.00     0.210 HD
ENDBRANCH  12  30
TORSDOF 9
ENDMDL
MODEL 5
REMARK VINA RESULT: -7.665988309      2.252      6.393
REMARK  9 active torsions:
REMARK  status: ('A' for Active; 'I' for Inactive)
REMARK    1  A    between atoms: C5_5  and  C6_6 
REMARK    2  A    between atoms: C8_10  and  O1_11 
REMARK    3  A    between atoms: O1_11  and  C9_12 
REMARK    4  A    between atoms: C9_12  and  C10_13 
REMARK    5  A    between atoms: C10_13  and  O3_15 
REMARK    6  A    between atoms: O3_15  and  C11_16 
REMARK    7  A    between atoms: C11_16  and  O4_17 
REMARK    8  A    between atoms: C12_19  and  C13_20 
REMARK    9  A    between atoms: C21_28  and  O5_29 
ROOT
HETATM    1  C6  UNL     1       3.696  -9.595 -23.614  1.00  0.00     0.017 C 
HETATM    2  N1  UNL     1       2.620  -9.030 -23.932  1.00  0.00    -0.386 N 
ATOM      3  H1  UNL     1       1.763  -9.541 -24.141  1.00  0.00     0.159 HD
HETATM    4  C7  UNL     1       2.706  -7.662 -23.971  1.00  0.00     0.122 C 
HETATM    5  C8  UNL     1       2.091  -6.972 -25.173  1.00  0.00     0.174 C 
HETATM    6  C12 UNL     1       2.395  -5.530 -24.926  1.00  0.00    -0.049 C 
HETATM    7  C16 UNL     1       3.416  -5.118 -24.212  1.00  0.00    -0.012 C 
HETATM    8  C17 UNL     1       4.416  -6.037 -23.546  1.00  0.00    -0.021 C 
HETATM    9  C18 UNL     1       4.228  -5.884 -22.074  1.00  0.00     0.019 C 
HETATM   10  C19 UNL     1       5.824  -5.517 -23.873  1.00  0.00     0.019 C 
HETATM   11  C20 UNL     1       4.190  -7.380 -24.107  1.00  0.00     0.057 C 
HETATM   12  C21 UNL     1       4.738  -8.558 -23.389  1.00  0.00     0.170 C 
ENDROOT
BRANCH   5  13
HETATM   13  O1  UNL     1       2.759  -7.418 -26.293  1.00  0.00    -0.370 OA
BRANCH  13  14
HETATM   14  C9  UNL     1       1.975  -7.604 -27.406  1.00  0.00     0.279 C 
BRANCH  14  15
HETATM   15  C10 UNL     1       0.820  -8.482 -27.066  1.00  0.00     0.284 C 
HETATM   16  O2  UNL     1      -0.344  -8.098 -27.342  1.00  0.00    -0.263 OA
BRANCH  15  17
HETATM   17  O3  UNL     1       0.981  -9.715 -26.454  1.00  0.00    -0.294 OA
BRANCH  17  18
HETATM   18  C11 UNL     1      -0.097 -10.247 -25.721  1.00  0.00     0.344 C 
BRANCH  18  19
HETATM   19  O4  UNL     1      -0.422  -9.440 -24.633  1.00  0.00    -0.377 OA
ATOM     20  H4  UNL     1      -1.175  -9.779 -24.163  1.00  0.00     0.212 HD
ENDBRANCH  18  19
ENDBRANCH  17  18
ENDBRANCH  15  17
ENDBRANCH  14  15
ENDBRANCH  13  14
ENDBRANCH   5  13
BRANCH   6  21
HETATM   21  C13 UNL     1       1.490  -4.515 -25.514  1.00  0.00     0.009 C 
HETATM   22  C14 UNL     1       1.349  -3.289 -24.633  1.00  0.00     0.014 C 
HETATM   23  C15 UNL     1       0.096  -5.077 -25.681  1.00  0.00     0.014 C 
ENDBRANCH   6  21
BRANCH   1  24
HETATM   24  C5  UNL     1       3.990 -11.058 -23.467  1.00  0.00     0.041 C 
HETATM   25  C4  UNL     1       5.343 -11.421 -24.025  1.00  0.00     0.038 C 
HETATM   26  C3  UNL     1       5.162 -12.898 -24.271  1.00  0.00    -0.024 C 
HETATM   27  C2  UNL     1       3.871 -13.155 -24.451  1.00  0.00    -0.087 C 
HETATM   28  C1  UNL     1       3.289 -14.498 -24.720  1.00  0.00     0.043 C 
HETATM   29  C22 UNL     1       3.083 -11.896 -24.344  1.00  0.00     0.044 C 
ENDBRANCH   1  24
BRANCH  12  30
HETATM   30  O5  UNL     1       5.099  -8.386 -22.090  1.00  0.00    -0.389 OA
ATOM     31  H5  UNL     1       5.880  -7.862 -21.960  1.00  0.00     0.210 HD
ENDBRANCH  12  30
TORSDOF 9
ENDMDL
