MODEL 1
REMARK VINA RESULT: -8.404623473      0.000      0.000
REMARK  6 active torsions:
REMARK  status: ('A' for Active; 'I' for Inactive)
REMARK    1  A    between atoms: C2_2  and  C4_4 
REMARK    2  A    between atoms: C4_4  and  N1_5 
REMARK       I    between atoms: N1_5  and  C5_7 
REMARK    3  A    between atoms: C5_7  and  C6_9 
REMARK    4  A    between atoms: C7_10  and  C8_11 
REMARK    5  A    between atoms: C14_19  and  C15_20 
REMARK    6  A    between atoms: C18_25  and  N3_26 
ROOT
HETATM    1  C6  UNL     1       4.492 -12.242 -23.829  1.00  0.00     0.100 C 
HETATM    2  C7  UNL     1       3.815 -13.233 -24.743  1.00  0.00     0.101 C 
HETATM    3  C9  UNL     1       4.656 -14.496 -24.693  1.00  0.00     0.025 C 
HETATM    4  C10 UNL     1       6.036 -14.315 -25.186  1.00  0.00    -0.046 C 
HETATM    5  C11 UNL     1       6.860 -15.499 -24.661  1.00  0.00     0.015 C 
HETATM    6  C12 UNL     1       6.030 -14.489 -26.699  1.00  0.00     0.015 C 
HETATM    7  C13 UNL     1       6.698 -13.041 -24.799  1.00  0.00     0.019 C 
HETATM    8  C14 UNL     1       5.820 -11.903 -24.462  1.00  0.00     0.034 C 
ENDROOT
BRANCH   8   9
HETATM    9  C15 UNL     1       6.577 -10.917 -23.602  1.00  0.00    -0.035 A 
HETATM   10  C16 UNL     1       6.921 -11.172 -22.293  1.00  0.00     0.095 A 
HETATM   11  N2  UNL     1       7.592 -10.298 -21.530  1.00  0.00    -0.372 N 
HETATM   12  C17 UNL     1       7.965  -9.118 -22.018  1.00  0.00     0.123 A 
ATOM     13  H2  UNL     1       7.818 -10.540 -20.565  1.00  0.00     0.164 HD
HETATM   14  C18 UNL     1       7.661  -8.787 -23.315  1.00  0.00     0.118 A 
HETATM   15  C19 UNL     1       6.968  -9.692 -24.099  1.00  0.00     0.046 A 
BRANCH  14  16
HETATM   16  N3  UNL     1       8.035  -7.546 -23.878  1.00  0.00    -0.114 N 
HETATM   17  O4  UNL     1       7.615  -7.208 -24.986  1.00  0.00    -0.532 OA
HETATM   18  O5  UNL     1       8.868  -6.723 -23.184  1.00  0.00    -0.532 OA
ENDBRANCH  14  16
ENDBRANCH   8   9
BRANCH   1  19
HETATM   19  C5  UNL     1       3.650 -11.027 -23.797  1.00  0.00     0.223 C 
HETATM   20  N1  UNL     1       3.285 -10.368 -24.977  1.00  0.00    -0.360 N 
ATOM     21  H1  UNL     1       3.591 -10.720 -25.883  1.00  0.00     0.162 HD
HETATM   22  O1  UNL     1       3.264 -10.587 -22.699  1.00  0.00    -0.273 OA
BRANCH  20  23
HETATM   23  C4  UNL     1       2.458  -9.165 -24.886  1.00  0.00     0.126 C 
BRANCH  23  24
HETATM   24  C2  UNL     1       1.194  -9.279 -25.667  1.00  0.00    -0.005 C 
HETATM   25  C1  UNL     1       0.990  -8.062 -26.559  1.00  0.00     0.011 C 
HETATM   26  C3  UNL     1      -0.030  -9.439 -24.812  1.00  0.00     0.011 C 
ENDBRANCH  23  24
ENDBRANCH  20  23
ENDBRANCH   1  19
BRANCH   2  27
HETATM   27  C8  UNL     1       2.431 -13.580 -24.352  1.00  0.00     0.177 C 
HETATM   28  O2  UNL     1       2.094 -14.748 -24.036  1.00  0.00    -0.648 OA
HETATM   29  O3  UNL     1       1.421 -12.609 -24.318  1.00  0.00    -0.648 OA
ENDBRANCH   2  27
TORSDOF 6
ENDMDL
MODEL 2
REMARK VINA RESULT: -8.368517680      2.411      2.920
REMARK  6 active torsions:
REMARK  status: ('A' for Active; 'I' for Inactive)
REMARK    1  A    between atoms: C2_2  and  C4_4 
REMARK    2  A    between atoms: C4_4  and  N1_5 
REMARK       I    between atoms: N1_5  and  C5_7 
REMARK    3  A    between atoms: C5_7  and  C6_9 
REMARK    4  A    between atoms: C7_10  and  C8_11 
REMARK    5  A    between atoms: C14_19  and  C15_20 
REMARK    6  A    between atoms: C18_25  and  N3_26 
ROOT
HETATM    1  C6  UNL     1       5.082 -13.246 -24.249  1.00  0.00     0.100 C 
HETATM    2  C7  UNL     1       5.213 -14.262 -25.356  1.00  0.00     0.101 C 
HETATM    3  C9  UNL     1       6.487 -15.036 -25.070  1.00  0.00     0.025 C 
HETATM    4  C10 UNL     1       7.708 -14.205 -25.089  1.00  0.00    -0.046 C 
HETATM    5  C11 UNL     1       8.801 -14.995 -24.357  1.00  0.00     0.015 C 
HETATM    6  C12 UNL     1       8.198 -14.109 -26.529  1.00  0.00     0.015 C 
HETATM    7  C13 UNL     1       7.580 -12.856 -24.479  1.00  0.00     0.019 C 
HETATM    8  C14 UNL     1       6.225 -12.274 -24.414  1.00  0.00     0.034 C 
ENDROOT
BRANCH   8   9
HETATM    9  C15 UNL     1       6.179 -11.219 -23.332  1.00  0.00    -0.035 A 
HETATM   10  C16 UNL     1       7.073 -11.177 -22.286  1.00  0.00     0.095 A 
HETATM   11  N2  UNL     1       7.033 -10.242 -21.326  1.00  0.00    -0.372 N 
HETATM   12  C17 UNL     1       6.104  -9.291 -21.345  1.00  0.00     0.123 A 
ATOM     13  H2  UNL     1       7.722 -10.261 -20.574  1.00  0.00     0.164 HD
HETATM   14  C18 UNL     1       5.174  -9.262 -22.354  1.00  0.00     0.118 A 
HETATM   15  C19 UNL     1       5.219 -10.229 -23.342  1.00  0.00     0.046 A 
BRANCH  14  16
HETATM   16  N3  UNL     1       4.167  -8.272 -22.417  1.00  0.00    -0.114 N 
HETATM   17  O4  UNL     1       4.263  -7.238 -21.755  1.00  0.00    -0.532 OA
HETATM   18  O5  UNL     1       3.085  -8.472 -23.219  1.00  0.00    -0.532 OA
ENDBRANCH  14  16
ENDBRANCH   8   9
BRANCH   1  19
HETATM   19  C5  UNL     1       3.806 -12.529 -24.459  1.00  0.00     0.223 C 
HETATM   20  N1  UNL     1       2.806 -12.530 -23.479  1.00  0.00    -0.360 N 
ATOM     21  H1  UNL     1       2.944 -13.022 -22.597  1.00  0.00     0.162 HD
HETATM   22  O1  UNL     1       3.623 -11.919 -25.527  1.00  0.00    -0.273 OA
BRANCH  20  23
HETATM   23  C4  UNL     1       1.560 -11.812 -23.743  1.00  0.00     0.126 C 
BRANCH  23  24
HETATM   24  C2  UNL     1       0.360 -12.689 -23.638  1.00  0.00    -0.005 C 
HETATM   25  C1  UNL     1      -0.891 -11.969 -24.124  1.00  0.00     0.011 C 
HETATM   26  C3  UNL     1       0.097 -13.187 -22.245  1.00  0.00     0.011 C 
ENDBRANCH  23  24
ENDBRANCH  20  23
ENDBRANCH   1  19
BRANCH   2  27
HETATM   27  C8  UNL     1       4.092 -15.226 -25.439  1.00  0.00     0.177 C 
HETATM   28  O2  UNL     1       4.115 -16.219 -26.207  1.00  0.00    -0.648 OA
HETATM   29  O3  UNL     1       2.942 -15.069 -24.655  1.00  0.00    -0.648 OA
ENDBRANCH   2  27
TORSDOF 6
ENDMDL
MODEL 3
REMARK VINA RESULT: -8.353782736      2.870      5.268
REMARK  6 active torsions:
REMARK  status: ('A' for Active; 'I' for Inactive)
REMARK    1  A    between atoms: C2_2  and  C4_4 
REMARK    2  A    between atoms: C4_4  and  N1_5 
REMARK       I    between atoms: N1_5  and  C5_7 
REMARK    3  A    between atoms: C5_7  and  C6_9 
REMARK    4  A    between atoms: C7_10  and  C8_11 
REMARK    5  A    between atoms: C14_19  and  C15_20 
REMARK    6  A    between atoms: C18_25  and  N3_26 
ROOT
HETATM    1  C6  UNL     1       3.933 -10.672 -24.029  1.00  0.00     0.100 C 
HETATM    2  C7  UNL     1       4.103  -9.433 -23.187  1.00  0.00     0.101 C 
HETATM    3  C9  UNL     1       5.514  -8.938 -23.445  1.00  0.00     0.025 C 
HETATM    4  C10 UNL     1       6.566  -9.893 -23.041  1.00  0.00    -0.046 C 
HETATM    5  C11 UNL     1       7.855  -9.471 -23.759  1.00  0.00     0.015 C 
HETATM    6  C12 UNL     1       6.860  -9.681 -21.561  1.00  0.00     0.015 C 
HETATM    7  C13 UNL     1       6.284 -11.323 -23.328  1.00  0.00     0.019 C 
HETATM    8  C14 UNL     1       4.867 -11.715 -23.465  1.00  0.00     0.034 C 
ENDROOT
BRANCH   8   9
HETATM    9  C15 UNL     1       4.771 -12.996 -24.261  1.00  0.00    -0.035 A 
HETATM   10  C16 UNL     1       3.618 -13.743 -24.344  1.00  0.00     0.095 A 
HETATM   11  N2  UNL     1       3.531 -14.880 -25.050  1.00  0.00    -0.372 N 
HETATM   12  C17 UNL     1       4.584 -15.344 -25.718  1.00  0.00     0.123 A 
ATOM     13  H2  UNL     1       2.651 -15.394 -25.074  1.00  0.00     0.164 HD
HETATM   14  C18 UNL     1       5.772 -14.657 -25.686  1.00  0.00     0.118 A 
HETATM   15  C19 UNL     1       5.856 -13.486 -24.957  1.00  0.00     0.046 A 
BRANCH  14  16
HETATM   16  N3  UNL     1       6.917 -15.111 -26.379  1.00  0.00    -0.114 N 
HETATM   17  O4  UNL     1       6.866 -15.353 -27.585  1.00  0.00    -0.532 OA
HETATM   18  O5  UNL     1       8.085 -15.279 -25.698  1.00  0.00    -0.532 OA
ENDBRANCH  14  16
ENDBRANCH   8   9
BRANCH   1  19
HETATM   19  C5  UNL     1       2.538 -11.133 -23.858  1.00  0.00     0.223 C 
HETATM   20  N1  UNL     1       1.623 -11.078 -24.916  1.00  0.00    -0.360 N 
ATOM     21  H1  UNL     1       1.906 -10.724 -25.829  1.00  0.00     0.162 HD
HETATM   22  O1  UNL     1       2.177 -11.572 -22.752  1.00  0.00    -0.273 OA
BRANCH  20  23
HETATM   23  C4  UNL     1       0.254 -11.539 -24.688  1.00  0.00     0.126 C 
BRANCH  23  24
HETATM   24  C2  UNL     1      -0.766 -10.555 -25.151  1.00  0.00    -0.005 C 
HETATM   25  C1  UNL     1      -2.172 -11.004 -24.774  1.00  0.00     0.011 C 
HETATM   26  C3  UNL     1      -0.738 -10.309 -26.632  1.00  0.00     0.011 C 
ENDBRANCH  23  24
ENDBRANCH  20  23
ENDBRANCH   1  19
BRANCH   2  27
HETATM   27  C8  UNL     1       3.160  -8.339 -23.509  1.00  0.00     0.177 C 
HETATM   28  O2  UNL     1       2.758  -7.521 -22.644  1.00  0.00    -0.648 OA
HETATM   29  O3  UNL     1       2.666  -8.165 -24.809  1.00  0.00    -0.648 OA
ENDBRANCH   2  27
TORSDOF 6
ENDMDL
MODEL 4
REMARK VINA RESULT: -8.255868271      1.638      2.212
REMARK  6 active torsions:
REMARK  status: ('A' for Active; 'I' for Inactive)
REMARK    1  A    between atoms: C2_2  and  C4_4 
REMARK    2  A    between atoms: C4_4  and  N1_5 
REMARK       I    between atoms: N1_5  and  C5_7 
REMARK    3  A    between atoms: C5_7  and  C6_9 
REMARK    4  A    between atoms: C7_10  and  C8_11 
REMARK    5  A    between atoms: C14_19  and  C15_20 
REMARK    6  A    between atoms: C18_25  and  N3_26 
ROOT
HETATM    1  C6  UNL     1       5.559 -13.098 -24.250  1.00  0.00     0.100 C 
HETATM    2  C7  UNL     1       5.450 -14.205 -25.268  1.00  0.00     0.101 C 
HETATM    3  C9  UNL     1       6.639 -15.117 -25.029  1.00  0.00     0.025 C 
HETATM    4  C10 UNL     1       7.946 -14.461 -25.231  1.00  0.00    -0.046 C 
HETATM    5  C11 UNL     1       8.999 -15.332 -24.532  1.00  0.00     0.015 C 
HETATM    6  C12 UNL     1       8.298 -14.543 -26.711  1.00  0.00     0.015 C 
HETATM    7  C13 UNL     1       8.051 -13.064 -24.735  1.00  0.00     0.019 C 
HETATM    8  C14 UNL     1       6.793 -12.303 -24.602  1.00  0.00     0.034 C 
ENDROOT
BRANCH   8   9
HETATM    9  C15 UNL     1       6.988 -11.171 -23.619  1.00  0.00    -0.035 A 
HETATM   10  C16 UNL     1       6.975 -11.351 -22.254  1.00  0.00     0.095 A 
HETATM   11  N2  UNL     1       7.148 -10.348 -21.382  1.00  0.00    -0.372 N 
HETATM   12  C17 UNL     1       7.346  -9.104 -21.810  1.00  0.00     0.123 A 
ATOM     13  H2  UNL     1       7.126 -10.540 -20.380  1.00  0.00     0.164 HD
HETATM   14  C18 UNL     1       7.374  -8.840 -23.157  1.00  0.00     0.118 A 
HETATM   15  C19 UNL     1       7.195  -9.878 -24.053  1.00  0.00     0.046 A 
BRANCH  14  16
HETATM   16  N3  UNL     1       7.581  -7.536 -23.660  1.00  0.00    -0.114 N 
HETATM   17  O4  UNL     1       8.703  -7.028 -23.644  1.00  0.00    -0.532 OA
HETATM   18  O5  UNL     1       6.525  -6.841 -24.166  1.00  0.00    -0.532 OA
ENDBRANCH  14  16
ENDBRANCH   8   9
BRANCH   1  19
HETATM   19  C5  UNL     1       4.369 -12.235 -24.408  1.00  0.00     0.223 C 
HETATM   20  N1  UNL     1       3.448 -12.074 -23.366  1.00  0.00    -0.360 N 
ATOM     21  H1  UNL     1       3.586 -12.547 -22.474  1.00  0.00     0.162 HD
HETATM   22  O1  UNL     1       4.187 -11.647 -25.489  1.00  0.00    -0.273 OA
BRANCH  20  23
HETATM   23  C4  UNL     1       2.283 -11.216 -23.581  1.00  0.00     0.126 C 
BRANCH  23  24
HETATM   24  C2  UNL     1       1.065 -11.988 -23.956  1.00  0.00    -0.005 C 
HETATM   25  C1  UNL     1      -0.074 -11.056 -24.350  1.00  0.00     0.011 C 
HETATM   26  C3  UNL     1       0.567 -12.895 -22.869  1.00  0.00     0.011 C 
ENDBRANCH  23  24
ENDBRANCH  20  23
ENDBRANCH   1  19
BRANCH   2  27
HETATM   27  C8  UNL     1       4.214 -15.013 -25.164  1.00  0.00     0.177 C 
HETATM   28  O2  UNL     1       3.272 -14.705 -24.394  1.00  0.00    -0.648 OA
HETATM   29  O3  UNL     1       4.040 -16.173 -25.931  1.00  0.00    -0.648 OA
ENDBRANCH   2  27
TORSDOF 6
ENDMDL
MODEL 5
REMARK VINA RESULT: -8.138371320      2.845      5.473
REMARK  6 active torsions:
REMARK  status: ('A' for Active; 'I' for Inactive)
REMARK    1  A    between atoms: C2_2  and  C4_4 
REMARK    2  A    between atoms: C4_4  and  N1_5 
REMARK       I    between atoms: N1_5  and  C5_7 
REMARK    3  A    between atoms: C5_7  and  C6_9 
REMARK    4  A    between atoms: C7_10  and  C8_11 
REMARK    5  A    between atoms: C14_19  and  C15_20 
REMARK    6  A    between atoms: C18_25  and  N3_26 
ROOT
HETATM    1  C6  UNL     1       4.112 -10.312 -24.390  1.00  0.00     0.100 C 
HETATM    2  C7  UNL     1       4.179  -9.055 -23.560  1.00  0.00     0.101 C 
HETATM    3  C9  UNL     1       5.653  -8.791 -23.312  1.00  0.00     0.025 C 
HETATM    4  C10 UNL     1       6.332  -9.858 -22.550  1.00  0.00    -0.046 C 
HETATM    5  C11 UNL     1       7.840  -9.681 -22.775  1.00  0.00     0.015 C 
HETATM    6  C12 UNL     1       6.128  -9.588 -21.065  1.00  0.00     0.015 C 
HETATM    7  C13 UNL     1       5.939 -11.249 -22.897  1.00  0.00     0.019 C 
HETATM    8  C14 UNL     1       4.613 -11.438 -23.518  1.00  0.00     0.034 C 
ENDROOT
BRANCH   8   9
HETATM    9  C15 UNL     1       4.592 -12.744 -24.278  1.00  0.00    -0.035 A 
HETATM   10  C16 UNL     1       3.454 -13.502 -24.437  1.00  0.00     0.095 A 
HETATM   11  N2  UNL     1       3.435 -14.661 -25.110  1.00  0.00    -0.372 N 
HETATM   12  C17 UNL     1       4.543 -15.138 -25.670  1.00  0.00     0.123 A 
ATOM     13  H2  UNL     1       2.562 -15.182 -25.194  1.00  0.00     0.164 HD
HETATM   14  C18 UNL     1       5.721 -14.442 -25.558  1.00  0.00     0.118 A 
HETATM   15  C19 UNL     1       5.736 -13.247 -24.862  1.00  0.00     0.046 A 
BRANCH  14  16
HETATM   16  N3  UNL     1       6.924 -14.908 -26.134  1.00  0.00    -0.114 N 
HETATM   17  O4  UNL     1       6.972 -15.208 -27.328  1.00  0.00    -0.532 OA
HETATM   18  O5  UNL     1       8.036 -15.024 -25.355  1.00  0.00    -0.532 OA
ENDBRANCH  14  16
ENDBRANCH   8   9
BRANCH   1  19
HETATM   19  C5  UNL     1       2.690 -10.551 -24.714  1.00  0.00     0.223 C 
HETATM   20  N1  UNL     1       1.744 -10.768 -23.705  1.00  0.00    -0.360 N 
ATOM     21  H1  UNL     1       2.021 -10.759 -22.724  1.00  0.00     0.162 HD
HETATM   22  O1  UNL     1       2.333 -10.560 -25.906  1.00  0.00    -0.273 OA
BRANCH  20  23
HETATM   23  C4  UNL     1       0.352 -11.008 -24.082  1.00  0.00     0.126 C 
BRANCH  23  24
HETATM   24  C2  UNL     1      -0.091 -12.399 -23.784  1.00  0.00    -0.005 C 
HETATM   25  C1  UNL     1      -1.598 -12.462 -23.573  1.00  0.00     0.011 C 
HETATM   26  C3  UNL     1       0.571 -12.996 -22.575  1.00  0.00     0.011 C 
ENDBRANCH  23  24
ENDBRANCH  20  23
ENDBRANCH   1  19
BRANCH   2  27
HETATM   27  C8  UNL     1       3.594  -7.860 -24.209  1.00  0.00     0.177 C 
HETATM   28  O2  UNL     1       4.278  -7.075 -24.911  1.00  0.00    -0.648 OA
HETATM   29  O3  UNL     1       2.236  -7.549 -24.067  1.00  0.00    -0.648 OA
ENDBRANCH   2  27
TORSDOF 6
ENDMDL
