MODEL 1
REMARK VINA RESULT: -8.569489675      0.000      0.000
REMARK  7 active torsions:
REMARK  status: ('A' for Active; 'I' for Inactive)
REMARK    1  A    between atoms: C2_2  and  C4_4 
REMARK    2  A    between atoms: C4_4  and  C5_5 
REMARK    3  A    between atoms: C8_13  and  C9_14 
REMARK    4  A    between atoms: N3_15  and  C10_17 
REMARK    5  A    between atoms: C13_20  and  C14_21 
REMARK    6  A    between atoms: C15_22  and  C16_23 
REMARK    7  A    between atoms: C16_23  and  N4_24 
ROOT
HETATM    1  C5  UNL     1       2.047  -7.292 -23.570  1.00  0.00     0.044 C 
HETATM    2  N1  UNL     1       2.509  -6.897 -22.480  1.00  0.00    -0.365 N 
ATOM      3  H1  UNL     1       1.879  -6.717 -21.699  1.00  0.00     0.162 HD
HETATM    4  C6  UNL     1       3.878  -6.701 -22.321  1.00  0.00     0.199 C 
HETATM    5  N2  UNL     1       4.258  -7.138 -21.005  1.00  0.00    -0.338 N 
ATOM      6  H2  UNL     1       4.298  -6.561 -20.165  1.00  0.00     0.164 HD
HETATM    7  C7  UNL     1       4.570  -8.518 -21.090  1.00  0.00     0.229 C 
HETATM    8  O1  UNL     1       4.913  -9.303 -20.171  1.00  0.00    -0.273 OA
HETATM    9  C8  UNL     1       4.429  -8.959 -22.511  1.00  0.00     0.134 C 
HETATM   10  C19 UNL     1       4.642  -7.672 -23.232  1.00  0.00     0.114 C 
HETATM   11  S1  UNL     1       3.461  -7.518 -24.648  1.00  0.00    -0.107 SA
ENDROOT
BRANCH   9  12
HETATM   12  C9  UNL     1       5.307 -10.063 -22.884  1.00  0.00     0.078 C 
HETATM   13  N3  UNL     1       4.799 -11.023 -23.579  1.00  0.00    -0.355 N 
ATOM     14  H3  UNL     1       3.811 -10.943 -23.821  1.00  0.00     0.166 HD
BRANCH  13  15
HETATM   15  C10 UNL     1       5.466 -12.166 -24.035  1.00  0.00     0.105 A 
HETATM   16  C11 UNL     1       4.854 -13.292 -24.528  1.00  0.00     0.051 A 
HETATM   17  C12 UNL     1       5.861 -14.174 -24.858  1.00  0.00     0.033 A 
HETATM   18  C13 UNL     1       7.046 -13.538 -24.546  1.00  0.00     0.033 A 
HETATM   19  N5  UNL     1       6.795 -12.322 -24.049  1.00  0.00    -0.343 N 
ATOM     20  H5  UNL     1       7.487 -11.642 -23.738  1.00  0.00     0.167 HD
BRANCH  18  21
HETATM   21  C14 UNL     1       8.389 -14.086 -24.718  1.00  0.00     0.027 C 
HETATM   22  C15 UNL     1       8.691 -14.683 -25.855  1.00  0.00     0.005 C 
BRANCH  22  23
HETATM   23  C16 UNL     1      10.028 -15.268 -26.116  1.00  0.00     0.299 C 
BRANCH  23  24
HETATM   24  N4  UNL     1      10.971 -14.218 -26.357  1.00  0.00     0.083 N 
HETATM   25  C17 UNL     1      11.501 -14.353 -27.690  1.00  0.00     0.309 C 
HETATM   26  C18 UNL     1      11.989 -14.152 -25.350  1.00  0.00     0.309 C 
ENDBRANCH  23  24
ENDBRANCH  22  23
ENDBRANCH  18  21
ENDBRANCH  13  15
ENDBRANCH   9  12
BRANCH   1  27
HETATM   27  C4  UNL     1       0.653  -7.552 -23.928  1.00  0.00     0.068 C 
BRANCH  27  28
HETATM   28  C2  UNL     1       0.534  -8.297 -25.244  1.00  0.00    -0.017 C 
HETATM   29  C1  UNL     1      -0.320  -9.534 -25.091  1.00  0.00     0.010 C 
HETATM   30  C3  UNL     1      -0.083  -7.432 -26.321  1.00  0.00     0.010 C 
ENDBRANCH  27  28
ENDBRANCH   1  27
TORSDOF 7
ENDMDL
MODEL 2
REMARK VINA RESULT: -8.473659926      3.314      3.902
REMARK  7 active torsions:
REMARK  status: ('A' for Active; 'I' for Inactive)
REMARK    1  A    between atoms: C2_2  and  C4_4 
REMARK    2  A    between atoms: C4_4  and  C5_5 
REMARK    3  A    between atoms: C8_13  and  C9_14 
REMARK    4  A    between atoms: N3_15  and  C10_17 
REMARK    5  A    between atoms: C13_20  and  C14_21 
REMARK    6  A    between atoms: C15_22  and  C16_23 
REMARK    7  A    between atoms: C16_23  and  N4_24 
ROOT
HETATM    1  C5  UNL     1      -0.146 -10.097 -25.798  1.00  0.00     0.044 C 
HETATM    2  N1  UNL     1      -0.701 -11.099 -25.303  1.00  0.00    -0.365 N 
ATOM      3  H1  UNL     1      -1.335 -11.659 -25.874  1.00  0.00     0.162 HD
HETATM    4  C6  UNL     1      -0.464 -11.461 -23.980  1.00  0.00     0.199 C 
HETATM    5  N2  UNL     1      -0.391 -12.894 -23.898  1.00  0.00    -0.338 N 
ATOM      6  H2  UNL     1      -1.167 -13.529 -23.704  1.00  0.00     0.164 HD
HETATM    7  C7  UNL     1       0.956 -13.265 -24.135  1.00  0.00     0.229 C 
HETATM    8  O1  UNL     1       1.455 -14.418 -24.190  1.00  0.00    -0.273 OA
HETATM    9  C8  UNL     1       1.772 -12.028 -24.325  1.00  0.00     0.134 C 
HETATM   10  C19 UNL     1       0.955 -11.029 -23.580  1.00  0.00     0.114 C 
HETATM   11  S1  UNL     1       0.892  -9.425 -24.501  1.00  0.00    -0.107 SA
ENDROOT
BRANCH   9  12
HETATM   12  C9  UNL     1       3.165 -12.161 -23.913  1.00  0.00     0.078 C 
HETATM   13  N3  UNL     1       3.980 -12.738 -24.729  1.00  0.00    -0.355 N 
ATOM     14  H3  UNL     1       3.589 -13.064 -25.614  1.00  0.00     0.166 HD
BRANCH  13  15
HETATM   15  C10 UNL     1       5.345 -12.964 -24.525  1.00  0.00     0.105 A 
HETATM   16  C11 UNL     1       6.207 -12.087 -23.913  1.00  0.00     0.051 A 
HETATM   17  C12 UNL     1       7.448 -12.686 -23.919  1.00  0.00     0.033 A 
HETATM   18  C13 UNL     1       7.282 -13.908 -24.540  1.00  0.00     0.033 A 
HETATM   19  N5  UNL     1       6.004 -14.065 -24.903  1.00  0.00    -0.343 N 
ATOM     20  H5  UNL     1       5.606 -14.875 -25.379  1.00  0.00     0.167 HD
BRANCH  18  21
HETATM   21  C14 UNL     1       8.326 -14.899 -24.785  1.00  0.00     0.027 C 
HETATM   22  C15 UNL     1       9.155 -14.714 -25.794  1.00  0.00     0.005 C 
BRANCH  22  23
HETATM   23  C16 UNL     1      10.243 -15.667 -26.117  1.00  0.00     0.299 C 
BRANCH  23  24
HETATM   24  N4  UNL     1      11.426 -14.942 -26.466  1.00  0.00     0.083 N 
HETATM   25  C17 UNL     1      11.809 -14.097 -25.364  1.00  0.00     0.309 C 
HETATM   26  C18 UNL     1      11.289 -14.229 -27.702  1.00  0.00     0.309 C 
ENDBRANCH  23  24
ENDBRANCH  22  23
ENDBRANCH  18  21
ENDBRANCH  13  15
ENDBRANCH   9  12
BRANCH   1  27
HETATM   27  C4  UNL     1      -0.269  -9.562 -27.152  1.00  0.00     0.068 C 
BRANCH  27  28
HETATM   28  C2  UNL     1       0.552  -8.302 -27.343  1.00  0.00    -0.017 C 
HETATM   29  C1  UNL     1       1.055  -8.192 -28.763  1.00  0.00     0.010 C 
HETATM   30  C3  UNL     1      -0.254  -7.058 -27.034  1.00  0.00     0.010 C 
ENDBRANCH  27  28
ENDBRANCH   1  27
TORSDOF 7
ENDMDL
MODEL 3
REMARK VINA RESULT: -8.416640751      2.043      2.788
REMARK  7 active torsions:
REMARK  status: ('A' for Active; 'I' for Inactive)
REMARK    1  A    between atoms: C2_2  and  C4_4 
REMARK    2  A    between atoms: C4_4  and  C5_5 
REMARK    3  A    between atoms: C8_13  and  C9_14 
REMARK    4  A    between atoms: N3_15  and  C10_17 
REMARK    5  A    between atoms: C13_20  and  C14_21 
REMARK    6  A    between atoms: C15_22  and  C16_23 
REMARK    7  A    between atoms: C16_23  and  N4_24 
ROOT
HETATM    1  C5  UNL     1      -0.122 -10.025 -24.682  1.00  0.00     0.044 C 
HETATM    2  N1  UNL     1       0.421  -9.193 -23.928  1.00  0.00    -0.365 N 
ATOM      3  H1  UNL     1       0.005  -8.988 -23.020  1.00  0.00     0.162 HD
HETATM    4  C6  UNL     1       1.589  -8.543 -24.314  1.00  0.00     0.199 C 
HETATM    5  N2  UNL     1       2.449  -8.416 -23.168  1.00  0.00    -0.338 N 
ATOM      6  H2  UNL     1       2.481  -7.627 -22.522  1.00  0.00     0.164 HD
HETATM    7  C7  UNL     1       3.244  -9.588 -23.102  1.00  0.00     0.229 C 
HETATM    8  O1  UNL     1       4.101  -9.907 -22.240  1.00  0.00    -0.273 OA
HETATM    9  C8  UNL     1       2.913 -10.462 -24.267  1.00  0.00     0.134 C 
HETATM   10  C19 UNL     1       2.400  -9.459 -25.242  1.00  0.00     0.114 C 
HETATM   11  S1  UNL     1       0.921 -10.119 -26.137  1.00  0.00    -0.107 SA
ENDROOT
BRANCH   9  12
HETATM   12  C9  UNL     1       4.020 -11.298 -24.721  1.00  0.00     0.078 C 
HETATM   13  N3  UNL     1       4.038 -12.529 -24.336  1.00  0.00    -0.355 N 
ATOM     14  H3  UNL     1       3.271 -12.834 -23.737  1.00  0.00     0.166 HD
BRANCH  13  15
HETATM   15  C10 UNL     1       5.004 -13.488 -24.657  1.00  0.00     0.105 A 
HETATM   16  C11 UNL     1       4.736 -14.767 -25.084  1.00  0.00     0.051 A 
HETATM   17  C12 UNL     1       5.955 -15.378 -25.284  1.00  0.00     0.033 A 
HETATM   18  C13 UNL     1       6.914 -14.437 -24.967  1.00  0.00     0.033 A 
HETATM   19  N5  UNL     1       6.327 -13.296 -24.589  1.00  0.00    -0.343 N 
ATOM     20  H5  UNL     1       6.799 -12.439 -24.302  1.00  0.00     0.167 HD
BRANCH  18  21
HETATM   21  C14 UNL     1       8.361 -14.629 -25.021  1.00  0.00     0.027 C 
HETATM   22  C15 UNL     1       8.876 -15.293 -26.038  1.00  0.00     0.005 C 
BRANCH  22  23
HETATM   23  C16 UNL     1      10.332 -15.536 -26.174  1.00  0.00     0.299 C 
BRANCH  23  24
HETATM   24  N4  UNL     1      11.007 -14.291 -26.379  1.00  0.00     0.083 N 
HETATM   25  C17 UNL     1      11.566 -14.267 -27.707  1.00  0.00     0.309 C 
HETATM   26  C18 UNL     1      11.973 -14.014 -25.357  1.00  0.00     0.309 C 
ENDBRANCH  23  24
ENDBRANCH  22  23
ENDBRANCH  18  21
ENDBRANCH  13  15
ENDBRANCH   9  12
BRANCH   1  27
HETATM   27  C4  UNL     1      -1.340 -10.802 -24.458  1.00  0.00     0.068 C 
BRANCH  27  28
HETATM   28  C2  UNL     1      -1.124 -11.924 -23.462  1.00  0.00    -0.017 C 
HETATM   29  C1  UNL     1      -2.403 -12.694 -23.226  1.00  0.00     0.010 C 
HETATM   30  C3  UNL     1      -0.072 -12.901 -23.941  1.00  0.00     0.010 C 
ENDBRANCH  27  28
ENDBRANCH   1  27
TORSDOF 7
ENDMDL
MODEL 4
REMARK VINA RESULT: -8.349213207      1.401      1.877
REMARK  7 active torsions:
REMARK  status: ('A' for Active; 'I' for Inactive)
REMARK    1  A    between atoms: C2_2  and  C4_4 
REMARK    2  A    between atoms: C4_4  and  C5_5 
REMARK    3  A    between atoms: C8_13  and  C9_14 
REMARK    4  A    between atoms: N3_15  and  C10_17 
REMARK    5  A    between atoms: C13_20  and  C14_21 
REMARK    6  A    between atoms: C15_22  and  C16_23 
REMARK    7  A    between atoms: C16_23  and  N4_24 
ROOT
HETATM    1  C5  UNL     1       0.973  -9.032 -24.549  1.00  0.00     0.044 C 
HETATM    2  N1  UNL     1       1.471  -8.353 -23.629  1.00  0.00    -0.365 N 
ATOM      3  H1  UNL     1       0.897  -8.091 -22.828  1.00  0.00     0.162 HD
HETATM    4  C6  UNL     1       2.802  -7.950 -23.685  1.00  0.00     0.199 C 
HETATM    5  N2  UNL     1       3.367  -8.037 -22.366  1.00  0.00    -0.338 N 
ATOM      6  H2  UNL     1       3.397  -7.291 -21.670  1.00  0.00     0.164 HD
HETATM    7  C7  UNL     1       3.878  -9.350 -22.209  1.00  0.00     0.229 C 
HETATM    8  O1  UNL     1       4.423  -9.864 -21.200  1.00  0.00    -0.273 OA
HETATM    9  C8  UNL     1       3.673 -10.104 -23.482  1.00  0.00     0.134 C 
HETATM   10  C19 UNL     1       3.616  -8.989 -24.469  1.00  0.00     0.114 C 
HETATM   11  S1  UNL     1       2.297  -9.301 -25.728  1.00  0.00    -0.107 SA
ENDROOT
BRANCH   9  12
HETATM   12  C9  UNL     1       4.671 -11.138 -23.732  1.00  0.00     0.078 C 
HETATM   13  N3  UNL     1       4.271 -12.238 -24.275  1.00  0.00    -0.355 N 
ATOM     14  H3  UNL     1       3.277 -12.306 -24.495  1.00  0.00     0.166 HD
BRANCH  13  15
HETATM   15  C10 UNL     1       5.063 -13.346 -24.595  1.00  0.00     0.105 A 
HETATM   16  C11 UNL     1       4.583 -14.571 -24.991  1.00  0.00     0.051 A 
HETATM   17  C12 UNL     1       5.682 -15.375 -25.201  1.00  0.00     0.033 A 
HETATM   18  C13 UNL     1       6.787 -14.596 -24.920  1.00  0.00     0.033 A 
HETATM   19  N5  UNL     1       6.400 -13.369 -24.554  1.00  0.00    -0.343 N 
ATOM     20  H5  UNL     1       7.010 -12.596 -24.292  1.00  0.00     0.167 HD
BRANCH  18  21
HETATM   21  C14 UNL     1       8.183 -15.020 -24.996  1.00  0.00     0.027 C 
HETATM   22  C15 UNL     1       8.781 -15.030 -26.172  1.00  0.00     0.005 C 
BRANCH  22  23
HETATM   23  C16 UNL     1      10.193 -15.445 -26.344  1.00  0.00     0.299 C 
BRANCH  23  24
HETATM   24  N4  UNL     1      11.019 -14.285 -26.484  1.00  0.00     0.083 N 
HETATM   25  C17 UNL     1      11.686 -14.329 -27.760  1.00  0.00     0.309 C 
HETATM   26  C18 UNL     1      11.921 -14.116 -25.383  1.00  0.00     0.309 C 
ENDBRANCH  23  24
ENDBRANCH  22  23
ENDBRANCH  18  21
ENDBRANCH  13  15
ENDBRANCH   9  12
BRANCH   1  27
HETATM   27  C4  UNL     1      -0.391  -9.544 -24.671  1.00  0.00     0.068 C 
BRANCH  27  28
HETATM   28  C2  UNL     1      -0.417 -11.029 -24.973  1.00  0.00    -0.017 C 
HETATM   29  C1  UNL     1       0.355 -11.807 -23.933  1.00  0.00     0.010 C 
HETATM   30  C3  UNL     1      -1.831 -11.567 -25.006  1.00  0.00     0.010 C 
ENDBRANCH  27  28
ENDBRANCH   1  27
TORSDOF 7
ENDMDL
MODEL 5
REMARK VINA RESULT: -8.177017357      3.326      3.785
REMARK  7 active torsions:
REMARK  status: ('A' for Active; 'I' for Inactive)
REMARK    1  A    between atoms: C2_2  and  C4_4 
REMARK    2  A    between atoms: C4_4  and  C5_5 
REMARK    3  A    between atoms: C8_13  and  C9_14 
REMARK    4  A    between atoms: N3_15  and  C10_17 
REMARK    5  A    between atoms: C13_20  and  C14_21 
REMARK    6  A    between atoms: C15_22  and  C16_23 
REMARK    7  A    between atoms: C16_23  and  N4_24 
ROOT
HETATM    1  C5  UNL     1       0.312 -10.106 -25.571  1.00  0.00     0.044 C 
HETATM    2  N1  UNL     1      -0.274 -10.994 -24.919  1.00  0.00    -0.365 N 
ATOM      3  H1  UNL     1      -1.088 -11.460 -25.318  1.00  0.00     0.162 HD
HETATM    4  C6  UNL     1       0.174 -11.355 -23.652  1.00  0.00     0.199 C 
HETATM    5  N2  UNL     1       0.046 -12.780 -23.503  1.00  0.00    -0.338 N 
ATOM      6  H2  UNL     1      -0.760 -13.277 -23.123  1.00  0.00     0.164 HD
HETATM    7  C7  UNL     1       1.244 -13.366 -23.983  1.00  0.00     0.229 C 
HETATM    8  O1  UNL     1       1.541 -14.584 -24.071  1.00  0.00    -0.273 OA
HETATM    9  C8  UNL     1       2.180 -12.279 -24.403  1.00  0.00     0.134 C 
HETATM   10  C19 UNL     1       1.693 -11.144 -23.569  1.00  0.00     0.114 C 
HETATM   11  S1  UNL     1       1.685  -9.575 -24.549  1.00  0.00    -0.107 SA
ENDROOT
BRANCH   9  12
HETATM   12  C9  UNL     1       3.591 -12.621 -24.270  1.00  0.00     0.078 C 
HETATM   13  N3  UNL     1       4.064 -13.532 -25.052  1.00  0.00    -0.355 N 
ATOM     14  H3  UNL     1       3.411 -13.952 -25.714  1.00  0.00     0.166 HD
BRANCH  13  15
HETATM   15  C10 UNL     1       5.381 -14.003 -25.084  1.00  0.00     0.105 A 
HETATM   16  C11 UNL     1       5.745 -15.327 -25.111  1.00  0.00     0.051 A 
HETATM   17  C12 UNL     1       7.123 -15.355 -25.133  1.00  0.00     0.033 A 
HETATM   18  C13 UNL     1       7.535 -14.037 -25.117  1.00  0.00     0.033 A 
HETATM   19  N5  UNL     1       6.471 -13.227 -25.088  1.00  0.00    -0.343 N 
ATOM     20  H5  UNL     1       6.488 -12.208 -25.071  1.00  0.00     0.167 HD
BRANCH  18  21
HETATM   21  C14 UNL     1       8.917 -13.566 -25.126  1.00  0.00     0.027 C 
HETATM   22  C15 UNL     1       9.884 -14.436 -25.347  1.00  0.00     0.005 C 
BRANCH  22  23
HETATM   23  C16 UNL     1      11.314 -14.048 -25.373  1.00  0.00     0.299 C 
BRANCH  23  24
HETATM   24  N4  UNL     1      11.967 -14.700 -26.467  1.00  0.00     0.083 N 
HETATM   25  C17 UNL     1      13.385 -14.460 -26.385  1.00  0.00     0.309 C 
HETATM   26  C18 UNL     1      11.407 -14.338 -27.736  1.00  0.00     0.309 C 
ENDBRANCH  23  24
ENDBRANCH  22  23
ENDBRANCH  18  21
ENDBRANCH  13  15
ENDBRANCH   9  12
BRANCH   1  27
HETATM   27  C4  UNL     1      -0.006  -9.593 -26.902  1.00  0.00     0.068 C 
BRANCH  27  28
HETATM   28  C2  UNL     1       0.677  -8.268 -27.179  1.00  0.00    -0.017 C 
HETATM   29  C1  UNL     1       1.061  -8.149 -28.635  1.00  0.00     0.010 C 
HETATM   30  C3  UNL     1      -0.217  -7.096 -26.834  1.00  0.00     0.010 C 
ENDBRANCH  27  28
ENDBRANCH   1  27
TORSDOF 7
ENDMDL
