MODEL 1
REMARK VINA RESULT: -7.985016996      0.000      0.000
REMARK  6 active torsions:
REMARK  status: ('A' for Active; 'I' for Inactive)
REMARK    1  A    between atoms: C1_2  and  C2_4 
REMARK    2  A    between atoms: C5_9  and  S1_10 
REMARK    3  A    between atoms: S1_10  and  N2_13 
REMARK    4  A    between atoms: N2_13  and  C6_15 
REMARK    5  A    between atoms: C10_21  and  N4_22 
REMARK    6  A    between atoms: C13_27  and  N5_28 
ROOT
HETATM    1  C2  UNL     1      27.457 -27.003   0.031  1.00  0.00     0.107 A 
HETATM    2  C3  UNL     1      26.614 -28.088   0.113  1.00  0.00     0.111 A 
HETATM    3  N1  UNL     1      25.293 -27.964   0.059  1.00  0.00    -0.363 N 
ATOM      4  H1  UNL     1      24.697 -28.789   0.124  1.00  0.00     0.165 HD
HETATM    5  C4  UNL     1      24.749 -26.743  -0.081  1.00  0.00     0.072 A 
HETATM    6  C5  UNL     1      23.374 -26.594  -0.105  1.00  0.00     0.107 A 
HETATM    7  C11 UNL     1      22.781 -25.360  -0.217  1.00  0.00     0.030 A 
HETATM    8  C12 UNL     1      23.542 -24.244  -0.309  1.00  0.00     0.039 A 
HETATM    9  C13 UNL     1      24.960 -24.320  -0.293  1.00  0.00     0.119 A 
HETATM   10  C14 UNL     1      25.531 -25.572  -0.177  1.00  0.00     0.076 A 
HETATM   11  C15 UNL     1      26.894 -25.743  -0.114  1.00  0.00     0.205 A 
HETATM   12  O9  UNL     1      27.690 -24.801  -0.177  1.00  0.00    -0.286 OA
ENDROOT
BRANCH   6  13
HETATM   13  S1  UNL     1      22.358 -28.002   0.007  1.00  0.00     0.266 S 
HETATM   14  O3  UNL     1      22.672 -28.913  -1.146  1.00  0.00    -0.200 OA
HETATM   15  O4  UNL     1      20.892 -27.602  -0.204  1.00  0.00    -0.200 OA
BRANCH  13  16
HETATM   16  N2  UNL     1      22.504 -28.870   1.457  1.00  0.00    -0.264 N 
ATOM     17  H2  UNL     1      22.705 -29.868   1.397  1.00  0.00     0.180 HD
BRANCH  16  18
HETATM   18  C6  UNL     1      22.378 -28.357   2.607  1.00  0.00     0.148 A 
HETATM   19  N3  UNL     1      21.466 -27.470   3.023  1.00  0.00    -0.350 N 
HETATM   20  C7  UNL     1      21.428 -26.987   4.286  1.00  0.00     0.090 A 
ATOM     21  H3  UNL     1      20.768 -27.142   2.355  1.00  0.00     0.166 HD
HETATM   22  C8  UNL     1      22.330 -27.371   5.255  1.00  0.00     0.020 A 
HETATM   23  C9  UNL     1      23.290 -28.286   4.874  1.00  0.00     0.041 A 
HETATM   24  C10 UNL     1      23.305 -28.759   3.585  1.00  0.00     0.147 A 
BRANCH  24  25
HETATM   25  N4  UNL     1      24.295 -29.698   3.201  1.00  0.00    -0.112 N 
HETATM   26  O5  UNL     1      25.455 -29.279   3.017  1.00  0.00    -0.532 OA
HETATM   27  O6  UNL     1      24.045 -31.016   3.029  1.00  0.00    -0.532 OA
ENDBRANCH  24  25
ENDBRANCH  16  18
ENDBRANCH  13  16
ENDBRANCH   6  13
BRANCH   9  28
HETATM   28  N5  UNL     1      25.640 -23.107  -0.389  1.00  0.00    -0.115 N 
HETATM   29  O7  UNL     1      25.754 -22.460   0.717  1.00  0.00    -0.532 OA
HETATM   30  O8  UNL     1      26.201 -22.539  -1.451  1.00  0.00    -0.532 OA
ENDBRANCH   9  28
BRANCH   1  31
HETATM   31  C1  UNL     1      28.904 -27.170   0.096  1.00  0.00     0.214 C 
HETATM   32  O1  UNL     1      29.516 -27.490  -0.947  1.00  0.00    -0.644 OA
HETATM   33  O2  UNL     1      29.586 -26.975   1.295  1.00  0.00    -0.644 OA
ENDBRANCH   1  31
TORSDOF 6
ENDMDL
MODEL 2
REMARK VINA RESULT: -7.964913538      8.546     10.757
REMARK  6 active torsions:
REMARK  status: ('A' for Active; 'I' for Inactive)
REMARK    1  A    between atoms: C1_2  and  C2_4 
REMARK    2  A    between atoms: C5_9  and  S1_10 
REMARK    3  A    between atoms: S1_10  and  N2_13 
REMARK    4  A    between atoms: N2_13  and  C6_15 
REMARK    5  A    between atoms: C10_21  and  N4_22 
REMARK    6  A    between atoms: C13_27  and  N5_28 
ROOT
HETATM    1  C2  UNL     1      22.579 -17.662  10.564  1.00  0.00     0.107 A 
HETATM    2  C3  UNL     1      22.228 -18.858  11.148  1.00  0.00     0.111 A 
HETATM    3  N1  UNL     1      22.156 -19.989  10.457  1.00  0.00    -0.363 N 
ATOM      4  H1  UNL     1      21.892 -20.858  10.921  1.00  0.00     0.165 HD
HETATM    5  C4  UNL     1      22.434 -19.979   9.142  1.00  0.00     0.072 A 
HETATM    6  C5  UNL     1      22.331 -21.144   8.402  1.00  0.00     0.107 A 
HETATM    7  C11 UNL     1      22.577 -21.167   7.051  1.00  0.00     0.030 A 
HETATM    8  C12 UNL     1      22.934 -20.032   6.403  1.00  0.00     0.039 A 
HETATM    9  C13 UNL     1      23.062 -18.801   7.098  1.00  0.00     0.119 A 
HETATM   10  C14 UNL     1      22.806 -18.804   8.455  1.00  0.00     0.076 A 
HETATM   11  C15 UNL     1      22.866 -17.653   9.205  1.00  0.00     0.205 A 
HETATM   12  O9  UNL     1      23.169 -16.557   8.726  1.00  0.00    -0.286 OA
ENDROOT
BRANCH   6  13
HETATM   13  S1  UNL     1      21.879 -22.625   9.194  1.00  0.00     0.266 S 
HETATM   14  O3  UNL     1      20.720 -22.345  10.108  1.00  0.00    -0.200 OA
HETATM   15  O4  UNL     1      23.008 -23.080  10.128  1.00  0.00    -0.200 OA
BRANCH  13  16
HETATM   16  N2  UNL     1      21.467 -23.894   8.147  1.00  0.00    -0.264 N 
ATOM     17  H2  UNL     1      21.022 -23.656   7.260  1.00  0.00     0.180 HD
BRANCH  16  18
HETATM   18  C6  UNL     1      21.676 -25.117   8.397  1.00  0.00     0.148 A 
HETATM   19  N3  UNL     1      21.936 -25.688   9.579  1.00  0.00    -0.350 N 
HETATM   20  C7  UNL     1      22.145 -27.017   9.728  1.00  0.00     0.090 A 
ATOM     21  H3  UNL     1      21.978 -25.093  10.407  1.00  0.00     0.166 HD
HETATM   22  C8  UNL     1      22.109 -27.897   8.668  1.00  0.00     0.020 A 
HETATM   23  C9  UNL     1      21.843 -27.355   7.427  1.00  0.00     0.041 A 
HETATM   24  C10 UNL     1      21.634 -26.002   7.306  1.00  0.00     0.147 A 
BRANCH  24  25
HETATM   25  N4  UNL     1      21.364 -25.454   6.027  1.00  0.00    -0.112 N 
HETATM   26  O5  UNL     1      22.334 -25.124   5.316  1.00  0.00    -0.532 OA
HETATM   27  O6  UNL     1      20.113 -25.274   5.543  1.00  0.00    -0.532 OA
ENDBRANCH  24  25
ENDBRANCH  16  18
ENDBRANCH  13  16
ENDBRANCH   6  13
BRANCH   9  28
HETATM   28  N5  UNL     1      23.429 -17.698   6.329  1.00  0.00    -0.115 N 
HETATM   29  O7  UNL     1      24.698 -17.502   6.233  1.00  0.00    -0.532 OA
HETATM   30  O8  UNL     1      22.660 -16.838   5.669  1.00  0.00    -0.532 OA
ENDBRANCH   9  28
BRANCH   1  31
HETATM   31  C1  UNL     1      22.647 -16.434  11.348  1.00  0.00     0.214 C 
HETATM   32  O1  UNL     1      23.202 -16.472  12.468  1.00  0.00    -0.644 OA
HETATM   33  O2  UNL     1      22.106 -15.249  10.855  1.00  0.00    -0.644 OA
ENDBRANCH   1  31
TORSDOF 6
ENDMDL
MODEL 3
REMARK VINA RESULT: -7.820305533      1.450      2.237
REMARK  6 active torsions:
REMARK  status: ('A' for Active; 'I' for Inactive)
REMARK    1  A    between atoms: C1_2  and  C2_4 
REMARK    2  A    between atoms: C5_9  and  S1_10 
REMARK    3  A    between atoms: S1_10  and  N2_13 
REMARK    4  A    between atoms: N2_13  and  C6_15 
REMARK    5  A    between atoms: C10_21  and  N4_22 
REMARK    6  A    between atoms: C13_27  and  N5_28 
ROOT
HETATM    1  C2  UNL     1      27.350 -27.058   0.046  1.00  0.00     0.107 A 
HETATM    2  C3  UNL     1      26.498 -28.136   0.114  1.00  0.00     0.111 A 
HETATM    3  N1  UNL     1      25.179 -28.002   0.031  1.00  0.00    -0.363 N 
ATOM      4  H1  UNL     1      24.575 -28.822   0.087  1.00  0.00     0.165 HD
HETATM    5  C4  UNL     1      24.648 -26.778  -0.127  1.00  0.00     0.072 A 
HETATM    6  C5  UNL     1      23.275 -26.619  -0.182  1.00  0.00     0.107 A 
HETATM    7  C11 UNL     1      22.694 -25.381  -0.312  1.00  0.00     0.030 A 
HETATM    8  C12 UNL     1      23.466 -24.271  -0.393  1.00  0.00     0.039 A 
HETATM    9  C13 UNL     1      24.881 -24.358  -0.345  1.00  0.00     0.119 A 
HETATM   10  C14 UNL     1      25.440 -25.613  -0.211  1.00  0.00     0.076 A 
HETATM   11  C15 UNL     1      26.800 -25.794  -0.118  1.00  0.00     0.205 A 
HETATM   12  O9  UNL     1      27.605 -24.859  -0.167  1.00  0.00    -0.286 OA
ENDROOT
BRANCH   6  13
HETATM   13  S1  UNL     1      22.246 -28.018  -0.085  1.00  0.00     0.266 S 
HETATM   14  O3  UNL     1      22.964 -29.185  -0.701  1.00  0.00    -0.200 OA
HETATM   15  O4  UNL     1      21.008 -27.815  -0.969  1.00  0.00    -0.200 OA
BRANCH  13  16
HETATM   16  N2  UNL     1      21.756 -28.433   1.484  1.00  0.00    -0.264 N 
ATOM     17  H2  UNL     1      21.343 -29.355   1.628  1.00  0.00     0.180 HD
BRANCH  16  18
HETATM   18  C6  UNL     1      21.869 -27.671   2.489  1.00  0.00     0.148 A 
HETATM   19  N3  UNL     1      22.988 -27.276   3.106  1.00  0.00    -0.350 N 
HETATM   20  C7  UNL     1      22.989 -26.454   4.181  1.00  0.00     0.090 A 
ATOM     21  H3  UNL     1      23.884 -27.611   2.750  1.00  0.00     0.166 HD
HETATM   22  C8  UNL     1      21.830 -25.953   4.733  1.00  0.00     0.020 A 
HETATM   23  C9  UNL     1      20.648 -26.331   4.129  1.00  0.00     0.041 A 
HETATM   24  C10 UNL     1      20.677 -27.167   3.039  1.00  0.00     0.147 A 
BRANCH  24  25
HETATM   25  N4  UNL     1      19.459 -27.553   2.427  1.00  0.00    -0.112 N 
HETATM   26  O5  UNL     1      18.835 -28.513   2.922  1.00  0.00    -0.532 OA
HETATM   27  O6  UNL     1      18.942 -26.933   1.341  1.00  0.00    -0.532 OA
ENDBRANCH  24  25
ENDBRANCH  16  18
ENDBRANCH  13  16
ENDBRANCH   6  13
BRANCH   9  28
HETATM   28  N5  UNL     1      25.573 -23.150  -0.432  1.00  0.00    -0.115 N 
HETATM   29  O7  UNL     1      25.668 -22.498   0.673  1.00  0.00    -0.532 OA
HETATM   30  O8  UNL     1      26.162 -22.591  -1.485  1.00  0.00    -0.532 OA
ENDBRANCH   9  28
BRANCH   1  31
HETATM   31  C1  UNL     1      28.795 -27.235   0.143  1.00  0.00     0.214 C 
HETATM   32  O1  UNL     1      29.438 -27.479  -0.901  1.00  0.00    -0.644 OA
HETATM   33  O2  UNL     1      29.439 -27.133   1.375  1.00  0.00    -0.644 OA
ENDBRANCH   1  31
TORSDOF 6
ENDMDL
MODEL 4
REMARK VINA RESULT: -7.819606319      1.869      2.540
REMARK  6 active torsions:
REMARK  status: ('A' for Active; 'I' for Inactive)
REMARK    1  A    between atoms: C1_2  and  C2_4 
REMARK    2  A    between atoms: C5_9  and  S1_10 
REMARK    3  A    between atoms: S1_10  and  N2_13 
REMARK    4  A    between atoms: N2_13  and  C6_15 
REMARK    5  A    between atoms: C10_21  and  N4_22 
REMARK    6  A    between atoms: C13_27  and  N5_28 
ROOT
HETATM    1  C2  UNL     1      27.876 -26.826   0.265  1.00  0.00     0.107 A 
HETATM    2  C3  UNL     1      27.000 -27.666   0.914  1.00  0.00     0.111 A 
HETATM    3  N1  UNL     1      25.740 -27.323   1.158  1.00  0.00    -0.363 N 
ATOM      4  H1  UNL     1      25.117 -27.969   1.643  1.00  0.00     0.165 HD
HETATM    5  C4  UNL     1      25.295 -26.119   0.761  1.00  0.00     0.072 A 
HETATM    6  C5  UNL     1      23.995 -25.734   1.038  1.00  0.00     0.107 A 
HETATM    7  C11 UNL     1      23.512 -24.500   0.675  1.00  0.00     0.030 A 
HETATM    8  C12 UNL     1      24.311 -23.620   0.027  1.00  0.00     0.039 A 
HETATM    9  C13 UNL     1      25.655 -23.946  -0.292  1.00  0.00     0.119 A 
HETATM   10  C14 UNL     1      26.116 -25.191   0.086  1.00  0.00     0.076 A 
HETATM   11  C15 UNL     1      27.414 -25.583  -0.145  1.00  0.00     0.205 A 
HETATM   12  O9  UNL     1      28.239 -24.864  -0.716  1.00  0.00    -0.286 OA
ENDROOT
BRANCH   6  13
HETATM   13  S1  UNL     1      22.933 -26.836   1.865  1.00  0.00     0.266 S 
HETATM   14  O3  UNL     1      23.732 -27.596   2.886  1.00  0.00    -0.200 OA
HETATM   15  O4  UNL     1      22.433 -27.908   0.888  1.00  0.00    -0.200 OA
BRANCH  13  16
HETATM   16  N2  UNL     1      21.607 -26.106   2.630  1.00  0.00    -0.264 N 
ATOM     17  H2  UNL     1      20.846 -25.763   2.043  1.00  0.00     0.180 HD
BRANCH  16  18
HETATM   18  C6  UNL     1      21.501 -25.960   3.883  1.00  0.00     0.148 A 
HETATM   19  N3  UNL     1      22.026 -24.999   4.651  1.00  0.00    -0.350 N 
HETATM   20  C7  UNL     1      21.846 -24.943   5.992  1.00  0.00     0.090 A 
ATOM     21  H3  UNL     1      22.590 -24.274   4.206  1.00  0.00     0.166 HD
HETATM   22  C8  UNL     1      21.103 -25.878   6.680  1.00  0.00     0.020 A 
HETATM   23  C9  UNL     1      20.539 -26.890   5.929  1.00  0.00     0.041 A 
HETATM   24  C10 UNL     1      20.739 -26.921   4.570  1.00  0.00     0.147 A 
BRANCH  24  25
HETATM   25  N4  UNL     1      20.158 -27.964   3.807  1.00  0.00    -0.112 N 
HETATM   26  O5  UNL     1      20.737 -29.069   3.794  1.00  0.00    -0.532 OA
HETATM   27  O6  UNL     1      19.013 -27.822   3.101  1.00  0.00    -0.532 OA
ENDBRANCH  24  25
ENDBRANCH  16  18
ENDBRANCH  13  16
ENDBRANCH   6  13
BRANCH   9  28
HETATM   28  N5  UNL     1      26.384 -22.961  -0.955  1.00  0.00    -0.115 N 
HETATM   29  O7  UNL     1      26.195 -22.910  -2.227  1.00  0.00    -0.532 OA
HETATM   30  O8  UNL     1      27.227 -22.060  -0.460  1.00  0.00    -0.532 OA
ENDBRANCH   9  28
BRANCH   1  31
HETATM   31  C1  UNL     1      29.255 -27.229   0.013  1.00  0.00     0.214 C 
HETATM   32  O1  UNL     1      29.552 -27.667  -1.120  1.00  0.00    -0.644 OA
HETATM   33  O2  UNL     1      30.217 -27.125   1.016  1.00  0.00    -0.644 OA
ENDBRANCH   1  31
TORSDOF 6
ENDMDL
MODEL 5
REMARK VINA RESULT: -7.799122186      2.694      6.966
REMARK  6 active torsions:
REMARK  status: ('A' for Active; 'I' for Inactive)
REMARK    1  A    between atoms: C1_2  and  C2_4 
REMARK    2  A    between atoms: C5_9  and  S1_10 
REMARK    3  A    between atoms: S1_10  and  N2_13 
REMARK    4  A    between atoms: N2_13  and  C6_15 
REMARK    5  A    between atoms: C10_21  and  N4_22 
REMARK    6  A    between atoms: C13_27  and  N5_28 
ROOT
HETATM    1  C2  UNL     1      21.710 -25.717   4.603  1.00  0.00     0.107 A 
HETATM    2  C3  UNL     1      21.795 -25.137   3.358  1.00  0.00     0.111 A 
HETATM    3  N1  UNL     1      22.424 -25.722   2.345  1.00  0.00    -0.363 N 
ATOM      4  H1  UNL     1      22.469 -25.265   1.435  1.00  0.00     0.165 HD
HETATM    5  C4  UNL     1      22.999 -26.923   2.530  1.00  0.00     0.072 A 
HETATM    6  C5  UNL     1      23.686 -27.530   1.494  1.00  0.00     0.107 A 
HETATM    7  C11 UNL     1      24.312 -28.743   1.653  1.00  0.00     0.030 A 
HETATM    8  C12 UNL     1      24.268 -29.381   2.846  1.00  0.00     0.039 A 
HETATM    9  C13 UNL     1      23.581 -28.819   3.953  1.00  0.00     0.119 A 
HETATM   10  C14 UNL     1      22.963 -27.598   3.768  1.00  0.00     0.076 A 
HETATM   11  C15 UNL     1      22.305 -26.957   4.792  1.00  0.00     0.205 A 
HETATM   12  O9  UNL     1      22.207 -27.434   5.927  1.00  0.00    -0.286 OA
ENDROOT
BRANCH   6  13
HETATM   13  S1  UNL     1      23.763 -26.747  -0.057  1.00  0.00     0.266 S 
HETATM   14  O3  UNL     1      22.377 -26.325  -0.451  1.00  0.00    -0.200 OA
HETATM   15  O4  UNL     1      24.180 -27.761  -1.131  1.00  0.00    -0.200 OA
BRANCH  13  16
HETATM   16  N2  UNL     1      24.793 -25.401  -0.123  1.00  0.00    -0.264 N 
ATOM     17  H2  UNL     1      24.410 -24.523  -0.473  1.00  0.00     0.180 HD
BRANCH  16  18
HETATM   18  C6  UNL     1      26.008 -25.418   0.233  1.00  0.00     0.148 A 
HETATM   19  N3  UNL     1      26.959 -26.294  -0.110  1.00  0.00    -0.350 N 
HETATM   20  C7  UNL     1      28.235 -26.213   0.337  1.00  0.00     0.090 A 
ATOM     21  H3  UNL     1      26.712 -27.058  -0.738  1.00  0.00     0.166 HD
HETATM   22  C8  UNL     1      28.661 -25.216   1.188  1.00  0.00     0.020 A 
HETATM   23  C9  UNL     1      27.714 -24.287   1.570  1.00  0.00     0.041 A 
HETATM   24  C10 UNL     1      26.427 -24.394   1.101  1.00  0.00     0.147 A 
BRANCH  24  25
HETATM   25  N4  UNL     1      25.461 -23.437   1.501  1.00  0.00    -0.112 N 
HETATM   26  O5  UNL     1      25.294 -22.438   0.774  1.00  0.00    -0.532 OA
HETATM   27  O6  UNL     1      24.715 -23.556   2.623  1.00  0.00    -0.532 OA
ENDBRANCH  24  25
ENDBRANCH  16  18
ENDBRANCH  13  16
ENDBRANCH   6  13
BRANCH   9  28
HETATM   28  N5  UNL     1      23.607 -29.561   5.133  1.00  0.00    -0.115 N 
HETATM   29  O7  UNL     1      24.591 -29.297   5.919  1.00  0.00    -0.532 OA
HETATM   30  O8  UNL     1      22.753 -30.483   5.566  1.00  0.00    -0.532 OA
ENDBRANCH   9  28
BRANCH   1  31
HETATM   31  C1  UNL     1      21.016 -25.049   5.697  1.00  0.00     0.214 C 
HETATM   32  O1  UNL     1      19.765 -25.055   5.703  1.00  0.00    -0.644 OA
HETATM   33  O2  UNL     1      21.734 -24.420   6.713  1.00  0.00    -0.644 OA
ENDBRANCH   1  31
TORSDOF 6
ENDMDL
