MODEL 1
REMARK VINA RESULT: -5.939842600      0.000      0.000
REMARK  13 active torsions:
REMARK  status: ('A' for Active; 'I' for Inactive)
REMARK    1  A    between atoms: C2_2  and  C3_3 
REMARK    2  A    between atoms: C3_3  and  C4_4 
REMARK    3  A    between atoms: C11_15  and  C12_16 
REMARK    4  A    between atoms: C12_16  and  C13_17 
REMARK    5  A    between atoms: C17_24  and  C18_25 
REMARK    6  A    between atoms: C18_25  and  C19_26 
REMARK    7  A    between atoms: C23_33  and  C24_34 
REMARK    8  A    between atoms: C24_34  and  C25_35 
REMARK    9  A    between atoms: C25_35  and  C26_36 
REMARK   10  A    between atoms: C26_36  and  C27_37 
REMARK   11  A    between atoms: C27_37  and  N5_38 
REMARK   12  A    between atoms: C29_46  and  C30_47 
REMARK   13  A    between atoms: C30_47  and  C31_48 
ROOT
HETATM    1  C4  UNL     1      12.658  18.092  19.417  1.00  0.00     0.126 C 
HETATM    2  C5  UNL     1      13.018  19.474  19.815  1.00  0.00     0.092 C 
HETATM    3  N1  UNL     1      14.348  19.920  19.848  1.00  0.00    -0.329 N 
HETATM    4  C6  UNL     1      14.657  20.886  20.978  1.00  0.00     0.131 C 
HETATM    5  C7  UNL     1      15.323  22.096  20.376  1.00  0.00     0.022 C 
HETATM    6  C8  UNL     1      16.309  21.850  19.300  1.00  0.00     0.025 C 
HETATM    7  C9  UNL     1      15.708  21.001  18.212  1.00  0.00     0.170 C 
HETATM    8  C10 UNL     1      16.543  20.772  17.046  1.00  0.00     0.231 C 
HETATM    9  O1  UNL     1      17.708  20.283  17.247  1.00  0.00    -0.273 OA
HETATM   10  N2  UNL     1      16.122  21.065  15.737  1.00  0.00    -0.347 N 
ATOM     11  H2  UNL     1      16.785  20.909  14.977  1.00  0.00     0.163 HD
HETATM   12  C11 UNL     1      14.790  21.580  15.391  1.00  0.00     0.177 C 
HETATM   13  C16 UNL     1      14.562  21.362  13.949  1.00  0.00     0.245 C 
HETATM   14  O2  UNL     1      14.861  22.333  13.169  1.00  0.00    -0.271 OA
HETATM   15  N3  UNL     1      14.052  20.201  13.323  1.00  0.00    -0.321 N 
ATOM     16  H3  UNL     1      14.535  19.879  12.484  1.00  0.00     0.169 HD
HETATM   17  C17 UNL     1      12.929  19.440  13.750  1.00  0.00     0.099 C 
HETATM   18  C22 UNL     1      11.629  20.128  13.437  1.00  0.00     0.268 C 
HETATM   19  O3  UNL     1      11.765  21.396  13.257  1.00  0.00    -0.266 OA
HETATM   20  N4  UNL     1      10.370  19.596  13.322  1.00  0.00    -0.342 N 
ATOM     21  H4  UNL     1       9.953  19.725  12.400  1.00  0.00     0.163 HD
HETATM   22  C23 UNL     1       9.518  18.886  14.253  1.00  0.00     0.177 C 
HETATM   23  C28 UNL     1       9.577  19.385  15.639  1.00  0.00     0.241 C 
HETATM   24  O4  UNL     1       8.913  20.470  15.857  1.00  0.00    -0.271 OA
HETATM   25  N6  UNL     1      10.280  18.786  16.692  1.00  0.00    -0.346 N 
ATOM     26  H6  UNL     1      10.677  19.408  17.396  1.00  0.00     0.163 HD
HETATM   27  C29 UNL     1      10.495  17.371  16.874  1.00  0.00     0.177 C 
HETATM   28  C34 UNL     1      11.938  17.070  17.185  1.00  0.00     0.241 C 
HETATM   29  O5  UNL     1      12.442  16.029  16.610  1.00  0.00    -0.271 OA
HETATM   30  N7  UNL     1      12.787  17.785  18.016  1.00  0.00    -0.350 N 
ATOM     31  H7  UNL     1      13.629  18.147  17.569  1.00  0.00     0.163 HD
HETATM   32  C35 UNL     1      15.398  19.685  18.970  1.00  0.00     0.236 C 
HETATM   33  O6  UNL     1      16.151  18.759  18.622  1.00  0.00    -0.272 OA
ENDROOT
BRANCH  22  34
HETATM   34  C24 UNL     1       8.078  19.216  13.787  1.00  0.00     0.035 C 
BRANCH  34  35
HETATM   35  C25 UNL     1       7.255  18.000  13.535  1.00  0.00     0.004 C 
BRANCH  35  36
HETATM   36  C26 UNL     1       7.741  17.229  12.316  1.00  0.00     0.027 C 
BRANCH  36  37
HETATM   37  C27 UNL     1       7.559  18.144  11.098  1.00  0.00     0.229 C 
BRANCH  37  38
HETATM   38  N5  UNL     1       8.782  18.150  10.353  1.00  0.00    -0.079 N 
ATOM     39  H53 UNL     1       8.811  18.890   9.653  1.00  0.00     0.274 HD
ATOM     40  H52 UNL     1       9.579  18.455  10.911  1.00  0.00     0.274 HD
ATOM     41  H51 UNL     1       8.917  17.222   9.951  1.00  0.00     0.274 HD
ENDBRANCH  37  38
ENDBRANCH  36  37
ENDBRANCH  35  36
ENDBRANCH  34  35
ENDBRANCH  22  34
BRANCH  17  42
HETATM   42  C18 UNL     1      12.917  18.003  13.539  1.00  0.00     0.012 C 
BRANCH  42  43
HETATM   43  C19 UNL     1      13.051  17.310  12.275  1.00  0.00     0.002 C 
HETATM   44  C20 UNL     1      11.824  16.609  11.759  1.00  0.00     0.013 C 
HETATM   45  C21 UNL     1      14.291  16.453  12.105  1.00  0.00     0.013 C 
ENDBRANCH  42  43
ENDBRANCH  17  42
BRANCH  27  46
HETATM   46  C30 UNL     1       9.542  16.741  17.825  1.00  0.00     0.038 C 
BRANCH  46  47
HETATM   47  C31 UNL     1       9.008  15.454  17.260  1.00  0.00    -0.020 C 
HETATM   48  C32 UNL     1       9.660  14.214  17.796  1.00  0.00     0.009 C 
HETATM   49  C33 UNL     1       9.015  15.462  15.739  1.00  0.00     0.009 C 
ENDBRANCH  46  47
ENDBRANCH  27  46
BRANCH  12  50
HETATM   50  C12 UNL     1      14.885  23.074  15.658  1.00  0.00     0.038 C 
BRANCH  50  51
HETATM   51  C13 UNL     1      16.273  23.595  15.773  1.00  0.00    -0.020 C 
HETATM   52  C14 UNL     1      16.644  24.493  14.615  1.00  0.00     0.009 C 
HETATM   53  C15 UNL     1      16.335  24.490  17.019  1.00  0.00     0.009 C 
ENDBRANCH  50  51
ENDBRANCH  12  50
BRANCH   1  54
HETATM   54  C3  UNL     1      13.369  17.074  20.247  1.00  0.00     0.056 C 
BRANCH  54  55
HETATM   55  C2  UNL     1      12.848  17.023  21.661  1.00  0.00    -0.035 C 
HETATM   56  C1  UNL     1      13.564  17.517  22.646  1.00  0.00     0.007 C 
ENDBRANCH  54  55
ENDBRANCH   1  54
TORSDOF 13
ENDMDL
MODEL 2
REMARK VINA RESULT: -5.551620178     12.356     17.104
REMARK  13 active torsions:
REMARK  status: ('A' for Active; 'I' for Inactive)
REMARK    1  A    between atoms: C2_2  and  C3_3 
REMARK    2  A    between atoms: C3_3  and  C4_4 
REMARK    3  A    between atoms: C11_15  and  C12_16 
REMARK    4  A    between atoms: C12_16  and  C13_17 
REMARK    5  A    between atoms: C17_24  and  C18_25 
REMARK    6  A    between atoms: C18_25  and  C19_26 
REMARK    7  A    between atoms: C23_33  and  C24_34 
REMARK    8  A    between atoms: C24_34  and  C25_35 
REMARK    9  A    between atoms: C25_35  and  C26_36 
REMARK   10  A    between atoms: C26_36  and  C27_37 
REMARK   11  A    between atoms: C27_37  and  N5_38 
REMARK   12  A    between atoms: C29_46  and  C30_47 
REMARK   13  A    between atoms: C30_47  and  C31_48 
ROOT
HETATM    1  C4  UNL     1      28.390  27.840  23.367  1.00  0.00     0.126 C 
HETATM    2  C5  UNL     1      28.431  29.043  22.501  1.00  0.00     0.092 C 
HETATM    3  N1  UNL     1      29.519  29.323  21.660  1.00  0.00    -0.329 N 
HETATM    4  C6  UNL     1      29.851  30.800  21.537  1.00  0.00     0.131 C 
HETATM    5  C7  UNL     1      29.924  31.131  20.070  1.00  0.00     0.022 C 
HETATM    6  C8  UNL     1      30.573  30.133  19.190  1.00  0.00     0.025 C 
HETATM    7  C9  UNL     1      29.954  28.775  19.379  1.00  0.00     0.170 C 
HETATM    8  C10 UNL     1      30.435  27.725  18.497  1.00  0.00     0.231 C 
HETATM    9  O1  UNL     1      31.696  27.517  18.469  1.00  0.00    -0.273 OA
HETATM   10  N2  UNL     1      29.578  26.953  17.694  1.00  0.00    -0.347 N 
ATOM     11  H2  UNL     1      30.001  26.262  17.074  1.00  0.00     0.163 HD
HETATM   12  C11 UNL     1      28.113  27.076  17.686  1.00  0.00     0.177 C 
HETATM   13  C16 UNL     1      27.543  25.859  17.075  1.00  0.00     0.245 C 
HETATM   14  O2  UNL     1      27.299  25.911  15.819  1.00  0.00    -0.271 OA
HETATM   15  N3  UNL     1      27.234  24.637  17.715  1.00  0.00    -0.321 N 
ATOM     16  H3  UNL     1      27.519  23.782  17.238  1.00  0.00     0.169 HD
HETATM   17  C17 UNL     1      26.563  24.485  18.960  1.00  0.00     0.099 C 
HETATM   18  C22 UNL     1      25.086  24.747  18.840  1.00  0.00     0.268 C 
HETATM   19  O3  UNL     1      24.785  25.448  17.803  1.00  0.00    -0.266 OA
HETATM   20  N4  UNL     1      24.064  24.345  19.662  1.00  0.00    -0.342 N 
ATOM     21  H4  UNL     1      23.374  23.754  19.199  1.00  0.00     0.163 HD
HETATM   22  C23 UNL     1      23.773  24.597  21.058  1.00  0.00     0.177 C 
HETATM   23  C28 UNL     1      24.092  25.963  21.513  1.00  0.00     0.241 C 
HETATM   24  O4  UNL     1      23.234  26.865  21.170  1.00  0.00    -0.271 OA
HETATM   25  N6  UNL     1      25.218  26.332  22.259  1.00  0.00    -0.346 N 
ATOM     26  H6  UNL     1      25.605  27.260  22.083  1.00  0.00     0.163 HD
HETATM   27  C29 UNL     1      25.882  25.524  23.252  1.00  0.00     0.177 C 
HETATM   28  C34 UNL     1      27.374  25.513  23.044  1.00  0.00     0.241 C 
HETATM   29  O5  UNL     1      27.967  24.379  23.211  1.00  0.00    -0.271 OA
HETATM   30  N7  UNL     1      28.183  26.584  22.693  1.00  0.00    -0.350 N 
ATOM     31  H7  UNL     1      28.709  26.464  21.828  1.00  0.00     0.163 HD
HETATM   32  C35 UNL     1      30.282  28.479  20.864  1.00  0.00     0.236 C 
HETATM   33  O6  UNL     1      31.134  27.582  20.983  1.00  0.00    -0.272 OA
ENDROOT
BRANCH  22  34
HETATM   34  C24 UNL     1      22.230  24.510  21.152  1.00  0.00     0.035 C 
BRANCH  34  35
HETATM   35  C25 UNL     1      21.597  24.018  19.897  1.00  0.00     0.004 C 
BRANCH  35  36
HETATM   36  C26 UNL     1      20.400  24.867  19.495  1.00  0.00     0.027 C 
BRANCH  36  37
HETATM   37  C27 UNL     1      20.931  26.030  18.648  1.00  0.00     0.229 C 
BRANCH  37  38
HETATM   38  N5  UNL     1      20.735  27.245  19.379  1.00  0.00    -0.079 N 
ATOM     39  H53 UNL     1      19.766  27.561  19.363  1.00  0.00     0.274 HD
ATOM     40  H52 UNL     1      20.823  27.115  20.386  1.00  0.00     0.274 HD
ATOM     41  H51 UNL     1      21.383  27.946  19.016  1.00  0.00     0.274 HD
ENDBRANCH  37  38
ENDBRANCH  36  37
ENDBRANCH  35  36
ENDBRANCH  34  35
ENDBRANCH  22  34
BRANCH  17  42
HETATM   42  C18 UNL     1      26.911  23.376  19.829  1.00  0.00     0.012 C 
BRANCH  42  43
HETATM   43  C19 UNL     1      27.046  21.985  19.451  1.00  0.00     0.002 C 
HETATM   44  C20 UNL     1      25.769  21.217  19.242  1.00  0.00     0.013 C 
HETATM   45  C21 UNL     1      28.060  21.170  20.229  1.00  0.00     0.013 C 
ENDBRANCH  42  43
ENDBRANCH  17  42
BRANCH  27  46
HETATM   46  C30 UNL     1      25.482  25.846  24.647  1.00  0.00     0.038 C 
BRANCH  46  47
HETATM   47  C31 UNL     1      26.581  25.483  25.606  1.00  0.00    -0.020 C 
HETATM   48  C32 UNL     1      26.365  24.197  26.350  1.00  0.00     0.009 C 
HETATM   49  C33 UNL     1      26.890  26.623  26.565  1.00  0.00     0.009 C 
ENDBRANCH  46  47
ENDBRANCH  27  46
BRANCH  12  50
HETATM   50  C12 UNL     1      27.841  28.263  16.776  1.00  0.00     0.038 C 
BRANCH  50  51
HETATM   51  C13 UNL     1      26.840  29.229  17.300  1.00  0.00    -0.020 C 
HETATM   52  C14 UNL     1      27.309  30.661  17.177  1.00  0.00     0.009 C 
HETATM   53  C15 UNL     1      25.588  29.132  16.416  1.00  0.00     0.009 C 
ENDBRANCH  50  51
ENDBRANCH  12  50
BRANCH   1  54
HETATM   54  C3  UNL     1      29.581  27.764  24.265  1.00  0.00     0.056 C 
BRANCH  54  55
HETATM   55  C2  UNL     1      29.604  28.879  25.280  1.00  0.00    -0.035 C 
HETATM   56  C1  UNL     1      30.680  29.621  25.420  1.00  0.00     0.007 C 
ENDBRANCH  54  55
ENDBRANCH   1  54
TORSDOF 13
ENDMDL
MODEL 3
REMARK VINA RESULT: -5.399207503      2.132      7.341
REMARK  13 active torsions:
REMARK  status: ('A' for Active; 'I' for Inactive)
REMARK    1  A    between atoms: C2_2  and  C3_3 
REMARK    2  A    between atoms: C3_3  and  C4_4 
REMARK    3  A    between atoms: C11_15  and  C12_16 
REMARK    4  A    between atoms: C12_16  and  C13_17 
REMARK    5  A    between atoms: C17_24  and  C18_25 
REMARK    6  A    between atoms: C18_25  and  C19_26 
REMARK    7  A    between atoms: C23_33  and  C24_34 
REMARK    8  A    between atoms: C24_34  and  C25_35 
REMARK    9  A    between atoms: C25_35  and  C26_36 
REMARK   10  A    between atoms: C26_36  and  C27_37 
REMARK   11  A    between atoms: C27_37  and  N5_38 
REMARK   12  A    between atoms: C29_46  and  C30_47 
REMARK   13  A    between atoms: C30_47  and  C31_48 
ROOT
HETATM    1  C4  UNL     1      10.828  16.332  17.697  1.00  0.00     0.126 C 
HETATM    2  C5  UNL     1      11.573  15.345  16.878  1.00  0.00     0.092 C 
HETATM    3  N1  UNL     1      11.144  14.958  15.599  1.00  0.00    -0.329 N 
HETATM    4  C6  UNL     1      11.393  13.497  15.270  1.00  0.00     0.131 C 
HETATM    5  C7  UNL     1      12.110  13.442  13.947  1.00  0.00     0.022 C 
HETATM    6  C8  UNL     1      11.657  14.387  12.901  1.00  0.00     0.025 C 
HETATM    7  C9  UNL     1      11.654  15.798  13.424  1.00  0.00     0.170 C 
HETATM    8  C10 UNL     1      11.326  16.835  12.462  1.00  0.00     0.231 C 
HETATM    9  O1  UNL     1      10.225  16.712  11.823  1.00  0.00    -0.273 OA
HETATM   10  N2  UNL     1      12.160  17.939  12.218  1.00  0.00    -0.347 N 
ATOM     11  H2  UNL     1      11.874  18.603  11.498  1.00  0.00     0.163 HD
HETATM   12  C11 UNL     1      13.419  18.202  12.931  1.00  0.00     0.177 C 
HETATM   13  C16 UNL     1      13.786  19.617  12.729  1.00  0.00     0.245 C 
HETATM   14  O2  UNL     1      14.581  19.869  11.757  1.00  0.00    -0.271 OA
HETATM   15  N3  UNL     1      13.361  20.734  13.485  1.00  0.00    -0.321 N 
ATOM     16  H3  UNL     1      13.071  21.561  12.963  1.00  0.00     0.169 HD
HETATM   17  C17 UNL     1      13.299  20.815  14.904  1.00  0.00     0.099 C 
HETATM   18  C22 UNL     1      14.664  20.970  15.520  1.00  0.00     0.268 C 
HETATM   19  O3  UNL     1      15.612  20.580  14.741  1.00  0.00    -0.266 OA
HETATM   20  N4  UNL     1      15.008  21.459  16.754  1.00  0.00    -0.342 N 
ATOM     21  H4  UNL     1      15.606  22.285  16.717  1.00  0.00     0.163 HD
HETATM   22  C23 UNL     1      14.690  21.031  18.101  1.00  0.00     0.177 C 
HETATM   23  C28 UNL     1      14.650  19.568  18.285  1.00  0.00     0.241 C 
HETATM   24  O4  UNL     1      15.806  19.000  18.376  1.00  0.00    -0.271 OA
HETATM   25  N6  UNL     1      13.491  18.787  18.362  1.00  0.00    -0.346 N 
ATOM     26  H6  UNL     1      13.544  17.842  17.982  1.00  0.00     0.163 HD
HETATM   27  C29 UNL     1      12.228  19.194  18.928  1.00  0.00     0.177 C 
HETATM   28  C34 UNL     1      11.081  18.859  18.010  1.00  0.00     0.241 C 
HETATM   29  O5  UNL     1      10.152  19.750  17.906  1.00  0.00    -0.271 OA
HETATM   30  N7  UNL     1      10.911  17.702  17.263  1.00  0.00    -0.350 N 
ATOM     31  H7  UNL     1      10.832  17.844  16.257  1.00  0.00     0.163 HD
HETATM   32  C35 UNL     1      10.607  15.712  14.564  1.00  0.00     0.236 C 
HETATM   33  O6  UNL     1       9.560  16.320  14.280  1.00  0.00    -0.272 OA
ENDROOT
BRANCH  22  34
HETATM   34  C24 UNL     1      15.901  21.493  18.949  1.00  0.00     0.035 C 
BRANCH  34  35
HETATM   35  C25 UNL     1      16.847  22.357  18.190  1.00  0.00     0.004 C 
BRANCH  35  36
HETATM   36  C26 UNL     1      17.035  23.713  18.855  1.00  0.00     0.027 C 
BRANCH  36  37
HETATM   37  C27 UNL     1      16.354  24.757  17.959  1.00  0.00     0.229 C 
BRANCH  37  38
HETATM   38  N5  UNL     1      14.956  24.771  18.268  1.00  0.00    -0.079 N 
ATOM     39  H53 UNL     1      14.628  25.691  18.559  1.00  0.00     0.274 HD
ATOM     40  H52 UNL     1      14.370  24.670  17.439  1.00  0.00     0.274 HD
ATOM     41  H51 UNL     1      14.774  24.050  18.967  1.00  0.00     0.274 HD
ENDBRANCH  37  38
ENDBRANCH  36  37
ENDBRANCH  35  36
ENDBRANCH  34  35
ENDBRANCH  22  34
BRANCH  17  42
HETATM   42  C18 UNL     1      12.261  21.612  15.531  1.00  0.00     0.012 C 
BRANCH  42  43
HETATM   43  C19 UNL     1      10.864  21.671  15.153  1.00  0.00     0.002 C 
HETATM   44  C20 UNL     1      10.181  20.356  14.893  1.00  0.00     0.013 C 
HETATM   45  C21 UNL     1      10.493  22.704  14.107  1.00  0.00     0.013 C 
ENDBRANCH  42  43
ENDBRANCH  17  42
BRANCH  27  46
HETATM   46  C30 UNL     1      12.023  18.728  20.324  1.00  0.00     0.038 C 
BRANCH  46  47
HETATM   47  C31 UNL     1      13.310  18.204  20.899  1.00  0.00    -0.020 C 
HETATM   48  C32 UNL     1      13.192  16.883  21.601  1.00  0.00     0.009 C 
HETATM   49  C33 UNL     1      13.991  19.235  21.785  1.00  0.00     0.009 C 
ENDBRANCH  46  47
ENDBRANCH  27  46
BRANCH  12  50
HETATM   50  C12 UNL     1      14.439  17.320  12.228  1.00  0.00     0.038 C 
BRANCH  50  51
HETATM   51  C13 UNL     1      13.938  15.970  11.857  1.00  0.00    -0.020 C 
HETATM   52  C14 UNL     1      13.748  15.822  10.364  1.00  0.00     0.009 C 
HETATM   53  C15 UNL     1      15.022  14.949  12.233  1.00  0.00     0.009 C 
ENDBRANCH  50  51
ENDBRANCH  12  50
BRANCH   1  54
HETATM   54  C3  UNL     1       9.404  15.926  17.892  1.00  0.00     0.056 C 
BRANCH  54  55
HETATM   55  C2  UNL     1       9.272  14.487  18.321  1.00  0.00    -0.035 C 
HETATM   56  C1  UNL     1       8.333  13.727  17.803  1.00  0.00     0.007 C 
ENDBRANCH  54  55
ENDBRANCH   1  54
TORSDOF 13
ENDMDL
MODEL 4
REMARK VINA RESULT: -5.320218015     12.681     17.783
REMARK  13 active torsions:
REMARK  status: ('A' for Active; 'I' for Inactive)
REMARK    1  A    between atoms: C2_2  and  C3_3 
REMARK    2  A    between atoms: C3_3  and  C4_4 
REMARK    3  A    between atoms: C11_15  and  C12_16 
REMARK    4  A    between atoms: C12_16  and  C13_17 
REMARK    5  A    between atoms: C17_24  and  C18_25 
REMARK    6  A    between atoms: C18_25  and  C19_26 
REMARK    7  A    between atoms: C23_33  and  C24_34 
REMARK    8  A    between atoms: C24_34  and  C25_35 
REMARK    9  A    between atoms: C25_35  and  C26_36 
REMARK   10  A    between atoms: C26_36  and  C27_37 
REMARK   11  A    between atoms: C27_37  and  N5_38 
REMARK   12  A    between atoms: C29_46  and  C30_47 
REMARK   13  A    between atoms: C30_47  and  C31_48 
ROOT
HETATM    1  C4  UNL     1      24.528  26.609  17.470  1.00  0.00     0.126 C 
HETATM    2  C5  UNL     1      25.586  26.733  16.438  1.00  0.00     0.092 C 
HETATM    3  N1  UNL     1      26.179  27.963  16.118  1.00  0.00    -0.329 N 
HETATM    4  C6  UNL     1      26.518  28.131  14.648  1.00  0.00     0.131 C 
HETATM    5  C7  UNL     1      27.961  28.555  14.556  1.00  0.00     0.022 C 
HETATM    6  C8  UNL     1      28.435  29.535  15.560  1.00  0.00     0.025 C 
HETATM    7  C9  UNL     1      28.127  29.060  16.954  1.00  0.00     0.170 C 
HETATM    8  C10 UNL     1      28.633  29.886  18.036  1.00  0.00     0.231 C 
HETATM    9  O1  UNL     1      28.313  31.124  18.026  1.00  0.00    -0.273 OA
HETATM   10  N2  UNL     1      29.443  29.379  19.067  1.00  0.00    -0.347 N 
ATOM     11  H2  UNL     1      29.788  30.035  19.768  1.00  0.00     0.163 HD
HETATM   12  C11 UNL     1      29.828  27.966  19.201  1.00  0.00     0.177 C 
HETATM   13  C16 UNL     1      30.296  27.736  20.582  1.00  0.00     0.245 C 
HETATM   14  O2  UNL     1      31.557  27.835  20.783  1.00  0.00    -0.271 OA
HETATM   15  N3  UNL     1      29.513  27.420  21.716  1.00  0.00    -0.321 N 
ATOM     16  H3  UNL     1      29.721  27.927  22.577  1.00  0.00     0.169 HD
HETATM   17  C17 UNL     1      28.462  26.464  21.772  1.00  0.00     0.099 C 
HETATM   18  C22 UNL     1      28.984  25.052  21.793  1.00  0.00     0.268 C 
HETATM   19  O3  UNL     1      30.184  24.957  21.335  1.00  0.00    -0.266 OA
HETATM   20  N4  UNL     1      28.368  23.904  22.222  1.00  0.00    -0.342 N 
ATOM     21  H4  UNL     1      28.852  23.443  22.992  1.00  0.00     0.163 HD
HETATM   22  C23 UNL     1      27.165  23.221  21.797  1.00  0.00     0.177 C 
HETATM   23  C28 UNL     1      26.937  23.234  20.340  1.00  0.00     0.241 C 
HETATM   24  O4  UNL     1      27.653  22.395  19.668  1.00  0.00    -0.271 OA
HETATM   25  N6  UNL     1      26.034  24.063  19.664  1.00  0.00    -0.346 N 
ATOM     26  H6  UNL     1      26.297  24.366  18.725  1.00  0.00     0.163 HD
HETATM   27  C29 UNL     1      24.766  24.530  20.169  1.00  0.00     0.177 C 
HETATM   28  C34 UNL     1      24.602  26.012  19.957  1.00  0.00     0.241 C 
HETATM   29  O5  UNL     1      24.069  26.675  20.929  1.00  0.00    -0.271 OA
HETATM   30  N7  UNL     1      24.960  26.747  18.836  1.00  0.00    -0.350 N 
ATOM     31  H7  UNL     1      25.629  27.498  19.006  1.00  0.00     0.163 HD
HETATM   32  C35 UNL     1      26.578  29.011  16.939  1.00  0.00     0.236 C 
HETATM   33  O6  UNL     1      26.077  29.904  17.643  1.00  0.00    -0.272 OA
ENDROOT
BRANCH  22  34
HETATM   34  C24 UNL     1      27.429  21.731  22.131  1.00  0.00     0.035 C 
BRANCH  34  35
HETATM   35  C25 UNL     1      28.739  21.510  22.804  1.00  0.00     0.004 C 
BRANCH  35  36
HETATM   36  C26 UNL     1      29.637  20.578  22.003  1.00  0.00     0.027 C 
BRANCH  36  37
HETATM   37  C27 UNL     1      30.862  21.392  21.566  1.00  0.00     0.229 C 
BRANCH  37  38
HETATM   38  N5  UNL     1      30.574  21.996  20.301  1.00  0.00    -0.079 N 
ATOM     39  H53 UNL     1      29.697  21.665  19.899  1.00  0.00     0.274 HD
ATOM     40  H52 UNL     1      30.325  22.981  20.384  1.00  0.00     0.274 HD
ATOM     41  H51 UNL     1      31.372  21.843  19.683  1.00  0.00     0.274 HD
ENDBRANCH  37  38
ENDBRANCH  36  37
ENDBRANCH  35  36
ENDBRANCH  34  35
ENDBRANCH  22  34
BRANCH  17  42
HETATM   42  C18 UNL     1      27.326  26.698  22.645  1.00  0.00     0.012 C 
BRANCH  42  43
HETATM   43  C19 UNL     1      27.245  26.408  24.062  1.00  0.00     0.002 C 
HETATM   44  C20 UNL     1      25.922  25.903  24.571  1.00  0.00     0.013 C 
HETATM   45  C21 UNL     1      27.839  27.444  24.997  1.00  0.00     0.013 C 
ENDBRANCH  42  43
ENDBRANCH  17  42
BRANCH  27  46
HETATM   46  C30 UNL     1      23.605  23.734  19.694  1.00  0.00     0.038 C 
BRANCH  46  47
HETATM   47  C31 UNL     1      22.345  24.177  20.383  1.00  0.00    -0.020 C 
HETATM   48  C32 UNL     1      21.682  23.122  21.220  1.00  0.00     0.009 C 
HETATM   49  C33 UNL     1      21.358  24.798  19.407  1.00  0.00     0.009 C 
ENDBRANCH  46  47
ENDBRANCH  27  46
BRANCH  12  50
HETATM   50  C12 UNL     1      31.000  27.805  18.246  1.00  0.00     0.038 C 
BRANCH  50  51
HETATM   51  C13 UNL     1      30.975  26.556  17.441  1.00  0.00    -0.020 C 
HETATM   52  C14 UNL     1      29.647  25.841  17.536  1.00  0.00     0.009 C 
HETATM   53  C15 UNL     1      31.123  26.948  15.964  1.00  0.00     0.009 C 
ENDBRANCH  50  51
ENDBRANCH  12  50
BRANCH   1  54
HETATM   54  C3  UNL     1      23.373  27.515  17.189  1.00  0.00     0.056 C 
BRANCH  54  55
HETATM   55  C2  UNL     1      22.587  27.080  15.978  1.00  0.00    -0.035 C 
HETATM   56  C1  UNL     1      21.333  27.447  15.840  1.00  0.00     0.007 C 
ENDBRANCH  54  55
ENDBRANCH   1  54
TORSDOF 13
ENDMDL
MODEL 5
REMARK VINA RESULT: -5.256988883     12.209     16.787
REMARK  13 active torsions:
REMARK  status: ('A' for Active; 'I' for Inactive)
REMARK    1  A    between atoms: C2_2  and  C3_3 
REMARK    2  A    between atoms: C3_3  and  C4_4 
REMARK    3  A    between atoms: C11_15  and  C12_16 
REMARK    4  A    between atoms: C12_16  and  C13_17 
REMARK    5  A    between atoms: C17_24  and  C18_25 
REMARK    6  A    between atoms: C18_25  and  C19_26 
REMARK    7  A    between atoms: C23_33  and  C24_34 
REMARK    8  A    between atoms: C24_34  and  C25_35 
REMARK    9  A    between atoms: C25_35  and  C26_36 
REMARK   10  A    between atoms: C26_36  and  C27_37 
REMARK   11  A    between atoms: C27_37  and  N5_38 
REMARK   12  A    between atoms: C29_46  and  C30_47 
REMARK   13  A    between atoms: C30_47  and  C31_48 
ROOT
HETATM    1  C4  UNL     1      28.902  26.356  23.815  1.00  0.00     0.126 C 
HETATM    2  C5  UNL     1      29.224  27.622  23.113  1.00  0.00     0.092 C 
HETATM    3  N1  UNL     1      30.314  27.734  22.236  1.00  0.00    -0.329 N 
HETATM    4  C6  UNL     1      31.019  29.078  22.282  1.00  0.00     0.131 C 
HETATM    5  C7  UNL     1      31.119  29.591  20.869  1.00  0.00     0.022 C 
HETATM    6  C8  UNL     1      31.446  28.599  19.820  1.00  0.00     0.025 C 
HETATM    7  C9  UNL     1      30.498  27.431  19.876  1.00  0.00     0.170 C 
HETATM    8  C10 UNL     1      30.650  26.434  18.831  1.00  0.00     0.231 C 
HETATM    9  O1  UNL     1      31.810  25.917  18.680  1.00  0.00    -0.273 OA
HETATM   10  N2  UNL     1      29.589  26.033  18.001  1.00  0.00    -0.347 N 
ATOM     11  H2  UNL     1      29.790  25.354  17.266  1.00  0.00     0.163 HD
HETATM   12  C11 UNL     1      28.210  26.526  18.122  1.00  0.00     0.177 C 
HETATM   13  C16 UNL     1      27.315  25.598  17.402  1.00  0.00     0.245 C 
HETATM   14  O2  UNL     1      27.044  25.892  16.185  1.00  0.00    -0.271 OA
HETATM   15  N3  UNL     1      26.720  24.415  17.898  1.00  0.00    -0.321 N 
ATOM     16  H3  UNL     1      26.751  23.594  17.293  1.00  0.00     0.169 HD
HETATM   17  C17 UNL     1      26.083  24.260  19.160  1.00  0.00     0.099 C 
HETATM   18  C22 UNL     1      24.723  24.905  19.188  1.00  0.00     0.268 C 
HETATM   19  O3  UNL     1      24.577  25.804  18.278  1.00  0.00    -0.266 OA
HETATM   20  N4  UNL     1      23.665  24.663  20.026  1.00  0.00    -0.342 N 
ATOM     21  H4  UNL     1      22.825  24.341  19.544  1.00  0.00     0.163 HD
HETATM   22  C23 UNL     1      23.506  24.773  21.461  1.00  0.00     0.177 C 
HETATM   23  C28 UNL     1      24.191  25.931  22.065  1.00  0.00     0.241 C 
HETATM   24  O4  UNL     1      23.589  27.063  21.909  1.00  0.00    -0.271 OA
HETATM   25  N6  UNL     1      25.403  25.888  22.765  1.00  0.00    -0.346 N 
ATOM     26  H6  UNL     1      26.014  26.701  22.683  1.00  0.00     0.163 HD
HETATM   27  C29 UNL     1      25.869  24.801  23.591  1.00  0.00     0.177 C 
HETATM   28  C34 UNL     1      27.296  24.439  23.270  1.00  0.00     0.241 C 
HETATM   29  O5  UNL     1      27.575  23.179  23.241  1.00  0.00    -0.271 OA
HETATM   30  N7  UNL     1      28.344  25.307  23.001  1.00  0.00    -0.350 N 
ATOM     31  H7  UNL     1      28.786  25.184  22.090  1.00  0.00     0.163 HD
HETATM   32  C35 UNL     1      30.795  26.848  21.281  1.00  0.00     0.236 C 
HETATM   33  O6  UNL     1      31.385  25.756  21.216  1.00  0.00    -0.272 OA
ENDROOT
BRANCH  22  34
HETATM   34  C24 UNL     1      21.999  25.072  21.661  1.00  0.00     0.035 C 
BRANCH  34  35
HETATM   35  C25 UNL     1      21.119  23.977  21.165  1.00  0.00     0.004 C 
BRANCH  35  36
HETATM   36  C26 UNL     1      19.894  24.518  20.441  1.00  0.00     0.027 C 
BRANCH  36  37
HETATM   37  C27 UNL     1      18.721  23.587  20.774  1.00  0.00     0.229 C 
BRANCH  37  38
HETATM   38  N5  UNL     1      17.555  24.390  20.983  1.00  0.00    -0.079 N 
ATOM     39  H53 UNL     1      16.852  23.920  21.554  1.00  0.00     0.274 HD
ATOM     40  H52 UNL     1      17.730  25.181  21.602  1.00  0.00     0.274 HD
ATOM     41  H51 UNL     1      17.195  24.676  20.072  1.00  0.00     0.274 HD
ENDBRANCH  37  38
ENDBRANCH  36  37
ENDBRANCH  35  36
ENDBRANCH  34  35
ENDBRANCH  22  34
BRANCH  17  42
HETATM   42  C18 UNL     1      26.159  22.984  19.849  1.00  0.00     0.012 C 
BRANCH  42  43
HETATM   43  C19 UNL     1      26.766  21.766  19.355  1.00  0.00     0.002 C 
HETATM   44  C20 UNL     1      25.830  20.713  18.828  1.00  0.00     0.013 C 
HETATM   45  C21 UNL     1      27.854  21.157  20.219  1.00  0.00     0.013 C 
ENDBRANCH  42  43
ENDBRANCH  17  42
BRANCH  27  46
HETATM   46  C30 UNL     1      25.624  25.007  25.042  1.00  0.00     0.038 C 
BRANCH  46  47
HETATM   47  C31 UNL     1      25.409  26.466  25.337  1.00  0.00    -0.020 C 
HETATM   48  C32 UNL     1      26.448  27.087  26.224  1.00  0.00     0.009 C 
HETATM   49  C33 UNL     1      24.008  26.732  25.868  1.00  0.00     0.009 C 
ENDBRANCH  46  47
ENDBRANCH  27  46
BRANCH  12  50
HETATM   50  C12 UNL     1      28.225  27.862  17.397  1.00  0.00     0.038 C 
BRANCH  50  51
HETATM   51  C13 UNL     1      27.455  28.941  18.071  1.00  0.00    -0.020 C 
HETATM   52  C14 UNL     1      28.291  30.179  18.303  1.00  0.00     0.009 C 
HETATM   53  C15 UNL     1      26.332  29.379  17.121  1.00  0.00     0.009 C 
ENDBRANCH  50  51
ENDBRANCH  12  50
BRANCH   1  54
HETATM   54  C3  UNL     1      30.065  25.848  24.603  1.00  0.00     0.056 C 
BRANCH  54  55
HETATM   55  C2  UNL     1      29.696  25.537  26.032  1.00  0.00    -0.035 C 
HETATM   56  C1  UNL     1      29.323  24.323  26.367  1.00  0.00     0.007 C 
ENDBRANCH  54  55
ENDBRANCH   1  54
TORSDOF 13
ENDMDL
