MODEL 1
REMARK VINA RESULT: -6.661900649      0.000      0.000
REMARK  13 active torsions:
REMARK  status: ('A' for Active; 'I' for Inactive)
REMARK    1  A    between atoms: C2_2  and  C3_3 
REMARK    2  A    between atoms: C3_3  and  C4_4 
REMARK    3  A    between atoms: C4_4  and  N1_5 
REMARK       I    between atoms: N1_5  and  C5_7 
REMARK       I    between atoms: C5_7  and  N2_9 
REMARK    4  A    between atoms: N2_9  and  C6_11 
REMARK    5  A    between atoms: C6_11  and  C8_13 
REMARK    6  A    between atoms: C9_14  and  O2_15 
REMARK    7  A    between atoms: C10_19  and  C11_20 
REMARK    8  A    between atoms: C15_27  and  C16_28 
REMARK    9  A    between atoms: C16_28  and  C17_29 
REMARK   10  A    between atoms: C21_36  and  C22_37 
REMARK   11  A    between atoms: C22_37  and  C23_38 
REMARK   12  A    between atoms: C27_45  and  C28_46 
REMARK   13  A    between atoms: C28_46  and  C29_47 
ROOT
HETATM    1  C8  UNL     1      22.803  25.296  19.518  1.00  0.00     0.175 C 
HETATM    2  C9  UNL     1      23.455  25.353  20.826  1.00  0.00     0.131 C 
HETATM    3  N3  UNL     1      24.013  24.398  21.648  1.00  0.00    -0.338 N 
ATOM      4  H3  UNL     1      23.476  24.272  22.506  1.00  0.00     0.167 HD
HETATM    5  C10 UNL     1      25.151  23.543  21.601  1.00  0.00     0.082 C 
HETATM    6  C14 UNL     1      26.265  23.951  22.508  1.00  0.00     0.265 C 
HETATM    7  O3  UNL     1      26.131  23.610  23.748  1.00  0.00    -0.266 OA
HETATM    8  N4  UNL     1      27.425  24.644  22.214  1.00  0.00    -0.343 N 
ATOM      9  H4  UNL     1      28.295  24.148  22.409  1.00  0.00     0.163 HD
HETATM   10  C15 UNL     1      27.577  25.998  21.657  1.00  0.00     0.177 C 
HETATM   11  C20 UNL     1      28.716  26.023  20.725  1.00  0.00     0.241 C 
HETATM   12  O4  UNL     1      29.551  25.044  20.866  1.00  0.00    -0.271 OA
HETATM   13  N5  UNL     1      29.025  26.935  19.724  1.00  0.00    -0.346 N 
ATOM     14  H5  UNL     1      29.978  27.297  19.757  1.00  0.00     0.163 HD
HETATM   15  C21 UNL     1      28.219  27.458  18.644  1.00  0.00     0.177 C 
HETATM   16  C26 UNL     1      27.398  26.440  18.029  1.00  0.00     0.241 C 
HETATM   17  O5  UNL     1      28.047  25.371  17.678  1.00  0.00    -0.271 OA
HETATM   18  N6  UNL     1      26.035  26.357  17.726  1.00  0.00    -0.346 N 
ATOM     19  H6  UNL     1      25.616  25.432  17.821  1.00  0.00     0.163 HD
HETATM   20  C27 UNL     1      25.140  27.410  17.295  1.00  0.00     0.177 C 
HETATM   21  C32 UNL     1      23.791  26.937  16.898  1.00  0.00     0.248 C 
HETATM   22  O6  UNL     1      23.668  26.334  15.764  1.00  0.00    -0.271 OA
HETATM   23  N7  UNL     1      22.579  27.069  17.628  1.00  0.00    -0.290 N 
HETATM   24  C33 UNL     1      21.397  27.689  16.966  1.00  0.00     0.162 C 
HETATM   25  C34 UNL     1      22.423  26.649  18.970  1.00  0.00     0.240 C 
HETATM   26  O7  UNL     1      21.914  27.488  19.797  1.00  0.00    -0.272 OA
ENDROOT
BRANCH   1  27
HETATM   27  C6  UNL     1      21.521  24.489  19.516  1.00  0.00     0.103 C 
HETATM   28  C7  UNL     1      21.722  23.189  20.240  1.00  0.00     0.033 C 
BRANCH  27  29
HETATM   29  N2  UNL     1      20.907  24.335  18.236  1.00  0.00    -0.338 N 
HETATM   30  C5  UNL     1      19.500  24.344  18.109  1.00  0.00     0.316 C 
HETATM   31  N1  UNL     1      18.910  24.189  16.825  1.00  0.00    -0.343 N 
HETATM   32  O1  UNL     1      18.800  24.487  19.135  1.00  0.00    -0.247 OA
ATOM     33  H1  UNL     1      19.485  24.073  15.990  1.00  0.00     0.164 HD
ATOM     34  H2  UNL     1      21.489  24.219  17.407  1.00  0.00     0.164 HD
BRANCH  31  35
HETATM   35  C4  UNL     1      17.462  24.203  16.745  1.00  0.00     0.124 C 
BRANCH  35  36
HETATM   36  C3  UNL     1      17.050  24.012  15.314  1.00  0.00     0.019 C 
BRANCH  36  37
HETATM   37  C2  UNL     1      17.106  25.398  14.668  1.00  0.00    -0.003 C 
HETATM   38  C1  UNL     1      17.794  25.237  13.329  1.00  0.00     0.005 C 
ENDBRANCH  36  37
ENDBRANCH  35  36
ENDBRANCH  31  35
ENDBRANCH  27  29
ENDBRANCH   1  27
BRANCH   2  39
HETATM   39  O2  UNL     1      23.512  26.566  21.296  1.00  0.00    -0.349 OA
ATOM     40  H2  UNL     1      24.123  26.644  22.019  1.00  0.00     0.219 HD
ENDBRANCH   2  39
BRANCH   5  41
HETATM   41  C11 UNL     1      25.644  23.097  20.250  1.00  0.00     0.033 C 
HETATM   42  C12 UNL     1      27.002  22.373  20.420  1.00  0.00     0.016 C 
HETATM   43  C13 UNL     1      24.737  22.028  19.670  1.00  0.00     0.016 C 
ENDBRANCH   5  41
BRANCH  20  44
HETATM   44  C28 UNL     1      25.745  27.901  15.962  1.00  0.00     0.038 C 
BRANCH  44  45
HETATM   45  C29 UNL     1      26.418  29.225  16.092  1.00  0.00    -0.020 C 
HETATM   46  C30 UNL     1      27.034  29.628  14.771  1.00  0.00     0.009 C 
HETATM   47  C31 UNL     1      25.329  30.240  16.426  1.00  0.00     0.009 C 
ENDBRANCH  44  45
ENDBRANCH  20  44
BRANCH  10  48
HETATM   48  C16 UNL     1      27.554  27.028  22.720  1.00  0.00     0.038 C 
BRANCH  48  49
HETATM   49  C17 UNL     1      28.713  27.895  22.939  1.00  0.00    -0.020 C 
HETATM   50  C18 UNL     1      28.399  29.364  22.953  1.00  0.00     0.009 C 
HETATM   51  C19 UNL     1      29.359  27.577  24.301  1.00  0.00     0.009 C 
ENDBRANCH  48  49
ENDBRANCH  10  48
BRANCH  15  52
HETATM   52  C22 UNL     1      27.559  28.690  19.171  1.00  0.00     0.038 C 
BRANCH  52  53
HETATM   53  C23 UNL     1      28.686  29.753  19.262  1.00  0.00    -0.020 C 
HETATM   54  C24 UNL     1      28.115  31.105  19.587  1.00  0.00     0.009 C 
HETATM   55  C25 UNL     1      29.390  29.875  17.926  1.00  0.00     0.009 C 
ENDBRANCH  52  53
ENDBRANCH  15  52
TORSDOF 13
ENDMDL
MODEL 2
REMARK VINA RESULT: -6.264331454      1.716      2.104
REMARK  13 active torsions:
REMARK  status: ('A' for Active; 'I' for Inactive)
REMARK    1  A    between atoms: C2_2  and  C3_3 
REMARK    2  A    between atoms: C3_3  and  C4_4 
REMARK    3  A    between atoms: C4_4  and  N1_5 
REMARK       I    between atoms: N1_5  and  C5_7 
REMARK       I    between atoms: C5_7  and  N2_9 
REMARK    4  A    between atoms: N2_9  and  C6_11 
REMARK    5  A    between atoms: C6_11  and  C8_13 
REMARK    6  A    between atoms: C9_14  and  O2_15 
REMARK    7  A    between atoms: C10_19  and  C11_20 
REMARK    8  A    between atoms: C15_27  and  C16_28 
REMARK    9  A    between atoms: C16_28  and  C17_29 
REMARK   10  A    between atoms: C21_36  and  C22_37 
REMARK   11  A    between atoms: C22_37  and  C23_38 
REMARK   12  A    between atoms: C27_45  and  C28_46 
REMARK   13  A    between atoms: C28_46  and  C29_47 
ROOT
HETATM    1  C8  UNL     1      24.256  24.988  19.906  1.00  0.00     0.175 C 
HETATM    2  C9  UNL     1      25.074  25.049  21.117  1.00  0.00     0.131 C 
HETATM    3  N3  UNL     1      25.804  24.111  21.815  1.00  0.00    -0.338 N 
ATOM      4  H3  UNL     1      25.399  23.914  22.730  1.00  0.00     0.167 HD
HETATM    5  C10 UNL     1      26.984  23.347  21.579  1.00  0.00     0.082 C 
HETATM    6  C14 UNL     1      28.178  23.808  22.348  1.00  0.00     0.265 C 
HETATM    7  O3  UNL     1      28.237  23.413  23.579  1.00  0.00    -0.266 OA
HETATM    8  N4  UNL     1      29.235  24.598  21.935  1.00  0.00    -0.343 N 
ATOM      9  H4  UNL     1      30.157  24.163  21.991  1.00  0.00     0.163 HD
HETATM   10  C15 UNL     1      29.214  25.978  21.425  1.00  0.00     0.177 C 
HETATM   11  C20 UNL     1      30.212  26.123  20.353  1.00  0.00     0.241 C 
HETATM   12  O4  UNL     1      31.125  25.207  20.338  1.00  0.00    -0.271 OA
HETATM   13  N5  UNL     1      30.316  27.092  19.362  1.00  0.00    -0.346 N 
ATOM     14  H5  UNL     1      31.237  27.524  19.286  1.00  0.00     0.163 HD
HETATM   15  C21 UNL     1      29.337  27.589  18.423  1.00  0.00     0.177 C 
HETATM   16  C26 UNL     1      28.515  26.534  17.877  1.00  0.00     0.241 C 
HETATM   17  O5  UNL     1      29.185  25.530  17.394  1.00  0.00    -0.271 OA
HETATM   18  N6  UNL     1      27.133  26.357  17.753  1.00  0.00    -0.346 N 
ATOM     19  H6  UNL     1      26.797  25.400  17.860  1.00  0.00     0.163 HD
HETATM   20  C27 UNL     1      26.115  27.353  17.493  1.00  0.00     0.177 C 
HETATM   21  C32 UNL     1      24.761  26.792  17.256  1.00  0.00     0.248 C 
HETATM   22  O6  UNL     1      24.530  26.222  16.122  1.00  0.00    -0.271 OA
HETATM   23  N7  UNL     1      23.654  26.805  18.145  1.00  0.00    -0.290 N 
HETATM   24  C33 UNL     1      22.351  27.355  17.674  1.00  0.00     0.162 C 
HETATM   25  C34 UNL     1      23.710  26.326  19.476  1.00  0.00     0.240 C 
HETATM   26  O7  UNL     1      23.260  27.094  20.400  1.00  0.00    -0.272 OA
ENDROOT
BRANCH   1  27
HETATM   27  C6  UNL     1      23.047  24.085  20.037  1.00  0.00     0.103 C 
HETATM   28  C7  UNL     1      23.468  22.644  20.023  1.00  0.00     0.033 C 
BRANCH  27  29
HETATM   29  N2  UNL     1      21.980  24.373  19.133  1.00  0.00    -0.338 N 
HETATM   30  C5  UNL     1      20.640  24.110  19.498  1.00  0.00     0.316 C 
HETATM   31  N1  UNL     1      19.593  24.404  18.582  1.00  0.00    -0.343 N 
HETATM   32  O1  UNL     1      20.403  23.621  20.623  1.00  0.00    -0.247 OA
ATOM     33  H1  UNL     1      19.790  24.803  17.664  1.00  0.00     0.164 HD
ATOM     34  H2  UNL     1      22.186  24.771  18.217  1.00  0.00     0.164 HD
BRANCH  31  35
HETATM   35  C4  UNL     1      18.234  24.116  19.000  1.00  0.00     0.124 C 
BRANCH  35  36
HETATM   36  C3  UNL     1      17.748  22.895  18.275  1.00  0.00     0.019 C 
BRANCH  36  37
HETATM   37  C2  UNL     1      17.682  21.779  19.319  1.00  0.00    -0.003 C 
HETATM   38  C1  UNL     1      16.243  21.691  19.784  1.00  0.00     0.005 C 
ENDBRANCH  36  37
ENDBRANCH  35  36
ENDBRANCH  31  35
ENDBRANCH  27  29
ENDBRANCH   1  27
BRANCH   2  39
HETATM   39  O2  UNL     1      25.107  26.245  21.631  1.00  0.00    -0.349 OA
ATOM     40  H2  UNL     1      25.049  26.232  22.579  1.00  0.00     0.219 HD
ENDBRANCH   2  39
BRANCH   5  41
HETATM   41  C11 UNL     1      27.320  22.989  20.155  1.00  0.00     0.033 C 
HETATM   42  C12 UNL     1      28.768  22.443  20.100  1.00  0.00     0.016 C 
HETATM   43  C13 UNL     1      26.477  21.821  19.679  1.00  0.00     0.016 C 
ENDBRANCH   5  41
BRANCH  20  44
HETATM   44  C28 UNL     1      26.498  27.935  16.114  1.00  0.00     0.038 C 
BRANCH  44  45
HETATM   45  C29 UNL     1      26.955  29.352  16.200  1.00  0.00    -0.020 C 
HETATM   46  C30 UNL     1      27.727  29.725  14.953  1.00  0.00     0.009 C 
HETATM   47  C31 UNL     1      25.698  30.217  16.244  1.00  0.00     0.009 C 
ENDBRANCH  44  45
ENDBRANCH  20  44
BRANCH  10  48
HETATM   48  C16 UNL     1      29.261  26.965  22.527  1.00  0.00     0.038 C 
BRANCH  48  49
HETATM   49  C17 UNL     1      28.028  27.566  23.037  1.00  0.00    -0.020 C 
HETATM   50  C18 UNL     1      27.469  26.899  24.263  1.00  0.00     0.009 C 
HETATM   51  C19 UNL     1      28.278  29.037  23.421  1.00  0.00     0.009 C 
ENDBRANCH  48  49
ENDBRANCH  10  48
BRANCH  15  52
HETATM   52  C22 UNL     1      28.668  28.748  19.088  1.00  0.00     0.038 C 
BRANCH  52  53
HETATM   53  C23 UNL     1      29.786  29.803  19.297  1.00  0.00    -0.020 C 
HETATM   54  C24 UNL     1      29.383  30.801  20.346  1.00  0.00     0.009 C 
HETATM   55  C25 UNL     1      30.015  30.573  18.012  1.00  0.00     0.009 C 
ENDBRANCH  52  53
ENDBRANCH  15  52
TORSDOF 13
ENDMDL
MODEL 3
REMARK VINA RESULT: -6.208852085      2.043      2.447
REMARK  13 active torsions:
REMARK  status: ('A' for Active; 'I' for Inactive)
REMARK    1  A    between atoms: C2_2  and  C3_3 
REMARK    2  A    between atoms: C3_3  and  C4_4 
REMARK    3  A    between atoms: C4_4  and  N1_5 
REMARK       I    between atoms: N1_5  and  C5_7 
REMARK       I    between atoms: C5_7  and  N2_9 
REMARK    4  A    between atoms: N2_9  and  C6_11 
REMARK    5  A    between atoms: C6_11  and  C8_13 
REMARK    6  A    between atoms: C9_14  and  O2_15 
REMARK    7  A    between atoms: C10_19  and  C11_20 
REMARK    8  A    between atoms: C15_27  and  C16_28 
REMARK    9  A    between atoms: C16_28  and  C17_29 
REMARK   10  A    between atoms: C21_36  and  C22_37 
REMARK   11  A    between atoms: C22_37  and  C23_38 
REMARK   12  A    between atoms: C27_45  and  C28_46 
REMARK   13  A    between atoms: C28_46  and  C29_47 
ROOT
HETATM    1  C8  UNL     1      24.348  25.108  20.560  1.00  0.00     0.175 C 
HETATM    2  C9  UNL     1      24.927  25.377  21.876  1.00  0.00     0.131 C 
HETATM    3  N3  UNL     1      25.632  24.606  22.776  1.00  0.00    -0.338 N 
ATOM      4  H3  UNL     1      25.099  24.429  23.628  1.00  0.00     0.167 HD
HETATM    5  C10 UNL     1      26.917  23.993  22.815  1.00  0.00     0.082 C 
HETATM    6  C14 UNL     1      27.894  24.672  23.718  1.00  0.00     0.265 C 
HETATM    7  O3  UNL     1      27.784  24.389  24.975  1.00  0.00    -0.266 OA
HETATM    8  N4  UNL     1      28.905  25.563  23.405  1.00  0.00    -0.343 N 
ATOM      9  H4  UNL     1      29.847  25.264  23.655  1.00  0.00     0.163 HD
HETATM   10  C15 UNL     1      28.807  26.882  22.760  1.00  0.00     0.177 C 
HETATM   11  C20 UNL     1      29.952  27.075  21.856  1.00  0.00     0.241 C 
HETATM   12  O4  UNL     1      30.958  26.293  22.084  1.00  0.00    -0.271 OA
HETATM   13  N5  UNL     1      30.111  27.966  20.802  1.00  0.00    -0.346 N 
ATOM     14  H5  UNL     1      30.972  28.512  20.833  1.00  0.00     0.163 HD
HETATM   15  C21 UNL     1      29.259  28.249  19.670  1.00  0.00     0.177 C 
HETATM   16  C26 UNL     1      28.678  27.051  19.107  1.00  0.00     0.241 C 
HETATM   17  O5  UNL     1      29.538  26.113  18.846  1.00  0.00    -0.271 OA
HETATM   18  N6  UNL     1      27.371  26.679  18.778  1.00  0.00    -0.346 N 
ATOM     19  H6  UNL     1      27.140  25.697  18.926  1.00  0.00     0.163 HD
HETATM   20  C27 UNL     1      26.302  27.503  18.254  1.00  0.00     0.177 C 
HETATM   21  C32 UNL     1      25.088  26.746  17.859  1.00  0.00     0.248 C 
HETATM   22  O6  UNL     1      25.129  26.061  16.766  1.00  0.00    -0.271 OA
HETATM   23  N7  UNL     1      23.849  26.679  18.548  1.00  0.00    -0.290 N 
HETATM   24  C33 UNL     1      22.593  27.008  17.818  1.00  0.00     0.162 C 
HETATM   25  C34 UNL     1      23.728  26.321  19.912  1.00  0.00     0.240 C 
HETATM   26  O7  UNL     1      23.034  27.092  20.667  1.00  0.00    -0.272 OA
ENDROOT
BRANCH   1  27
HETATM   27  C6  UNL     1      23.252  24.063  20.583  1.00  0.00     0.103 C 
HETATM   28  C7  UNL     1      23.701  22.820  19.870  1.00  0.00     0.033 C 
BRANCH  27  29
HETATM   29  N2  UNL     1      21.969  24.526  20.162  1.00  0.00    -0.338 N 
HETATM   30  C5  UNL     1      20.794  24.052  20.788  1.00  0.00     0.316 C 
HETATM   31  N1  UNL     1      19.526  24.527  20.352  1.00  0.00    -0.343 N 
HETATM   32  O1  UNL     1      20.895  23.222  21.716  1.00  0.00    -0.247 OA
ATOM     33  H1  UNL     1      19.448  25.205  19.594  1.00  0.00     0.164 HD
ATOM     34  H2  UNL     1      21.900  25.204  19.403  1.00  0.00     0.164 HD
BRANCH  31  35
HETATM   35  C4  UNL     1      18.349  24.011  21.024  1.00  0.00     0.124 C 
BRANCH  35  36
HETATM   36  C3  UNL     1      17.417  23.431  20.000  1.00  0.00     0.019 C 
BRANCH  36  37
HETATM   37  C2  UNL     1      18.003  22.072  19.614  1.00  0.00    -0.003 C 
HETATM   38  C1  UNL     1      17.913  21.960  18.107  1.00  0.00     0.005 C 
ENDBRANCH  36  37
ENDBRANCH  35  36
ENDBRANCH  31  35
ENDBRANCH  27  29
ENDBRANCH   1  27
BRANCH   2  39
HETATM   39  O2  UNL     1      24.726  26.604  22.264  1.00  0.00    -0.349 OA
ATOM     40  H2  UNL     1      23.872  26.929  22.004  1.00  0.00     0.219 HD
ENDBRANCH   2  39
BRANCH   5  41
HETATM   41  C11 UNL     1      27.539  23.571  21.510  1.00  0.00     0.033 C 
HETATM   42  C12 UNL     1      28.997  23.119  21.766  1.00  0.00     0.016 C 
HETATM   43  C13 UNL     1      26.865  22.323  20.970  1.00  0.00     0.016 C 
ENDBRANCH   5  41
BRANCH  20  44
HETATM   44  C28 UNL     1      26.848  28.020  16.905  1.00  0.00     0.038 C 
BRANCH  44  45
HETATM   45  C29 UNL     1      26.072  29.181  16.382  1.00  0.00    -0.020 C 
HETATM   46  C30 UNL     1      26.306  30.396  17.251  1.00  0.00     0.009 C 
HETATM   47  C31 UNL     1      26.625  29.489  14.993  1.00  0.00     0.009 C 
ENDBRANCH  44  45
ENDBRANCH  20  44
BRANCH  10  48
HETATM   48  C16 UNL     1      28.541  27.951  23.749  1.00  0.00     0.038 C 
BRANCH  48  49
HETATM   49  C17 UNL     1      29.313  29.194  23.722  1.00  0.00    -0.020 C 
HETATM   50  C18 UNL     1      28.480  30.445  23.696  1.00  0.00     0.009 C 
HETATM   51  C19 UNL     1      30.199  29.291  24.978  1.00  0.00     0.009 C 
ENDBRANCH  48  49
ENDBRANCH  10  48
BRANCH  15  52
HETATM   52  C22 UNL     1      28.350  29.355  20.095  1.00  0.00     0.038 C 
BRANCH  52  53
HETATM   53  C23 UNL     1      29.180  30.656  19.932  1.00  0.00    -0.020 C 
HETATM   54  C24 UNL     1      28.315  31.867  20.141  1.00  0.00     0.009 C 
HETATM   55  C25 UNL     1      29.735  30.741  18.525  1.00  0.00     0.009 C 
ENDBRANCH  52  53
ENDBRANCH  15  52
TORSDOF 13
ENDMDL
MODEL 4
REMARK VINA RESULT: -6.174194548      1.106      1.431
REMARK  13 active torsions:
REMARK  status: ('A' for Active; 'I' for Inactive)
REMARK    1  A    between atoms: C2_2  and  C3_3 
REMARK    2  A    between atoms: C3_3  and  C4_4 
REMARK    3  A    between atoms: C4_4  and  N1_5 
REMARK       I    between atoms: N1_5  and  C5_7 
REMARK       I    between atoms: C5_7  and  N2_9 
REMARK    4  A    between atoms: N2_9  and  C6_11 
REMARK    5  A    between atoms: C6_11  and  C8_13 
REMARK    6  A    between atoms: C9_14  and  O2_15 
REMARK    7  A    between atoms: C10_19  and  C11_20 
REMARK    8  A    between atoms: C15_27  and  C16_28 
REMARK    9  A    between atoms: C16_28  and  C17_29 
REMARK   10  A    between atoms: C21_36  and  C22_37 
REMARK   11  A    between atoms: C22_37  and  C23_38 
REMARK   12  A    between atoms: C27_45  and  C28_46 
REMARK   13  A    between atoms: C28_46  and  C29_47 
ROOT
HETATM    1  C8  UNL     1      23.431  25.114  19.766  1.00  0.00     0.175 C 
HETATM    2  C9  UNL     1      24.148  25.162  21.039  1.00  0.00     0.131 C 
HETATM    3  N3  UNL     1      24.784  24.207  21.804  1.00  0.00    -0.338 N 
ATOM      4  H3  UNL     1      24.298  24.037  22.685  1.00  0.00     0.167 HD
HETATM    5  C10 UNL     1      25.949  23.398  21.674  1.00  0.00     0.082 C 
HETATM    6  C14 UNL     1      27.092  23.826  22.535  1.00  0.00     0.265 C 
HETATM    7  O3  UNL     1      27.036  23.446  23.770  1.00  0.00    -0.266 OA
HETATM    8  N4  UNL     1      28.209  24.571  22.202  1.00  0.00    -0.343 N 
ATOM      9  H4  UNL     1      29.106  24.104  22.338  1.00  0.00     0.163 HD
HETATM   10  C15 UNL     1      28.281  25.944  21.678  1.00  0.00     0.177 C 
HETATM   11  C20 UNL     1      29.368  26.039  20.690  1.00  0.00     0.241 C 
HETATM   12  O4  UNL     1      30.245  25.090  20.759  1.00  0.00    -0.271 OA
HETATM   13  N5  UNL     1      29.589  26.990  19.701  1.00  0.00    -0.346 N 
ATOM     14  H5  UNL     1      30.529  27.387  19.696  1.00  0.00     0.163 HD
HETATM   15  C21 UNL     1      28.709  27.509  18.679  1.00  0.00     0.177 C 
HETATM   16  C26 UNL     1      27.896  26.477  18.078  1.00  0.00     0.241 C 
HETATM   17  O5  UNL     1      28.565  25.444  17.663  1.00  0.00    -0.271 OA
HETATM   18  N6  UNL     1      26.523  26.349  17.843  1.00  0.00    -0.346 N 
ATOM     19  H6  UNL     1      26.145  25.407  17.932  1.00  0.00     0.163 HD
HETATM   20  C27 UNL     1      25.568  27.378  17.489  1.00  0.00     0.177 C 
HETATM   21  C32 UNL     1      24.218  26.863  17.148  1.00  0.00     0.248 C 
HETATM   22  O6  UNL     1      24.059  26.287  16.005  1.00  0.00    -0.271 OA
HETATM   23  N7  UNL     1      23.043  26.928  17.942  1.00  0.00    -0.290 N 
HETATM   24  C33 UNL     1      21.805  27.519  17.360  1.00  0.00     0.162 C 
HETATM   25  C34 UNL     1      22.972  26.466  19.278  1.00  0.00     0.240 C 
HETATM   26  O7  UNL     1      22.477  27.262  20.154  1.00  0.00    -0.272 OA
ENDROOT
BRANCH   1  27
HETATM   27  C6  UNL     1      22.182  24.258  19.806  1.00  0.00     0.103 C 
HETATM   28  C7  UNL     1      22.535  22.835  20.132  1.00  0.00     0.033 C 
BRANCH  27  29
HETATM   29  N2  UNL     1      21.329  24.383  18.668  1.00  0.00    -0.338 N 
HETATM   30  C5  UNL     1      19.926  24.441  18.826  1.00  0.00     0.316 C 
HETATM   31  N1  UNL     1      19.095  24.566  17.679  1.00  0.00    -0.343 N 
HETATM   32  O1  UNL     1      19.443  24.381  19.977  1.00  0.00    -0.247 OA
ATOM     33  H1  UNL     1      19.493  24.615  16.741  1.00  0.00     0.164 HD
ATOM     34  H2  UNL     1      21.735  24.431  17.734  1.00  0.00     0.164 HD
BRANCH  31  35
HETATM   35  C4  UNL     1      17.661  24.621  17.891  1.00  0.00     0.124 C 
BRANCH  35  36
HETATM   36  C3  UNL     1      17.053  23.318  17.459  1.00  0.00     0.019 C 
BRANCH  36  37
HETATM   37  C2  UNL     1      16.318  22.766  18.682  1.00  0.00    -0.003 C 
HETATM   38  C1  UNL     1      17.218  21.722  19.308  1.00  0.00     0.005 C 
ENDBRANCH  36  37
ENDBRANCH  35  36
ENDBRANCH  31  35
ENDBRANCH  27  29
ENDBRANCH   1  27
BRANCH   2  39
HETATM   39  O2  UNL     1      24.184  26.363  21.542  1.00  0.00    -0.349 OA
ATOM     40  H2  UNL     1      25.048  26.753  21.482  1.00  0.00     0.219 HD
ENDBRANCH   2  39
BRANCH   5  41
HETATM   41  C11 UNL     1      26.388  23.009  20.287  1.00  0.00     0.033 C 
HETATM   42  C12 UNL     1      27.773  22.324  20.368  1.00  0.00     0.016 C 
HETATM   43  C13 UNL     1      25.486  21.929  19.719  1.00  0.00     0.016 C 
ENDBRANCH   5  41
BRANCH  20  44
HETATM   44  C28 UNL     1      26.084  27.927  16.141  1.00  0.00     0.038 C 
BRANCH  44  45
HETATM   45  C29 UNL     1      26.650  29.301  16.263  1.00  0.00    -0.020 C 
HETATM   46  C30 UNL     1      27.412  29.663  15.008  1.00  0.00     0.009 C 
HETATM   47  C31 UNL     1      25.464  30.256  16.379  1.00  0.00     0.009 C 
ENDBRANCH  44  45
ENDBRANCH  20  44
BRANCH  10  48
HETATM   48  C16 UNL     1      28.274  26.943  22.770  1.00  0.00     0.038 C 
BRANCH  48  49
HETATM   49  C17 UNL     1      29.242  28.042  22.776  1.00  0.00    -0.020 C 
HETATM   50  C18 UNL     1      28.646  29.395  23.047  1.00  0.00     0.009 C 
HETATM   51  C19 UNL     1      30.299  27.807  23.871  1.00  0.00     0.009 C 
ENDBRANCH  48  49
ENDBRANCH  10  48
BRANCH  15  52
HETATM   52  C22 UNL     1      28.032  28.700  19.275  1.00  0.00     0.038 C 
BRANCH  52  53
HETATM   53  C23 UNL     1      29.120  29.805  19.333  1.00  0.00    -0.020 C 
HETATM   54  C24 UNL     1      28.511  31.129  19.705  1.00  0.00     0.009 C 
HETATM   55  C25 UNL     1      29.757  29.974  17.970  1.00  0.00     0.009 C 
ENDBRANCH  52  53
ENDBRANCH  15  52
TORSDOF 13
ENDMDL
MODEL 5
REMARK VINA RESULT: -6.088990924      1.312      1.588
REMARK  13 active torsions:
REMARK  status: ('A' for Active; 'I' for Inactive)
REMARK    1  A    between atoms: C2_2  and  C3_3 
REMARK    2  A    between atoms: C3_3  and  C4_4 
REMARK    3  A    between atoms: C4_4  and  N1_5 
REMARK       I    between atoms: N1_5  and  C5_7 
REMARK       I    between atoms: C5_7  and  N2_9 
REMARK    4  A    between atoms: N2_9  and  C6_11 
REMARK    5  A    between atoms: C6_11  and  C8_13 
REMARK    6  A    between atoms: C9_14  and  O2_15 
REMARK    7  A    between atoms: C10_19  and  C11_20 
REMARK    8  A    between atoms: C15_27  and  C16_28 
REMARK    9  A    between atoms: C16_28  and  C17_29 
REMARK   10  A    between atoms: C21_36  and  C22_37 
REMARK   11  A    between atoms: C22_37  and  C23_38 
REMARK   12  A    between atoms: C27_45  and  C28_46 
REMARK   13  A    between atoms: C28_46  and  C29_47 
ROOT
HETATM    1  C8  UNL     1      24.017  25.174  20.107  1.00  0.00     0.175 C 
HETATM    2  C9  UNL     1      24.576  25.326  21.450  1.00  0.00     0.131 C 
HETATM    3  N3  UNL     1      25.231  24.467  22.306  1.00  0.00    -0.338 N 
ATOM      4  H3  UNL     1      24.672  24.252  23.132  1.00  0.00     0.167 HD
HETATM    5  C10 UNL     1      26.490  23.803  22.327  1.00  0.00     0.082 C 
HETATM    6  C14 UNL     1      27.471  24.377  23.295  1.00  0.00     0.265 C 
HETATM    7  O3  UNL     1      27.322  24.010  24.527  1.00  0.00    -0.266 OA
HETATM    8  N4  UNL     1      28.522  25.246  23.066  1.00  0.00    -0.343 N 
ATOM      9  H4  UNL     1      29.447  24.893  23.313  1.00  0.00     0.163 HD
HETATM   10  C15 UNL     1      28.490  26.611  22.516  1.00  0.00     0.177 C 
HETATM   11  C20 UNL     1      29.662  26.822  21.650  1.00  0.00     0.241 C 
HETATM   12  O4  UNL     1      30.631  25.986  21.842  1.00  0.00    -0.271 OA
HETATM   13  N5  UNL     1      29.878  27.778  20.666  1.00  0.00    -0.346 N 
ATOM     14  H5  UNL     1      30.759  28.286  20.753  1.00  0.00     0.163 HD
HETATM   15  C21 UNL     1      29.063  28.173  19.540  1.00  0.00     0.177 C 
HETATM   16  C26 UNL     1      28.450  27.042  18.882  1.00  0.00     0.241 C 
HETATM   17  O5  UNL     1      29.280  26.091  18.571  1.00  0.00    -0.271 OA
HETATM   18  N6  UNL     1      27.137  26.746  18.501  1.00  0.00    -0.346 N 
ATOM     19  H6  UNL     1      26.865  25.766  18.574  1.00  0.00     0.163 HD
HETATM   20  C27 UNL     1      26.113  27.647  18.017  1.00  0.00     0.177 C 
HETATM   21  C32 UNL     1      24.880  26.968  17.544  1.00  0.00     0.248 C 
HETATM   22  O6  UNL     1      24.920  26.361  16.407  1.00  0.00    -0.271 OA
HETATM   23  N7  UNL     1      23.624  26.902  18.203  1.00  0.00    -0.290 N 
HETATM   24  C33 UNL     1      22.398  27.331  17.472  1.00  0.00     0.162 C 
HETATM   25  C34 UNL     1      23.459  26.454  19.535  1.00  0.00     0.240 C 
HETATM   26  O7  UNL     1      22.778  27.197  20.329  1.00  0.00    -0.272 OA
ENDROOT
BRANCH   1  27
HETATM   27  C6  UNL     1      22.882  24.175  20.033  1.00  0.00     0.103 C 
HETATM   28  C7  UNL     1      23.421  22.773  20.026  1.00  0.00     0.033 C 
BRANCH  27  29
HETATM   29  N2  UNL     1      21.928  24.421  19.000  1.00  0.00    -0.338 N 
HETATM   30  C5  UNL     1      20.547  24.243  19.241  1.00  0.00     0.316 C 
HETATM   31  N1  UNL     1      19.615  24.494  18.198  1.00  0.00    -0.343 N 
HETATM   32  O1  UNL     1      20.173  23.867  20.373  1.00  0.00    -0.247 OA
ATOM     33  H1  UNL     1      19.923  24.801  17.275  1.00  0.00     0.164 HD
ATOM     34  H2  UNL     1      22.246  24.727  18.081  1.00  0.00     0.164 HD
BRANCH  31  35
HETATM   35  C4  UNL     1      18.208  24.297  18.492  1.00  0.00     0.124 C 
BRANCH  35  36
HETATM   36  C3  UNL     1      17.388  24.934  17.408  1.00  0.00     0.019 C 
BRANCH  36  37
HETATM   37  C2  UNL     1      18.232  24.854  16.135  1.00  0.00    -0.003 C 
HETATM   38  C1  UNL     1      17.329  25.225  14.978  1.00  0.00     0.005 C 
ENDBRANCH  36  37
ENDBRANCH  35  36
ENDBRANCH  31  35
ENDBRANCH  27  29
ENDBRANCH   1  27
BRANCH   2  39
HETATM   39  O2  UNL     1      24.413  26.530  21.920  1.00  0.00    -0.349 OA
ATOM     40  H2  UNL     1      24.569  26.576  22.856  1.00  0.00     0.219 HD
ENDBRANCH   2  39
BRANCH   5  41
HETATM   41  C11 UNL     1      27.125  23.449  21.007  1.00  0.00     0.033 C 
HETATM   42  C12 UNL     1      28.597  23.035  21.248  1.00  0.00     0.016 C 
HETATM   43  C13 UNL     1      26.492  22.201  20.421  1.00  0.00     0.016 C 
ENDBRANCH   5  41
BRANCH  20  44
HETATM   44  C28 UNL     1      26.708  28.235  16.718  1.00  0.00     0.038 C 
BRANCH  44  45
HETATM   45  C29 UNL     1      26.938  29.705  16.811  1.00  0.00    -0.020 C 
HETATM   46  C30 UNL     1      28.216  30.078  16.093  1.00  0.00     0.009 C 
HETATM   47  C31 UNL     1      25.781  30.378  16.078  1.00  0.00     0.009 C 
ENDBRANCH  44  45
ENDBRANCH  20  44
BRANCH  10  48
HETATM   48  C16 UNL     1      28.242  27.617  23.572  1.00  0.00     0.038 C 
BRANCH  48  49
HETATM   49  C17 UNL     1      29.165  27.749  24.701  1.00  0.00    -0.020 C 
HETATM   50  C18 UNL     1      29.778  29.114  24.849  1.00  0.00     0.009 C 
HETATM   51  C19 UNL     1      28.426  27.461  26.022  1.00  0.00     0.009 C 
ENDBRANCH  48  49
ENDBRANCH  10  48
BRANCH  15  52
HETATM   52  C22 UNL     1      28.187  29.282  20.025  1.00  0.00     0.038 C 
BRANCH  52  53
HETATM   53  C23 UNL     1      29.158  30.372  20.551  1.00  0.00    -0.020 C 
HETATM   54  C24 UNL     1      28.615  31.005  21.802  1.00  0.00     0.009 C 
HETATM   55  C25 UNL     1      29.305  31.473  19.521  1.00  0.00     0.009 C 
ENDBRANCH  52  53
ENDBRANCH  15  52
TORSDOF 13
ENDMDL
