MODEL 1
REMARK VINA RESULT: -7.863191480      0.000      0.000
REMARK  14 active torsions:
REMARK  status: ('A' for Active; 'I' for Inactive)
REMARK    1  A    between atoms: C2_2  and  C3_3 
REMARK    2  A    between atoms: C3_3  and  C4_4 
REMARK    3  A    between atoms: C4_4  and  C5_5 
REMARK    4  A    between atoms: C7_10  and  C8_11 
REMARK    5  A    between atoms: C8_11  and  C9_12 
REMARK    6  A    between atoms: C13_19  and  C14_20 
REMARK    7  A    between atoms: C14_20  and  C15_21 
REMARK    8  A    between atoms: C19_28  and  C20_29 
REMARK    9  A    between atoms: C20_29  and  C21_30 
REMARK   10  A    between atoms: C24_35  and  O4_36 
REMARK   11  A    between atoms: C25_38  and  C26_39 
REMARK   12  A    between atoms: C26_39  and  C27_40 
REMARK   13  A    between atoms: C31_45  and  O5_46 
REMARK   14  A    between atoms: C32_48  and  C33_49 
ROOT
HETATM    1  C5  UNL     1      11.563  17.587  18.936  1.00  0.00     0.176 C 
HETATM    2  N1  UNL     1      11.545  19.028  18.758  1.00  0.00    -0.346 N 
ATOM      3  H1  UNL     1      10.713  19.485  19.132  1.00  0.00     0.163 HD
HETATM    4  C6  UNL     1      12.447  19.890  18.176  1.00  0.00     0.241 C 
HETATM    5  O1  UNL     1      12.023  20.567  17.154  1.00  0.00    -0.271 OA
HETATM    6  C7  UNL     1      13.852  20.197  18.515  1.00  0.00     0.177 C 
HETATM    7  N2  UNL     1      14.714  19.856  17.409  1.00  0.00    -0.346 N 
ATOM      8  H2  UNL     1      14.692  18.867  17.162  1.00  0.00     0.163 HD
HETATM    9  C12 UNL     1      15.557  20.600  16.626  1.00  0.00     0.241 C 
HETATM   10  O2  UNL     1      16.824  20.370  16.689  1.00  0.00    -0.271 OA
HETATM   11  C13 UNL     1      15.230  21.703  15.643  1.00  0.00     0.177 C 
HETATM   12  N3  UNL     1      15.507  21.161  14.336  1.00  0.00    -0.346 N 
ATOM     13  H3  UNL     1      16.484  21.238  14.051  1.00  0.00     0.163 HD
HETATM   14  C18 UNL     1      14.700  20.560  13.405  1.00  0.00     0.244 C 
HETATM   15  O3  UNL     1      15.137  20.452  12.197  1.00  0.00    -0.271 OA
HETATM   16  C19 UNL     1      13.313  19.963  13.531  1.00  0.00     0.199 C 
HETATM   17  N4  UNL     1      13.234  18.752  12.757  1.00  0.00    -0.353 N 
ATOM     18  H4  UNL     1      13.747  18.859  11.882  1.00  0.00     0.162 HD
HETATM   19  C24 UNL     1      12.679  17.490  12.833  1.00  0.00     0.160 C 
HETATM   20  C25 UNL     1      11.316  16.932  12.633  1.00  0.00     0.064 C 
HETATM   21  N5  UNL     1      11.089  15.699  13.363  1.00  0.00    -0.333 N 
HETATM   22  C30 UNL     1      10.448  14.608  12.568  1.00  0.00     0.158 C 
HETATM   23  C31 UNL     1      11.391  15.331  14.675  1.00  0.00     0.150 C 
HETATM   24  C32 UNL     1      11.008  15.873  16.017  1.00  0.00     0.249 C 
HETATM   25  N7  UNL     1      12.065  16.628  16.600  1.00  0.00    -0.340 N 
ATOM     26  H7  UNL     1      12.702  17.045  15.922  1.00  0.00     0.163 HD
HETATM   27  C34 UNL     1      12.389  16.903  17.930  1.00  0.00     0.241 C 
HETATM   28  O7  UNL     1      13.553  16.528  18.354  1.00  0.00    -0.271 OA
ENDROOT
BRANCH   1  29
HETATM   29  C4  UNL     1      11.964  17.326  20.344  1.00  0.00     0.035 C 
BRANCH  29  30
HETATM   30  C3  UNL     1      12.350  18.524  21.141  1.00  0.00     0.002 C 
BRANCH  30  31
HETATM   31  C2  UNL     1      13.550  18.185  22.014  1.00  0.00    -0.004 C 
HETATM   32  C1  UNL     1      13.208  16.966  22.807  1.00  0.00     0.005 C 
ENDBRANCH  30  31
ENDBRANCH  29  30
ENDBRANCH   1  29
BRANCH   6  33
HETATM   33  C8  UNL     1      14.096  21.592  18.993  1.00  0.00     0.038 C 
BRANCH  33  34
HETATM   34  C9  UNL     1      15.108  21.818  20.037  1.00  0.00    -0.020 C 
HETATM   35  C10 UNL     1      15.505  20.402  20.536  1.00  0.00     0.009 C 
HETATM   36  C11 UNL     1      16.391  22.466  19.655  1.00  0.00     0.009 C 
ENDBRANCH  33  34
ENDBRANCH   6  33
BRANCH  24  37
HETATM   37  C33 UNL     1       9.670  16.512  16.045  1.00  0.00     0.262 C 
HETATM   38  N6  UNL     1       8.504  15.699  16.131  1.00  0.00    -0.060 NA
HETATM   39  O6  UNL     1       9.449  17.747  16.005  1.00  0.00    -0.274 OA
ENDBRANCH  24  37
BRANCH  23  40
HETATM   40  O5  UNL     1      12.174  14.292  14.818  1.00  0.00    -0.347 OA
ATOM     41  H5  UNL     1      12.707  14.275  15.605  1.00  0.00     0.219 HD
ENDBRANCH  23  40
BRANCH  11  42
HETATM   42  C14 UNL     1      16.149  22.827  16.032  1.00  0.00     0.038 C 
BRANCH  42  43
HETATM   43  C15 UNL     1      17.156  23.270  15.045  1.00  0.00    -0.020 C 
HETATM   44  C16 UNL     1      16.632  24.608  14.430  1.00  0.00     0.009 C 
HETATM   45  C17 UNL     1      18.478  23.721  15.693  1.00  0.00     0.009 C 
ENDBRANCH  42  43
ENDBRANCH  11  42
BRANCH  20  46
HETATM   46  C26 UNL     1      10.198  17.893  12.628  1.00  0.00     0.065 C 
BRANCH  46  47
HETATM   47  C27 UNL     1       9.405  18.097  11.398  1.00  0.00    -0.017 C 
HETATM   48  C28 UNL     1      10.235  17.503  10.235  1.00  0.00     0.010 C 
HETATM   49  C29 UNL     1       8.141  17.219  11.385  1.00  0.00     0.010 C 
ENDBRANCH  46  47
ENDBRANCH  20  46
BRANCH  19  50
HETATM   50  O4  UNL     1      13.521  16.519  13.151  1.00  0.00    -0.345 OA
ATOM     51  H4  UNL     1      13.785  16.492  14.063  1.00  0.00     0.219 HD
ENDBRANCH  19  50
BRANCH  16  52
HETATM   52  C20 UNL     1      12.287  21.000  13.321  1.00  0.00     0.009 C 
BRANCH  52  53
HETATM   53  C21 UNL     1      11.517  21.607  14.395  1.00  0.00    -0.089 C 
HETATM   54  C22 UNL     1      10.038  21.645  14.341  1.00  0.00     0.042 C 
HETATM   55  C23 UNL     1      12.035  22.931  14.939  1.00  0.00     0.042 C 
ENDBRANCH  52  53
ENDBRANCH  16  52
TORSDOF 14
ENDMDL
MODEL 2
REMARK VINA RESULT: -7.184852940      1.075      1.300
REMARK  14 active torsions:
REMARK  status: ('A' for Active; 'I' for Inactive)
REMARK    1  A    between atoms: C2_2  and  C3_3 
REMARK    2  A    between atoms: C3_3  and  C4_4 
REMARK    3  A    between atoms: C4_4  and  C5_5 
REMARK    4  A    between atoms: C7_10  and  C8_11 
REMARK    5  A    between atoms: C8_11  and  C9_12 
REMARK    6  A    between atoms: C13_19  and  C14_20 
REMARK    7  A    between atoms: C14_20  and  C15_21 
REMARK    8  A    between atoms: C19_28  and  C20_29 
REMARK    9  A    between atoms: C20_29  and  C21_30 
REMARK   10  A    between atoms: C24_35  and  O4_36 
REMARK   11  A    between atoms: C25_38  and  C26_39 
REMARK   12  A    between atoms: C26_39  and  C27_40 
REMARK   13  A    between atoms: C31_45  and  O5_46 
REMARK   14  A    between atoms: C32_48  and  C33_49 
ROOT
HETATM    1  C5  UNL     1      11.764  17.355  19.414  1.00  0.00     0.176 C 
HETATM    2  N1  UNL     1      11.544  18.765  19.144  1.00  0.00    -0.346 N 
ATOM      3  H1  UNL     1      10.741  19.163  19.631  1.00  0.00     0.163 HD
HETATM    4  C6  UNL     1      12.221  19.662  18.350  1.00  0.00     0.241 C 
HETATM    5  O1  UNL     1      11.548  20.197  17.378  1.00  0.00    -0.271 OA
HETATM    6  C7  UNL     1      13.617  20.143  18.404  1.00  0.00     0.177 C 
HETATM    7  N2  UNL     1      14.309  19.798  17.185  1.00  0.00    -0.346 N 
ATOM      8  H2  UNL     1      14.363  18.794  17.015  1.00  0.00     0.163 HD
HETATM    9  C12 UNL     1      14.908  20.554  16.213  1.00  0.00     0.241 C 
HETATM   10  O2  UNL     1      16.185  20.466  16.060  1.00  0.00    -0.271 OA
HETATM   11  C13 UNL     1      14.286  21.525  15.233  1.00  0.00     0.177 C 
HETATM   12  N3  UNL     1      14.395  20.901  13.937  1.00  0.00    -0.346 N 
ATOM     13  H3  UNL     1      15.291  21.055  13.475  1.00  0.00     0.163 HD
HETATM   14  C18 UNL     1      13.516  20.139  13.213  1.00  0.00     0.244 C 
HETATM   15  O3  UNL     1      13.747  19.970  11.955  1.00  0.00    -0.271 OA
HETATM   16  C19 UNL     1      12.254  19.412  13.631  1.00  0.00     0.199 C 
HETATM   17  N4  UNL     1      12.187  18.136  12.969  1.00  0.00    -0.353 N 
ATOM     18  H4  UNL     1      12.523  18.218  12.010  1.00  0.00     0.162 HD
HETATM   19  C24 UNL     1      11.808  16.834  13.232  1.00  0.00     0.160 C 
HETATM   20  C25 UNL     1      10.508  16.120  13.322  1.00  0.00     0.064 C 
HETATM   21  N5  UNL     1      10.560  14.939  14.164  1.00  0.00    -0.333 N 
HETATM   22  C30 UNL     1       9.926  13.721  13.576  1.00  0.00     0.158 C 
HETATM   23  C31 UNL     1      11.126  14.724  15.422  1.00  0.00     0.150 C 
HETATM   24  C32 UNL     1      10.920  15.340  16.770  1.00  0.00     0.249 C 
HETATM   25  N7  UNL     1      11.964  16.251  17.098  1.00  0.00    -0.340 N 
ATOM     26  H7  UNL     1      12.419  16.670  16.287  1.00  0.00     0.163 HD
HETATM   27  C34 UNL     1      12.479  16.676  18.324  1.00  0.00     0.241 C 
HETATM   28  O7  UNL     1      13.735  16.464  18.553  1.00  0.00    -0.271 OA
ENDROOT
BRANCH   1  29
HETATM   29  C4  UNL     1      12.431  17.264  20.740  1.00  0.00     0.035 C 
BRANCH  29  30
HETATM   30  C3  UNL     1      12.672  18.559  21.435  1.00  0.00     0.002 C 
BRANCH  30  31
HETATM   31  C2  UNL     1      13.876  18.423  22.357  1.00  0.00    -0.004 C 
HETATM   32  C1  UNL     1      14.997  17.840  21.561  1.00  0.00     0.005 C 
ENDBRANCH  30  31
ENDBRANCH  29  30
ENDBRANCH   1  29
BRANCH   6  33
HETATM   33  C8  UNL     1      13.772  21.594  18.733  1.00  0.00     0.038 C 
BRANCH  33  34
HETATM   34  C9  UNL     1      14.923  22.018  19.546  1.00  0.00    -0.020 C 
HETATM   35  C10 UNL     1      15.602  20.703  20.013  1.00  0.00     0.009 C 
HETATM   36  C11 UNL     1      16.005  22.801  18.891  1.00  0.00     0.009 C 
ENDBRANCH  33  34
ENDBRANCH   6  33
BRANCH  24  37
HETATM   37  C33 UNL     1       9.540  15.834  16.998  1.00  0.00     0.262 C 
HETATM   38  N6  UNL     1       8.616  15.030  17.724  1.00  0.00    -0.060 NA
HETATM   39  O6  UNL     1       9.085  16.936  16.606  1.00  0.00    -0.274 OA
ENDBRANCH  24  37
BRANCH  23  40
HETATM   40  O5  UNL     1      12.041  13.790  15.490  1.00  0.00    -0.347 OA
ATOM     41  H5  UNL     1      12.926  14.054  15.268  1.00  0.00     0.219 HD
ENDBRANCH  23  40
BRANCH  11  42
HETATM   42  C14 UNL     1      15.118  22.770  15.369  1.00  0.00     0.038 C 
BRANCH  42  43
HETATM   43  C15 UNL     1      16.448  22.788  14.724  1.00  0.00    -0.020 C 
HETATM   44  C16 UNL     1      16.319  23.672  13.442  1.00  0.00     0.009 C 
HETATM   45  C17 UNL     1      17.501  23.565  15.535  1.00  0.00     0.009 C 
ENDBRANCH  42  43
ENDBRANCH  11  42
BRANCH  20  46
HETATM   46  C26 UNL     1       9.299  16.954  13.455  1.00  0.00     0.065 C 
BRANCH  46  47
HETATM   47  C27 UNL     1       8.365  17.087  12.318  1.00  0.00    -0.017 C 
HETATM   48  C28 UNL     1       6.968  17.354  12.924  1.00  0.00     0.010 C 
HETATM   49  C29 UNL     1       8.630  18.374  11.514  1.00  0.00     0.010 C 
ENDBRANCH  46  47
ENDBRANCH  20  46
BRANCH  19  50
HETATM   50  O4  UNL     1      12.802  15.989  13.456  1.00  0.00    -0.345 OA
ATOM     51  H4  UNL     1      12.621  15.082  13.242  1.00  0.00     0.219 HD
ENDBRANCH  19  50
BRANCH  16  52
HETATM   52  C20 UNL     1      11.090  20.312  13.541  1.00  0.00     0.009 C 
BRANCH  52  53
HETATM   53  C21 UNL     1      10.231  20.641  14.667  1.00  0.00    -0.089 C 
HETATM   54  C22 UNL     1       9.017  19.843  14.953  1.00  0.00     0.042 C 
HETATM   55  C23 UNL     1       9.926  22.116  14.883  1.00  0.00     0.042 C 
ENDBRANCH  52  53
ENDBRANCH  16  52
TORSDOF 14
ENDMDL
MODEL 3
REMARK VINA RESULT: -6.734742970      0.895      1.155
REMARK  14 active torsions:
REMARK  status: ('A' for Active; 'I' for Inactive)
REMARK    1  A    between atoms: C2_2  and  C3_3 
REMARK    2  A    between atoms: C3_3  and  C4_4 
REMARK    3  A    between atoms: C4_4  and  C5_5 
REMARK    4  A    between atoms: C7_10  and  C8_11 
REMARK    5  A    between atoms: C8_11  and  C9_12 
REMARK    6  A    between atoms: C13_19  and  C14_20 
REMARK    7  A    between atoms: C14_20  and  C15_21 
REMARK    8  A    between atoms: C19_28  and  C20_29 
REMARK    9  A    between atoms: C20_29  and  C21_30 
REMARK   10  A    between atoms: C24_35  and  O4_36 
REMARK   11  A    between atoms: C25_38  and  C26_39 
REMARK   12  A    between atoms: C26_39  and  C27_40 
REMARK   13  A    between atoms: C31_45  and  O5_46 
REMARK   14  A    between atoms: C32_48  and  C33_49 
ROOT
HETATM    1  C5  UNL     1      12.059  17.666  19.385  1.00  0.00     0.176 C 
HETATM    2  N1  UNL     1      12.021  19.110  19.232  1.00  0.00    -0.346 N 
ATOM      3  H1  UNL     1      11.246  19.561  19.719  1.00  0.00     0.163 HD
HETATM    4  C6  UNL     1      12.840  19.980  18.549  1.00  0.00     0.241 C 
HETATM    5  O1  UNL     1      12.286  20.673  17.602  1.00  0.00    -0.271 OA
HETATM    6  C7  UNL     1      14.278  20.281  18.705  1.00  0.00     0.177 C 
HETATM    7  N2  UNL     1      14.987  19.957  17.490  1.00  0.00    -0.346 N 
ATOM      8  H2  UNL     1      14.930  18.972  17.233  1.00  0.00     0.163 HD
HETATM    9  C12 UNL     1      15.721  20.712  16.614  1.00  0.00     0.241 C 
HETATM   10  O2  UNL     1      16.985  20.482  16.507  1.00  0.00    -0.271 OA
HETATM   11  C13 UNL     1      15.269  21.830  15.699  1.00  0.00     0.177 C 
HETATM   12  N3  UNL     1      15.371  21.308  14.359  1.00  0.00    -0.346 N 
ATOM     13  H3  UNL     1      16.302  21.390  13.950  1.00  0.00     0.163 HD
HETATM   14  C18 UNL     1      14.447  20.722  13.533  1.00  0.00     0.244 C 
HETATM   15  O3  UNL     1      14.721  20.631  12.277  1.00  0.00    -0.271 OA
HETATM   16  C19 UNL     1      13.088  20.123  13.832  1.00  0.00     0.199 C 
HETATM   17  N4  UNL     1      12.905  18.924  13.058  1.00  0.00    -0.353 N 
ATOM     18  H4  UNL     1      13.298  19.044  12.124  1.00  0.00     0.162 HD
HETATM   19  C24 UNL     1      12.362  17.661  13.187  1.00  0.00     0.160 C 
HETATM   20  C25 UNL     1      10.983  17.106  13.160  1.00  0.00     0.064 C 
HETATM   21  N5  UNL     1      10.851  15.862  13.895  1.00  0.00    -0.333 N 
HETATM   22  C30 UNL     1      10.109  14.784  13.175  1.00  0.00     0.158 C 
HETATM   23  C31 UNL     1      11.322  15.475  15.150  1.00  0.00     0.150 C 
HETATM   24  C32 UNL     1      11.121  15.997  16.538  1.00  0.00     0.249 C 
HETATM   25  N7  UNL     1      12.246  16.743  16.989  1.00  0.00    -0.340 N 
ATOM     26  H7  UNL     1      12.789  17.170  16.239  1.00  0.00     0.163 HD
HETATM   27  C34 UNL     1      12.744  16.998  18.268  1.00  0.00     0.241 C 
HETATM   28  O7  UNL     1      13.952  16.615  18.530  1.00  0.00    -0.271 OA
ENDROOT
BRANCH   1  29
HETATM   29  C4  UNL     1      12.640  17.384  20.724  1.00  0.00     0.035 C 
BRANCH  29  30
HETATM   30  C3  UNL     1      12.648  18.525  21.681  1.00  0.00     0.002 C 
BRANCH  30  31
HETATM   31  C2  UNL     1      14.081  18.833  22.091  1.00  0.00    -0.004 C 
HETATM   32  C1  UNL     1      14.938  17.695  21.643  1.00  0.00     0.005 C 
ENDBRANCH  30  31
ENDBRANCH  29  30
ENDBRANCH   1  29
BRANCH   6  33
HETATM   33  C8  UNL     1      14.586  21.670  19.167  1.00  0.00     0.038 C 
BRANCH  33  34
HETATM   34  C9  UNL     1      15.735  21.881  20.062  1.00  0.00    -0.020 C 
HETATM   35  C10 UNL     1      16.476  20.518  20.107  1.00  0.00     0.009 C 
HETATM   36  C11 UNL     1      16.771  22.871  19.666  1.00  0.00     0.009 C 
ENDBRANCH  33  34
ENDBRANCH   6  33
BRANCH  24  37
HETATM   37  C33 UNL     1       9.799  16.635  16.752  1.00  0.00     0.262 C 
HETATM   38  N6  UNL     1       8.632  15.824  16.843  1.00  0.00    -0.060 NA
HETATM   39  O6  UNL     1       9.594  17.868  16.872  1.00  0.00    -0.274 OA
ENDBRANCH  24  37
BRANCH  23  40
HETATM   40  O5  UNL     1      12.115  14.433  15.174  1.00  0.00    -0.347 OA
ATOM     41  H5  UNL     1      11.984  13.792  14.485  1.00  0.00     0.219 HD
ENDBRANCH  23  40
BRANCH  11  42
HETATM   42  C14 UNL     1      16.235  22.949  15.981  1.00  0.00     0.038 C 
BRANCH  42  43
HETATM   43  C15 UNL     1      16.174  24.148  15.118  1.00  0.00    -0.020 C 
HETATM   44  C16 UNL     1      17.166  25.193  15.722  1.00  0.00     0.009 C 
HETATM   45  C17 UNL     1      16.778  23.915  13.721  1.00  0.00     0.009 C 
ENDBRANCH  42  43
ENDBRANCH  11  42
BRANCH  20  46
HETATM   46  C26 UNL     1       9.877  18.068  13.316  1.00  0.00     0.065 C 
BRANCH  46  47
HETATM   47  C27 UNL     1       8.510  17.695  12.896  1.00  0.00    -0.017 C 
HETATM   48  C28 UNL     1       7.540  18.412  13.865  1.00  0.00     0.010 C 
HETATM   49  C29 UNL     1       8.143  18.320  11.537  1.00  0.00     0.010 C 
ENDBRANCH  46  47
ENDBRANCH  20  46
BRANCH  19  50
HETATM   50  O4  UNL     1      13.236  16.685  13.377  1.00  0.00    -0.345 OA
ATOM     51  H4  UNL     1      13.438  16.491  14.284  1.00  0.00     0.219 HD
ENDBRANCH  19  50
BRANCH  16  52
HETATM   52  C20 UNL     1      12.045  21.163  13.774  1.00  0.00     0.009 C 
BRANCH  52  53
HETATM   53  C21 UNL     1      10.671  20.957  14.204  1.00  0.00    -0.089 C 
HETATM   54  C22 UNL     1       9.595  21.878  13.772  1.00  0.00     0.042 C 
HETATM   55  C23 UNL     1      10.462  20.590  15.666  1.00  0.00     0.042 C 
ENDBRANCH  52  53
ENDBRANCH  16  52
TORSDOF 14
ENDMDL
MODEL 4
REMARK VINA RESULT: -6.706144496      2.708      7.704
REMARK  14 active torsions:
REMARK  status: ('A' for Active; 'I' for Inactive)
REMARK    1  A    between atoms: C2_2  and  C3_3 
REMARK    2  A    between atoms: C3_3  and  C4_4 
REMARK    3  A    between atoms: C4_4  and  C5_5 
REMARK    4  A    between atoms: C7_10  and  C8_11 
REMARK    5  A    between atoms: C8_11  and  C9_12 
REMARK    6  A    between atoms: C13_19  and  C14_20 
REMARK    7  A    between atoms: C14_20  and  C15_21 
REMARK    8  A    between atoms: C19_28  and  C20_29 
REMARK    9  A    between atoms: C20_29  and  C21_30 
REMARK   10  A    between atoms: C24_35  and  O4_36 
REMARK   11  A    between atoms: C25_38  and  C26_39 
REMARK   12  A    between atoms: C26_39  and  C27_40 
REMARK   13  A    between atoms: C31_45  and  O5_46 
REMARK   14  A    between atoms: C32_48  and  C33_49 
ROOT
HETATM    1  C5  UNL     1      15.860  19.469  20.695  1.00  0.00     0.176 C 
HETATM    2  N1  UNL     1      15.554  18.653  19.533  1.00  0.00    -0.346 N 
ATOM      3  H1  UNL     1      16.194  17.872  19.391  1.00  0.00     0.163 HD
HETATM    4  C6  UNL     1      14.557  18.743  18.589  1.00  0.00     0.241 C 
HETATM    5  O1  UNL     1      14.938  18.920  17.361  1.00  0.00    -0.271 OA
HETATM    6  C7  UNL     1      13.087  18.670  18.721  1.00  0.00     0.177 C 
HETATM    7  N2  UNL     1      12.487  19.906  18.278  1.00  0.00    -0.346 N 
ATOM      8  H2  UNL     1      12.780  20.720  18.818  1.00  0.00     0.163 HD
HETATM    9  C12 UNL     1      11.602  20.200  17.274  1.00  0.00     0.241 C 
HETATM   10  O2  UNL     1      10.430  20.636  17.591  1.00  0.00    -0.271 OA
HETATM   11  C13 UNL     1      11.781  20.097  15.776  1.00  0.00     0.177 C 
HETATM   12  N3  UNL     1      11.819  21.454  15.289  1.00  0.00    -0.346 N 
ATOM     13  H3  UNL     1      10.899  21.861  15.120  1.00  0.00     0.163 HD
HETATM   14  C18 UNL     1      12.864  22.297  15.011  1.00  0.00     0.244 C 
HETATM   15  O3  UNL     1      12.630  23.343  14.295  1.00  0.00    -0.271 OA
HETATM   16  C19 UNL     1      14.324  22.233  15.410  1.00  0.00     0.199 C 
HETATM   17  N4  UNL     1      14.795  23.551  15.742  1.00  0.00    -0.353 N 
ATOM     18  H4  UNL     1      14.393  24.240  15.106  1.00  0.00     0.162 HD
HETATM   19  C24 UNL     1      15.622  24.173  16.656  1.00  0.00     0.160 C 
HETATM   20  C25 UNL     1      17.094  24.323  16.804  1.00  0.00     0.064 C 
HETATM   21  N5  UNL     1      17.512  24.546  18.175  1.00  0.00    -0.333 N 
HETATM   22  C30 UNL     1      18.497  25.655  18.358  1.00  0.00     0.158 C 
HETATM   23  C31 UNL     1      17.136  23.929  19.370  1.00  0.00     0.150 C 
HETATM   24  C32 UNL     1      17.194  22.520  19.870  1.00  0.00     0.249 C 
HETATM   25  N7  UNL     1      15.920  21.889  19.819  1.00  0.00    -0.340 N 
ATOM     26  H7  UNL     1      15.297  22.268  19.106  1.00  0.00     0.163 HD
HETATM   27  C34 UNL     1      15.364  20.847  20.564  1.00  0.00     0.241 C 
HETATM   28  O7  UNL     1      14.280  21.094  21.226  1.00  0.00    -0.271 OA
ENDROOT
BRANCH   1  29
HETATM   29  C4  UNL     1      15.351  18.740  21.887  1.00  0.00     0.035 C 
BRANCH  29  30
HETATM   30  C3  UNL     1      14.644  17.459  21.610  1.00  0.00     0.002 C 
BRANCH  30  31
HETATM   31  C2  UNL     1      13.223  17.536  22.152  1.00  0.00    -0.004 C 
HETATM   32  C1  UNL     1      13.165  16.716  23.399  1.00  0.00     0.005 C 
ENDBRANCH  30  31
ENDBRANCH  29  30
ENDBRANCH   1  29
BRANCH   6  33
HETATM   33  C8  UNL     1      12.452  17.485  18.066  1.00  0.00     0.038 C 
BRANCH  33  34
HETATM   34  C9  UNL     1      11.635  16.575  18.884  1.00  0.00    -0.020 C 
HETATM   35  C10 UNL     1      10.442  17.434  19.384  1.00  0.00     0.009 C 
HETATM   36  C11 UNL     1      11.012  15.395  18.228  1.00  0.00     0.009 C 
ENDBRANCH  33  34
ENDBRANCH   6  33
BRANCH  24  37
HETATM   37  C33 UNL     1      18.324  21.734  19.317  1.00  0.00     0.262 C 
HETATM   38  N6  UNL     1      19.546  21.650  20.042  1.00  0.00    -0.060 NA
HETATM   39  O6  UNL     1      18.311  21.103  18.231  1.00  0.00    -0.274 OA
ENDBRANCH  24  37
BRANCH  23  40
HETATM   40  O5  UNL     1      16.614  24.708  20.283  1.00  0.00    -0.347 OA
ATOM     41  H5  UNL     1      17.219  25.071  20.919  1.00  0.00     0.219 HD
ENDBRANCH  23  40
BRANCH  11  42
HETATM   42  C14 UNL     1      10.575  19.328  15.312  1.00  0.00     0.038 C 
BRANCH  42  43
HETATM   43  C15 UNL     1      10.765  18.315  14.252  1.00  0.00    -0.020 C 
HETATM   44  C16 UNL     1      12.225  18.483  13.721  1.00  0.00     0.009 C 
HETATM   45  C17 UNL     1      10.793  16.875  14.794  1.00  0.00     0.009 C 
ENDBRANCH  42  43
ENDBRANCH  11  42
BRANCH  20  46
HETATM   46  C26 UNL     1      17.937  23.409  16.013  1.00  0.00     0.065 C 
BRANCH  46  47
HETATM   47  C27 UNL     1      18.631  23.902  14.805  1.00  0.00    -0.017 C 
HETATM   48  C28 UNL     1      17.695  24.950  14.157  1.00  0.00     0.010 C 
HETATM   49  C29 UNL     1      19.870  24.742  15.166  1.00  0.00     0.010 C 
ENDBRANCH  46  47
ENDBRANCH  20  46
BRANCH  19  50
HETATM   50  O4  UNL     1      15.005  24.799  17.645  1.00  0.00    -0.345 OA
ATOM     51  H4  UNL     1      15.565  25.091  18.355  1.00  0.00     0.219 HD
ENDBRANCH  19  50
BRANCH  16  52
HETATM   52  C20 UNL     1      15.089  21.439  14.432  1.00  0.00     0.009 C 
BRANCH  52  53
HETATM   53  C21 UNL     1      14.876  21.502  12.994  1.00  0.00    -0.089 C 
HETATM   54  C22 UNL     1      15.148  20.327  12.135  1.00  0.00     0.042 C 
HETATM   55  C23 UNL     1      15.357  22.762  12.290  1.00  0.00     0.042 C 
ENDBRANCH  52  53
ENDBRANCH  16  52
TORSDOF 14
ENDMDL
MODEL 5
REMARK VINA RESULT: -6.484883985      1.884      2.643
REMARK  14 active torsions:
REMARK  status: ('A' for Active; 'I' for Inactive)
REMARK    1  A    between atoms: C2_2  and  C3_3 
REMARK    2  A    between atoms: C3_3  and  C4_4 
REMARK    3  A    between atoms: C4_4  and  C5_5 
REMARK    4  A    between atoms: C7_10  and  C8_11 
REMARK    5  A    between atoms: C8_11  and  C9_12 
REMARK    6  A    between atoms: C13_19  and  C14_20 
REMARK    7  A    between atoms: C14_20  and  C15_21 
REMARK    8  A    between atoms: C19_28  and  C20_29 
REMARK    9  A    between atoms: C20_29  and  C21_30 
REMARK   10  A    between atoms: C24_35  and  O4_36 
REMARK   11  A    between atoms: C25_38  and  C26_39 
REMARK   12  A    between atoms: C26_39  and  C27_40 
REMARK   13  A    between atoms: C31_45  and  O5_46 
REMARK   14  A    between atoms: C32_48  and  C33_49 
ROOT
HETATM    1  C5  UNL     1      11.910  17.286  19.783  1.00  0.00     0.176 C 
HETATM    2  N1  UNL     1      11.498  18.615  19.367  1.00  0.00    -0.346 N 
ATOM      3  H1  UNL     1      10.742  19.012  19.925  1.00  0.00     0.163 HD
HETATM    4  C6  UNL     1      11.943  19.437  18.356  1.00  0.00     0.241 C 
HETATM    5  O1  UNL     1      11.073  19.761  17.449  1.00  0.00    -0.271 OA
HETATM    6  C7  UNL     1      13.270  20.038  18.108  1.00  0.00     0.177 C 
HETATM    7  N2  UNL     1      13.797  19.574  16.848  1.00  0.00    -0.346 N 
ATOM      8  H2  UNL     1      13.932  18.564  16.807  1.00  0.00     0.163 HD
HETATM    9  C12 UNL     1      14.152  20.223  15.695  1.00  0.00     0.241 C 
HETATM   10  O2  UNL     1      15.392  20.221  15.341  1.00  0.00    -0.271 OA
HETATM   11  C13 UNL     1      13.284  20.979  14.713  1.00  0.00     0.177 C 
HETATM   12  N3  UNL     1      13.257  20.179  13.513  1.00  0.00    -0.346 N 
ATOM     13  H3  UNL     1      14.048  20.338  12.889  1.00  0.00     0.163 HD
HETATM   14  C18 UNL     1      12.364  19.245  13.057  1.00  0.00     0.244 C 
HETATM   15  O3  UNL     1      12.413  18.909  11.813  1.00  0.00    -0.271 OA
HETATM   16  C19 UNL     1      11.268  18.485  13.777  1.00  0.00     0.199 C 
HETATM   17  N4  UNL     1      11.238  17.123  13.314  1.00  0.00    -0.353 N 
ATOM     18  H4  UNL     1      11.410  17.088  12.309  1.00  0.00     0.162 HD
HETATM   19  C24 UNL     1      11.048  15.848  13.809  1.00  0.00     0.160 C 
HETATM   20  C25 UNL     1       9.862  15.048  14.214  1.00  0.00     0.064 C 
HETATM   21  N5  UNL     1      10.172  14.016  15.186  1.00  0.00    -0.333 N 
HETATM   22  C30 UNL     1       9.590  12.674  14.882  1.00  0.00     0.158 C 
HETATM   23  C31 UNL     1      10.947  14.040  16.346  1.00  0.00     0.150 C 
HETATM   24  C32 UNL     1      10.888  14.832  17.614  1.00  0.00     0.249 C 
HETATM   25  N7  UNL     1      11.865  15.867  17.636  1.00  0.00    -0.340 N 
ATOM     26  H7  UNL     1      12.140  16.198  16.711  1.00  0.00     0.163 HD
HETATM   27  C34 UNL     1      12.515  16.514  18.688  1.00  0.00     0.241 C 
HETATM   28  O7  UNL     1      13.807  16.446  18.728  1.00  0.00    -0.271 OA
ENDROOT
BRANCH   1  29
HETATM   29  C4  UNL     1      12.780  17.452  20.977  1.00  0.00     0.035 C 
BRANCH  29  30
HETATM   30  C3  UNL     1      12.875  18.835  21.523  1.00  0.00     0.002 C 
BRANCH  30  31
HETATM   31  C2  UNL     1      14.273  19.064  22.082  1.00  0.00    -0.004 C 
HETATM   32  C1  UNL     1      15.254  18.758  20.999  1.00  0.00     0.005 C 
ENDBRANCH  30  31
ENDBRANCH  29  30
ENDBRANCH   1  29
BRANCH   6  33
HETATM   33  C8  UNL     1      13.316  21.529  18.208  1.00  0.00     0.038 C 
BRANCH  33  34
HETATM   34  C9  UNL     1      14.625  22.194  18.306  1.00  0.00    -0.020 C 
HETATM   35  C10 UNL     1      14.361  23.678  17.934  1.00  0.00     0.009 C 
HETATM   36  C11 UNL     1      15.300  22.242  19.630  1.00  0.00     0.009 C 
ENDBRANCH  33  34
ENDBRANCH   6  33
BRANCH  24  37
HETATM   37  C33 UNL     1       9.515  15.236  18.005  1.00  0.00     0.262 C 
HETATM   38  N6  UNL     1       8.517  14.239  18.203  1.00  0.00    -0.060 NA
HETATM   39  O6  UNL     1       9.126  16.416  18.192  1.00  0.00    -0.274 OA
ENDBRANCH  24  37
BRANCH  23  40
HETATM   40  O5  UNL     1      11.957  13.208  16.384  1.00  0.00    -0.347 OA
ATOM     41  H5  UNL     1      12.654  13.424  16.992  1.00  0.00     0.219 HD
ENDBRANCH  23  40
BRANCH  11  42
HETATM   42  C14 UNL     1      13.987  22.297  14.538  1.00  0.00     0.038 C 
BRANCH  42  43
HETATM   43  C15 UNL     1      15.308  22.293  13.874  1.00  0.00    -0.020 C 
HETATM   44  C16 UNL     1      15.054  22.573  12.358  1.00  0.00     0.009 C 
HETATM   45  C17 UNL     1      16.186  23.493  14.272  1.00  0.00     0.009 C 
ENDBRANCH  42  43
ENDBRANCH  11  42
BRANCH  20  46
HETATM   46  C26 UNL     1       8.606  15.787  14.436  1.00  0.00     0.065 C 
BRANCH  46  47
HETATM   47  C27 UNL     1       7.390  15.420  13.681  1.00  0.00    -0.017 C 
HETATM   48  C28 UNL     1       7.869  14.805  12.345  1.00  0.00     0.010 C 
HETATM   49  C29 UNL     1       6.646  14.244  14.340  1.00  0.00     0.010 C 
ENDBRANCH  46  47
ENDBRANCH  20  46
BRANCH  19  50
HETATM   50  O4  UNL     1      12.150  15.134  13.974  1.00  0.00    -0.345 OA
ATOM     51  H4  UNL     1      12.060  14.203  13.808  1.00  0.00     0.219 HD
ENDBRANCH  19  50
BRANCH  16  52
HETATM   52  C20 UNL     1      10.014  19.260  13.765  1.00  0.00     0.009 C 
BRANCH  52  53
HETATM   53  C21 UNL     1       8.714  18.692  13.443  1.00  0.00    -0.089 C 
HETATM   54  C22 UNL     1       8.224  18.664  12.047  1.00  0.00     0.042 C 
HETATM   55  C23 UNL     1       7.565  19.053  14.373  1.00  0.00     0.042 C 
ENDBRANCH  52  53
ENDBRANCH  16  52
TORSDOF 14
ENDMDL
