MODEL 1
REMARK VINA RESULT: -5.101625328      0.000      0.000
REMARK  14 active torsions:
REMARK  status: ('A' for Active; 'I' for Inactive)
REMARK    1  A    between atoms: C2_2  and  C3_3 
REMARK    2  A    between atoms: C3_3  and  C4_4 
REMARK    3  A    between atoms: C4_4  and  C5_5 
REMARK    4  A    between atoms: C6_8  and  O1_9 
REMARK    5  A    between atoms: C7_11  and  C8_12 
REMARK    6  A    between atoms: C8_12  and  C9_13 
REMARK    7  A    between atoms: C13_20  and  C14_21 
REMARK    8  A    between atoms: C14_21  and  C16_23 
REMARK    9  A    between atoms: C24_37  and  C25_38 
REMARK   10  A    between atoms: C25_38  and  C26_39 
REMARK   11  A    between atoms: C26_39  and  C27_40 
REMARK   12  A    between atoms: C27_40  and  C28_41 
REMARK   13  A    between atoms: C28_41  and  N5_42 
REMARK   14  A    between atoms: C31_50  and  C32_51 
ROOT
HETATM    1  C5  UNL     1      24.979  26.693  16.988  1.00  0.00     0.175 C 
HETATM    2  N1  UNL     1      26.187  26.666  16.226  1.00  0.00    -0.359 N 
ATOM      3  H1  UNL     1      26.115  26.012  15.447  1.00  0.00     0.162 HD
HETATM    4  C6  UNL     1      27.412  27.272  16.251  1.00  0.00     0.135 C 
HETATM    5  C7  UNL     1      27.891  28.647  15.894  1.00  0.00     0.159 C 
HETATM    6  N2  UNL     1      26.988  29.696  16.153  1.00  0.00    -0.347 N 
ATOM      7  H2  UNL     1      26.133  29.725  15.597  1.00  0.00     0.163 HD
HETATM    8  C12 UNL     1      27.171  30.736  17.141  1.00  0.00     0.241 C 
HETATM    9  O2  UNL     1      26.439  31.787  17.070  1.00  0.00    -0.271 OA
HETATM   10  C13 UNL     1      28.145  30.683  18.241  1.00  0.00     0.181 C 
HETATM   11  N3  UNL     1      27.475  30.764  19.542  1.00  0.00    -0.337 N 
ATOM     12  H3  UNL     1      26.553  31.196  19.606  1.00  0.00     0.164 HD
HETATM   13  C18 UNL     1      28.086  30.255  20.706  1.00  0.00     0.297 C 
HETATM   14  O3  UNL     1      27.837  30.757  21.860  1.00  0.00    -0.258 OA
HETATM   15  C19 UNL     1      28.982  29.189  20.657  1.00  0.00    -0.006 C 
HETATM   16  C20 UNL     1      29.702  28.332  20.639  1.00  0.00    -0.095 C 
HETATM   17  C21 UNL     1      30.619  27.248  20.646  1.00  0.00     0.114 C 
HETATM   18  C22 UNL     1      29.871  26.022  21.189  1.00  0.00     0.135 C 
HETATM   19  N4  UNL     1      28.907  26.472  22.171  1.00  0.00    -0.358 N 
ATOM     20  H4  UNL     1      29.223  27.175  22.838  1.00  0.00     0.162 HD
HETATM   21  C23 UNL     1      27.573  26.032  22.293  1.00  0.00     0.240 C 
HETATM   22  O4  UNL     1      26.701  26.962  22.419  1.00  0.00    -0.271 OA
HETATM   23  C24 UNL     1      27.089  24.650  22.295  1.00  0.00     0.178 C 
HETATM   24  N6  UNL     1      27.168  23.933  21.053  1.00  0.00    -0.341 N 
HETATM   25  C29 UNL     1      27.974  22.678  21.078  1.00  0.00     0.153 C 
HETATM   26  C30 UNL     1      26.597  24.238  19.822  1.00  0.00     0.243 C 
HETATM   27  O5  UNL     1      27.419  24.145  18.823  1.00  0.00    -0.271 OA
HETATM   28  C31 UNL     1      25.245  24.642  19.439  1.00  0.00     0.180 C 
HETATM   29  N7  UNL     1      24.971  26.050  19.488  1.00  0.00    -0.346 N 
ATOM     30  H7  UNL     1      24.682  26.426  20.391  1.00  0.00     0.163 HD
HETATM   31  C35 UNL     1      25.059  26.977  18.416  1.00  0.00     0.241 C 
HETATM   32  O6  UNL     1      25.223  28.166  18.781  1.00  0.00    -0.271 OA
ENDROOT
BRANCH  23  33
HETATM   33  C25 UNL     1      27.835  23.902  23.412  1.00  0.00     0.035 C 
BRANCH  33  34
HETATM   34  C26 UNL     1      26.786  23.589  24.469  1.00  0.00     0.004 C 
BRANCH  34  35
HETATM   35  C27 UNL     1      27.077  24.277  25.774  1.00  0.00     0.027 C 
BRANCH  35  36
HETATM   36  C28 UNL     1      25.851  25.054  26.218  1.00  0.00     0.229 C 
BRANCH  36  37
HETATM   37  N5  UNL     1      25.609  26.180  25.304  1.00  0.00    -0.079 N 
ATOM     38  H53 UNL     1      26.324  26.902  25.390  1.00  0.00     0.274 HD
ATOM     39  H52 UNL     1      25.771  25.924  24.330  1.00  0.00     0.274 HD
ATOM     40  H51 UNL     1      24.671  26.553  25.449  1.00  0.00     0.274 HD
ENDBRANCH  36  37
ENDBRANCH  35  36
ENDBRANCH  34  35
ENDBRANCH  33  34
ENDBRANCH  23  33
BRANCH  28  41
HETATM   41  C32 UNL     1      24.133  23.930  20.190  1.00  0.00     0.009 C 
HETATM   42  C33 UNL     1      22.773  24.491  19.776  1.00  0.00     0.012 C 
HETATM   43  C34 UNL     1      24.089  22.448  19.882  1.00  0.00     0.012 C 
ENDBRANCH  28  41
BRANCH   1  44
HETATM   44  C4  UNL     1      23.873  27.527  16.317  1.00  0.00     0.035 C 
BRANCH  44  45
HETATM   45  C3  UNL     1      22.528  27.194  16.935  1.00  0.00     0.002 C 
BRANCH  45  46
HETATM   46  C2  UNL     1      21.429  27.556  15.964  1.00  0.00    -0.004 C 
HETATM   47  C1  UNL     1      21.615  26.733  14.719  1.00  0.00     0.005 C 
ENDBRANCH  45  46
ENDBRANCH  44  45
ENDBRANCH   1  44
BRANCH   4  48
HETATM   48  O1  UNL     1      28.403  26.534  16.660  1.00  0.00    -0.348 OA
ATOM     49  H1  UNL     1      29.103  26.396  16.034  1.00  0.00     0.219 HD
ENDBRANCH   4  48
BRANCH  10  50
HETATM   50  C14 UNL     1      29.170  31.777  18.254  1.00  0.00     0.013 C 
HETATM   51  C15 UNL     1      29.745  32.034  16.896  1.00  0.00     0.012 C 
BRANCH  50  52
HETATM   52  C16 UNL     1      28.719  33.077  18.831  1.00  0.00     0.002 C 
HETATM   53  C17 UNL     1      29.821  33.494  19.828  1.00  0.00     0.005 C 
ENDBRANCH  50  52
ENDBRANCH  10  50
BRANCH   5  54
HETATM   54  C8  UNL     1      28.277  28.607  14.432  1.00  0.00     0.037 C 
BRANCH  54  55
HETATM   55  C9  UNL     1      29.546  29.192  14.004  1.00  0.00    -0.020 C 
HETATM   56  C10 UNL     1      30.207  28.653  12.768  1.00  0.00     0.009 C 
HETATM   57  C11 UNL     1      30.571  28.944  15.135  1.00  0.00     0.009 C 
ENDBRANCH  54  55
ENDBRANCH   5  54
TORSDOF 14
ENDMDL
MODEL 2
REMARK VINA RESULT: -4.830683135      2.098      8.216
REMARK  14 active torsions:
REMARK  status: ('A' for Active; 'I' for Inactive)
REMARK    1  A    between atoms: C2_2  and  C3_3 
REMARK    2  A    between atoms: C3_3  and  C4_4 
REMARK    3  A    between atoms: C4_4  and  C5_5 
REMARK    4  A    between atoms: C6_8  and  O1_9 
REMARK    5  A    between atoms: C7_11  and  C8_12 
REMARK    6  A    between atoms: C8_12  and  C9_13 
REMARK    7  A    between atoms: C13_20  and  C14_21 
REMARK    8  A    between atoms: C14_21  and  C16_23 
REMARK    9  A    between atoms: C24_37  and  C25_38 
REMARK   10  A    between atoms: C25_38  and  C26_39 
REMARK   11  A    between atoms: C26_39  and  C27_40 
REMARK   12  A    between atoms: C27_40  and  C28_41 
REMARK   13  A    between atoms: C28_41  and  N5_42 
REMARK   14  A    between atoms: C31_50  and  C32_51 
ROOT
HETATM    1  C5  UNL     1      24.837  25.082  19.784  1.00  0.00     0.175 C 
HETATM    2  N1  UNL     1      25.199  25.430  21.122  1.00  0.00    -0.359 N 
ATOM      3  H1  UNL     1      24.420  25.874  21.609  1.00  0.00     0.162 HD
HETATM    4  C6  UNL     1      26.297  25.333  21.930  1.00  0.00     0.135 C 
HETATM    5  C7  UNL     1      26.947  24.195  22.658  1.00  0.00     0.159 C 
HETATM    6  N2  UNL     1      26.888  22.944  22.015  1.00  0.00    -0.347 N 
ATOM      7  H2  UNL     1      25.969  22.510  21.920  1.00  0.00     0.163 HD
HETATM    8  C12 UNL     1      28.020  22.223  21.477  1.00  0.00     0.241 C 
HETATM    9  O2  UNL     1      27.879  20.979  21.196  1.00  0.00    -0.271 OA
HETATM   10  C13 UNL     1      29.343  22.812  21.221  1.00  0.00     0.181 C 
HETATM   11  N3  UNL     1      29.702  22.703  19.805  1.00  0.00    -0.337 N 
ATOM     12  H3  UNL     1      29.272  21.977  19.232  1.00  0.00     0.164 HD
HETATM   13  C18 UNL     1      30.634  23.586  19.222  1.00  0.00     0.297 C 
HETATM   14  O3  UNL     1      31.360  23.223  18.229  1.00  0.00    -0.258 OA
HETATM   15  C19 UNL     1      30.810  24.884  19.697  1.00  0.00    -0.006 C 
HETATM   16  C20 UNL     1      30.964  25.931  20.061  1.00  0.00    -0.095 C 
HETATM   17  C21 UNL     1      31.180  27.263  20.503  1.00  0.00     0.114 C 
HETATM   18  C22 UNL     1      30.516  28.196  19.480  1.00  0.00     0.135 C 
HETATM   19  N4  UNL     1      30.622  27.588  18.170  1.00  0.00    -0.358 N 
ATOM     20  H4  UNL     1      31.520  27.171  17.927  1.00  0.00     0.162 HD
HETATM   21  C23 UNL     1      29.602  27.517  17.199  1.00  0.00     0.240 C 
HETATM   22  O4  UNL     1      29.438  26.364  16.665  1.00  0.00    -0.271 OA
HETATM   23  C24 UNL     1      28.730  28.601  16.742  1.00  0.00     0.178 C 
HETATM   24  N6  UNL     1      27.750  29.082  17.675  1.00  0.00    -0.341 N 
HETATM   25  C29 UNL     1      27.835  30.532  18.015  1.00  0.00     0.153 C 
HETATM   26  C30 UNL     1      26.726  28.390  18.311  1.00  0.00     0.243 C 
HETATM   27  O5  UNL     1      26.650  28.616  19.587  1.00  0.00    -0.271 OA
HETATM   28  C31 UNL     1      25.714  27.458  17.815  1.00  0.00     0.180 C 
HETATM   29  N7  UNL     1      26.103  26.077  17.766  1.00  0.00    -0.346 N 
ATOM     30  H7  UNL     1      26.599  25.774  16.927  1.00  0.00     0.163 HD
HETATM   31  C35 UNL     1      25.872  25.087  18.757  1.00  0.00     0.241 C 
HETATM   32  O6  UNL     1      26.670  24.120  18.709  1.00  0.00    -0.271 OA
ENDROOT
BRANCH  23  33
HETATM   33  C25 UNL     1      29.635  29.744  16.254  1.00  0.00     0.035 C 
BRANCH  33  34
HETATM   34  C26 UNL     1      29.164  30.067  14.843  1.00  0.00     0.004 C 
BRANCH  34  35
HETATM   35  C27 UNL     1      29.104  28.841  13.974  1.00  0.00     0.027 C 
BRANCH  35  36
HETATM   36  C28 UNL     1      30.514  28.404  13.623  1.00  0.00     0.229 C 
BRANCH  36  37
HETATM   37  N5  UNL     1      30.650  26.949  13.797  1.00  0.00    -0.079 N 
ATOM     38  H53 UNL     1      30.834  26.475  12.913  1.00  0.00     0.274 HD
ATOM     39  H52 UNL     1      31.512  26.701  14.282  1.00  0.00     0.274 HD
ATOM     40  H51 UNL     1      29.826  26.575  14.267  1.00  0.00     0.274 HD
ENDBRANCH  36  37
ENDBRANCH  35  36
ENDBRANCH  34  35
ENDBRANCH  33  34
ENDBRANCH  23  33
BRANCH  28  41
HETATM   41  C32 UNL     1      25.125  27.820  16.464  1.00  0.00     0.009 C 
HETATM   42  C33 UNL     1      25.994  27.254  15.340  1.00  0.00     0.012 C 
HETATM   43  C34 UNL     1      23.743  27.234  16.263  1.00  0.00     0.012 C 
ENDBRANCH  28  41
BRANCH   1  44
HETATM   44  C4  UNL     1      23.989  23.801  19.713  1.00  0.00     0.035 C 
BRANCH  44  45
HETATM   45  C3  UNL     1      23.124  23.685  20.954  1.00  0.00     0.002 C 
BRANCH  45  46
HETATM   46  C2  UNL     1      21.865  22.920  20.616  1.00  0.00    -0.004 C 
HETATM   47  C1  UNL     1      20.746  23.464  21.461  1.00  0.00     0.005 C 
ENDBRANCH  45  46
ENDBRANCH  44  45
ENDBRANCH   1  44
BRANCH   4  48
HETATM   48  O1  UNL     1      26.944  26.442  22.144  1.00  0.00    -0.348 OA
ATOM     49  H1  UNL     1      27.699  26.378  22.716  1.00  0.00     0.219 HD
ENDBRANCH   4  48
BRANCH  10  50
HETATM   50  C14 UNL     1      30.485  22.194  21.970  1.00  0.00     0.013 C 
HETATM   51  C15 UNL     1      31.275  21.247  21.122  1.00  0.00     0.012 C 
BRANCH  50  52
HETATM   52  C16 UNL     1      31.428  23.154  22.615  1.00  0.00     0.002 C 
HETATM   53  C17 UNL     1      30.541  24.150  23.391  1.00  0.00     0.005 C 
ENDBRANCH  50  52
ENDBRANCH  10  50
BRANCH   5  54
HETATM   54  C8  UNL     1      26.308  24.135  24.028  1.00  0.00     0.037 C 
BRANCH  54  55
HETATM   55  C9  UNL     1      27.154  24.032  25.215  1.00  0.00    -0.020 C 
HETATM   56  C10 UNL     1      27.753  22.699  25.561  1.00  0.00     0.009 C 
HETATM   57  C11 UNL     1      26.278  24.395  26.437  1.00  0.00     0.009 C 
ENDBRANCH  54  55
ENDBRANCH   5  54
TORSDOF 14
ENDMDL
MODEL 3
REMARK VINA RESULT: -4.817125289      2.076      7.736
REMARK  14 active torsions:
REMARK  status: ('A' for Active; 'I' for Inactive)
REMARK    1  A    between atoms: C2_2  and  C3_3 
REMARK    2  A    between atoms: C3_3  and  C4_4 
REMARK    3  A    between atoms: C4_4  and  C5_5 
REMARK    4  A    between atoms: C6_8  and  O1_9 
REMARK    5  A    between atoms: C7_11  and  C8_12 
REMARK    6  A    between atoms: C8_12  and  C9_13 
REMARK    7  A    between atoms: C13_20  and  C14_21 
REMARK    8  A    between atoms: C14_21  and  C16_23 
REMARK    9  A    between atoms: C24_37  and  C25_38 
REMARK   10  A    between atoms: C25_38  and  C26_39 
REMARK   11  A    between atoms: C26_39  and  C27_40 
REMARK   12  A    between atoms: C27_40  and  C28_41 
REMARK   13  A    between atoms: C28_41  and  N5_42 
REMARK   14  A    between atoms: C31_50  and  C32_51 
ROOT
HETATM    1  C5  UNL     1      24.265  27.046  17.246  1.00  0.00     0.175 C 
HETATM    2  N1  UNL     1      23.796  27.139  18.593  1.00  0.00    -0.359 N 
ATOM      3  H1  UNL     1      23.005  27.779  18.663  1.00  0.00     0.162 HD
HETATM    4  C6  UNL     1      24.113  26.610  19.813  1.00  0.00     0.135 C 
HETATM    5  C7  UNL     1      23.908  25.263  20.439  1.00  0.00     0.159 C 
HETATM    6  N2  UNL     1      23.981  24.164  19.562  1.00  0.00    -0.347 N 
ATOM      7  H2  UNL     1      23.247  24.076  18.859  1.00  0.00     0.163 HD
HETATM    8  C12 UNL     1      25.010  23.148  19.575  1.00  0.00     0.241 C 
HETATM    9  O2  UNL     1      24.801  22.054  18.939  1.00  0.00    -0.271 OA
HETATM   10  C13 UNL     1      26.301  23.272  20.268  1.00  0.00     0.181 C 
HETATM   11  N3  UNL     1      27.418  23.165  19.326  1.00  0.00    -0.337 N 
ATOM     12  H3  UNL     1      27.282  22.678  18.439  1.00  0.00     0.164 HD
HETATM   13  C18 UNL     1      28.677  23.724  19.625  1.00  0.00     0.297 C 
HETATM   14  O3  UNL     1      29.757  23.220  19.150  1.00  0.00    -0.258 OA
HETATM   15  C19 UNL     1      28.806  24.842  20.446  1.00  0.00    -0.006 C 
HETATM   16  C20 UNL     1      28.931  25.742  21.101  1.00  0.00    -0.095 C 
HETATM   17  C21 UNL     1      29.118  26.880  21.928  1.00  0.00     0.114 C 
HETATM   18  C22 UNL     1      29.447  28.064  21.007  1.00  0.00     0.135 C 
HETATM   19  N4  UNL     1      30.196  27.566  19.873  1.00  0.00    -0.358 N 
ATOM     20  H4  UNL     1      30.935  26.891  20.068  1.00  0.00     0.162 HD
HETATM   21  C23 UNL     1      30.002  27.924  18.523  1.00  0.00     0.240 C 
HETATM   22  O4  UNL     1      29.950  26.944  17.700  1.00  0.00    -0.271 OA
HETATM   23  C24 UNL     1      29.859  29.274  17.972  1.00  0.00     0.178 C 
HETATM   24  N6  UNL     1      28.650  29.981  18.290  1.00  0.00    -0.341 N 
HETATM   25  C29 UNL     1      28.826  31.283  18.996  1.00  0.00     0.153 C 
HETATM   26  C30 UNL     1      27.331  29.627  18.033  1.00  0.00     0.243 C 
HETATM   27  O5  UNL     1      26.541  29.760  19.054  1.00  0.00    -0.271 OA
HETATM   28  C31 UNL     1      26.661  29.137  16.829  1.00  0.00     0.180 C 
HETATM   29  N7  UNL     1      26.681  27.716  16.633  1.00  0.00    -0.346 N 
ATOM     30  H7  UNL     1      27.505  27.333  16.168  1.00  0.00     0.163 HD
HETATM   31  C35 UNL     1      25.680  26.784  17.016  1.00  0.00     0.241 C 
HETATM   32  O6  UNL     1      26.102  25.611  17.161  1.00  0.00    -0.271 OA
ENDROOT
BRANCH  23  33
HETATM   33  C25 UNL     1      31.097  30.078  18.400  1.00  0.00     0.035 C 
BRANCH  33  34
HETATM   34  C26 UNL     1      32.090  29.946  17.254  1.00  0.00     0.004 C 
BRANCH  34  35
HETATM   35  C27 UNL     1      31.412  29.991  15.913  1.00  0.00     0.027 C 
BRANCH  35  36
HETATM   36  C28 UNL     1      31.882  28.817  15.073  1.00  0.00     0.229 C 
BRANCH  36  37
HETATM   37  N5  UNL     1      30.759  27.904  14.809  1.00  0.00    -0.079 N 
ATOM     38  H53 UNL     1      30.230  27.695  15.655  1.00  0.00     0.274 HD
ATOM     39  H52 UNL     1      30.017  28.357  14.275  1.00  0.00     0.274 HD
ATOM     40  H51 UNL     1      31.097  27.058  14.351  1.00  0.00     0.274 HD
ENDBRANCH  36  37
ENDBRANCH  35  36
ENDBRANCH  34  35
ENDBRANCH  33  34
ENDBRANCH  23  33
BRANCH  28  41
HETATM   41  C32 UNL     1      27.123  29.787  15.537  1.00  0.00     0.009 C 
HETATM   42  C33 UNL     1      26.987  28.805  14.373  1.00  0.00     0.012 C 
HETATM   43  C34 UNL     1      26.285  30.994  15.169  1.00  0.00     0.012 C 
ENDBRANCH  28  41
BRANCH   1  44
HETATM   44  C4  UNL     1      23.382  26.139  16.373  1.00  0.00     0.035 C 
BRANCH  44  45
HETATM   45  C3  UNL     1      22.645  26.973  15.341  1.00  0.00     0.002 C 
BRANCH  45  46
HETATM   46  C2  UNL     1      21.356  27.485  15.941  1.00  0.00    -0.004 C 
HETATM   47  C1  UNL     1      20.317  27.522  14.855  1.00  0.00     0.005 C 
ENDBRANCH  45  46
ENDBRANCH  44  45
ENDBRANCH   1  44
BRANCH   4  48
HETATM   48  O1  UNL     1      24.717  27.412  20.640  1.00  0.00    -0.348 OA
ATOM     49  H1  UNL     1      24.888  27.062  21.506  1.00  0.00     0.219 HD
ENDBRANCH   4  48
BRANCH  10  50
HETATM   50  C14 UNL     1      26.572  22.244  21.324  1.00  0.00     0.013 C 
HETATM   51  C15 UNL     1      27.458  21.142  20.833  1.00  0.00     0.012 C 
BRANCH  50  52
HETATM   52  C16 UNL     1      27.133  22.768  22.605  1.00  0.00     0.002 C 
HETATM   53  C17 UNL     1      26.198  23.920  23.028  1.00  0.00     0.005 C 
ENDBRANCH  50  52
ENDBRANCH  10  50
BRANCH   5  54
HETATM   54  C8  UNL     1      22.571  25.311  21.144  1.00  0.00     0.037 C 
BRANCH  54  55
HETATM   55  C9  UNL     1      21.419  24.629  20.556  1.00  0.00    -0.020 C 
HETATM   56  C10 UNL     1      20.649  25.322  19.469  1.00  0.00     0.009 C 
HETATM   57  C11 UNL     1      20.387  24.412  21.687  1.00  0.00     0.009 C 
ENDBRANCH  54  55
ENDBRANCH   5  54
TORSDOF 14
ENDMDL
MODEL 4
REMARK VINA RESULT: -4.777589615      1.233      1.347
REMARK  14 active torsions:
REMARK  status: ('A' for Active; 'I' for Inactive)
REMARK    1  A    between atoms: C2_2  and  C3_3 
REMARK    2  A    between atoms: C3_3  and  C4_4 
REMARK    3  A    between atoms: C4_4  and  C5_5 
REMARK    4  A    between atoms: C6_8  and  O1_9 
REMARK    5  A    between atoms: C7_11  and  C8_12 
REMARK    6  A    between atoms: C8_12  and  C9_13 
REMARK    7  A    between atoms: C13_20  and  C14_21 
REMARK    8  A    between atoms: C14_21  and  C16_23 
REMARK    9  A    between atoms: C24_37  and  C25_38 
REMARK   10  A    between atoms: C25_38  and  C26_39 
REMARK   11  A    between atoms: C26_39  and  C27_40 
REMARK   12  A    between atoms: C27_40  and  C28_41 
REMARK   13  A    between atoms: C28_41  and  N5_42 
REMARK   14  A    between atoms: C31_50  and  C32_51 
ROOT
HETATM    1  C5  UNL     1      25.572  26.627  17.107  1.00  0.00     0.175 C 
HETATM    2  N1  UNL     1      26.846  26.320  16.539  1.00  0.00    -0.359 N 
ATOM      3  H1  UNL     1      26.759  25.634  15.789  1.00  0.00     0.162 HD
HETATM    4  C6  UNL     1      28.150  26.688  16.721  1.00  0.00     0.135 C 
HETATM    5  C7  UNL     1      28.933  27.920  16.378  1.00  0.00     0.159 C 
HETATM    6  N2  UNL     1      28.224  29.134  16.448  1.00  0.00    -0.347 N 
ATOM      7  H2  UNL     1      27.478  29.280  15.768  1.00  0.00     0.163 HD
HETATM    8  C12 UNL     1      28.465  30.193  17.403  1.00  0.00     0.241 C 
HETATM    9  O2  UNL     1      27.969  31.353  17.173  1.00  0.00    -0.271 OA
HETATM   10  C13 UNL     1      29.247  30.043  18.640  1.00  0.00     0.181 C 
HETATM   11  N3  UNL     1      28.430  30.343  19.818  1.00  0.00    -0.337 N 
ATOM     12  H3  UNL     1      27.609  30.942  19.722  1.00  0.00     0.164 HD
HETATM   13  C18 UNL     1      28.760  29.817  21.084  1.00  0.00     0.297 C 
HETATM   14  O3  UNL     1      28.455  30.442  22.162  1.00  0.00    -0.258 OA
HETATM   15  C19 UNL     1      29.430  28.603  21.221  1.00  0.00    -0.006 C 
HETATM   16  C20 UNL     1      29.965  27.628  21.353  1.00  0.00    -0.095 C 
HETATM   17  C21 UNL     1      30.643  26.397  21.549  1.00  0.00     0.114 C 
HETATM   18  C22 UNL     1      29.602  25.374  22.028  1.00  0.00     0.135 C 
HETATM   19  N4  UNL     1      28.616  26.068  22.830  1.00  0.00    -0.358 N 
ATOM     20  H4  UNL     1      28.967  26.748  23.504  1.00  0.00     0.162 HD
HETATM   21  C23 UNL     1      27.219  25.893  22.769  1.00  0.00     0.240 C 
HETATM   22  O4  UNL     1      26.535  26.976  22.718  1.00  0.00    -0.271 OA
HETATM   23  C24 UNL     1      26.479  24.629  22.761  1.00  0.00     0.178 C 
HETATM   24  N6  UNL     1      26.590  23.820  21.580  1.00  0.00    -0.341 N 
HETATM   25  C29 UNL     1      27.125  22.442  21.785  1.00  0.00     0.153 C 
HETATM   26  C30 UNL     1      26.268  24.133  20.264  1.00  0.00     0.243 C 
HETATM   27  O5  UNL     1      27.188  23.814  19.406  1.00  0.00    -0.271 OA
HETATM   28  C31 UNL     1      25.087  24.751  19.662  1.00  0.00     0.180 C 
HETATM   29  N7  UNL     1      25.089  26.185  19.603  1.00  0.00    -0.346 N 
ATOM     30  H7  UNL     1      24.755  26.674  20.434  1.00  0.00     0.163 HD
HETATM   31  C35 UNL     1      25.505  26.996  18.515  1.00  0.00     0.241 C 
HETATM   32  O6  UNL     1      25.845  28.159  18.845  1.00  0.00    -0.271 OA
ENDROOT
BRANCH  23  33
HETATM   33  C25 UNL     1      26.901  23.842  24.011  1.00  0.00     0.035 C 
BRANCH  33  34
HETATM   34  C26 UNL     1      26.242  24.550  25.186  1.00  0.00     0.004 C 
BRANCH  34  35
HETATM   35  C27 UNL     1      26.915  24.225  26.491  1.00  0.00     0.027 C 
BRANCH  35  36
HETATM   36  C28 UNL     1      26.024  24.662  27.639  1.00  0.00     0.229 C 
BRANCH  36  37
HETATM   37  N5  UNL     1      24.724  23.979  27.557  1.00  0.00    -0.079 N 
ATOM     38  H53 UNL     1      24.602  23.299  28.308  1.00  0.00     0.274 HD
ATOM     39  H52 UNL     1      23.950  24.601  27.791  1.00  0.00     0.274 HD
ATOM     40  H51 UNL     1      24.609  23.555  26.636  1.00  0.00     0.274 HD
ENDBRANCH  36  37
ENDBRANCH  35  36
ENDBRANCH  34  35
ENDBRANCH  33  34
ENDBRANCH  23  33
BRANCH  28  41
HETATM   41  C32 UNL     1      23.764  24.316  20.267  1.00  0.00     0.009 C 
HETATM   42  C33 UNL     1      22.609  25.070  19.610  1.00  0.00     0.012 C 
HETATM   43  C34 UNL     1      23.487  22.844  20.046  1.00  0.00     0.012 C 
ENDBRANCH  28  41
BRANCH   1  44
HETATM   44  C4  UNL     1      24.755  27.599  16.237  1.00  0.00     0.035 C 
BRANCH  44  45
HETATM   45  C3  UNL     1      23.456  26.942  15.810  1.00  0.00     0.002 C 
BRANCH  45  46
HETATM   46  C2  UNL     1      22.309  27.555  16.580  1.00  0.00    -0.004 C 
HETATM   47  C1  UNL     1      21.113  27.614  15.670  1.00  0.00     0.005 C 
ENDBRANCH  45  46
ENDBRANCH  44  45
ENDBRANCH   1  44
BRANCH   4  48
HETATM   48  O1  UNL     1      28.911  25.811  17.310  1.00  0.00    -0.348 OA
ATOM     49  H1  UNL     1      29.846  25.953  17.228  1.00  0.00     0.219 HD
ENDBRANCH   4  48
BRANCH  10  50
HETATM   50  C14 UNL     1      30.453  30.925  18.756  1.00  0.00     0.013 C 
HETATM   51  C15 UNL     1      31.236  30.990  17.482  1.00  0.00     0.012 C 
BRANCH  50  52
HETATM   52  C16 UNL     1      30.190  32.318  19.224  1.00  0.00     0.002 C 
HETATM   53  C17 UNL     1      31.220  32.581  20.343  1.00  0.00     0.005 C 
ENDBRANCH  50  52
ENDBRANCH  10  50
BRANCH   5  54
HETATM   54  C8  UNL     1      29.504  27.700  14.995  1.00  0.00     0.037 C 
BRANCH  54  55
HETATM   55  C9  UNL     1      30.895  27.275  14.847  1.00  0.00    -0.020 C 
HETATM   56  C10 UNL     1      31.185  25.817  14.635  1.00  0.00     0.009 C 
HETATM   57  C11 UNL     1      31.626  27.631  16.163  1.00  0.00     0.009 C 
ENDBRANCH  54  55
ENDBRANCH   5  54
TORSDOF 14
ENDMDL
MODEL 5
REMARK VINA RESULT: -4.673190993      2.670      5.961
REMARK  14 active torsions:
REMARK  status: ('A' for Active; 'I' for Inactive)
REMARK    1  A    between atoms: C2_2  and  C3_3 
REMARK    2  A    between atoms: C3_3  and  C4_4 
REMARK    3  A    between atoms: C4_4  and  C5_5 
REMARK    4  A    between atoms: C6_8  and  O1_9 
REMARK    5  A    between atoms: C7_11  and  C8_12 
REMARK    6  A    between atoms: C8_12  and  C9_13 
REMARK    7  A    between atoms: C13_20  and  C14_21 
REMARK    8  A    between atoms: C14_21  and  C16_23 
REMARK    9  A    between atoms: C24_37  and  C25_38 
REMARK   10  A    between atoms: C25_38  and  C26_39 
REMARK   11  A    between atoms: C26_39  and  C27_40 
REMARK   12  A    between atoms: C27_40  and  C28_41 
REMARK   13  A    between atoms: C28_41  and  N5_42 
REMARK   14  A    between atoms: C31_50  and  C32_51 
ROOT
HETATM    1  C5  UNL     1      29.160  26.003  17.737  1.00  0.00     0.175 C 
HETATM    2  N1  UNL     1      28.824  27.271  18.303  1.00  0.00    -0.359 N 
ATOM      3  H1  UNL     1      29.589  27.937  18.193  1.00  0.00     0.162 HD
HETATM    4  C6  UNL     1      27.763  27.841  18.951  1.00  0.00     0.135 C 
HETATM    5  C7  UNL     1      26.418  28.327  18.500  1.00  0.00     0.159 C 
HETATM    6  N2  UNL     1      25.825  27.599  17.451  1.00  0.00    -0.347 N 
ATOM      7  H2  UNL     1      26.275  27.646  16.537  1.00  0.00     0.163 HD
HETATM    8  C12 UNL     1      24.630  26.792  17.561  1.00  0.00     0.241 C 
HETATM    9  O2  UNL     1      24.029  26.436  16.485  1.00  0.00    -0.271 OA
HETATM   10  C13 UNL     1      24.040  26.338  18.829  1.00  0.00     0.181 C 
HETATM   11  N3  UNL     1      23.990  24.875  18.892  1.00  0.00    -0.337 N 
ATOM     12  H3  UNL     1      23.989  24.334  18.027  1.00  0.00     0.164 HD
HETATM   13  C18 UNL     1      23.945  24.203  20.131  1.00  0.00     0.297 C 
HETATM   14  O3  UNL     1      23.374  23.060  20.245  1.00  0.00    -0.258 OA
HETATM   15  C19 UNL     1      24.514  24.747  21.280  1.00  0.00    -0.006 C 
HETATM   16  C20 UNL     1      24.968  25.165  22.215  1.00  0.00    -0.095 C 
HETATM   17  C21 UNL     1      25.533  25.672  23.415  1.00  0.00     0.114 C 
HETATM   18  C22 UNL     1      26.823  24.883  23.680  1.00  0.00     0.135 C 
HETATM   19  N4  UNL     1      26.637  23.529  23.201  1.00  0.00    -0.358 N 
ATOM     20  H4  UNL     1      25.747  23.081  23.419  1.00  0.00     0.162 HD
HETATM   21  C23 UNL     1      27.568  22.770  22.462  1.00  0.00     0.240 C 
HETATM   22  O4  UNL     1      27.093  22.179  21.430  1.00  0.00    -0.271 OA
HETATM   23  C24 UNL     1      28.993  22.588  22.746  1.00  0.00     0.178 C 
HETATM   24  N6  UNL     1      29.843  23.731  22.564  1.00  0.00    -0.341 N 
HETATM   25  C29 UNL     1      30.602  24.174  23.769  1.00  0.00     0.153 C 
HETATM   26  C30 UNL     1      30.065  24.489  21.420  1.00  0.00     0.243 C 
HETATM   27  O5  UNL     1      30.000  25.770  21.617  1.00  0.00    -0.271 OA
HETATM   28  C31 UNL     1      30.361  24.118  20.037  1.00  0.00     0.180 C 
HETATM   29  N7  UNL     1      29.226  23.874  19.195  1.00  0.00    -0.346 N 
ATOM     30  H7  UNL     1      28.834  22.932  19.222  1.00  0.00     0.163 HD
HETATM   31  C35 UNL     1      28.587  24.800  18.328  1.00  0.00     0.241 C 
HETATM   32  O6  UNL     1      27.394  24.514  18.064  1.00  0.00    -0.271 OA
ENDROOT
BRANCH  23  33
HETATM   33  C25 UNL     1      29.110  22.036  24.176  1.00  0.00     0.035 C 
BRANCH  33  34
HETATM   34  C26 UNL     1      28.725  20.566  24.083  1.00  0.00     0.004 C 
BRANCH  34  35
HETATM   35  C27 UNL     1      27.843  20.140  25.224  1.00  0.00     0.027 C 
BRANCH  35  36
HETATM   36  C28 UNL     1      27.636  18.638  25.166  1.00  0.00     0.229 C 
BRANCH  36  37
HETATM   37  N5  UNL     1      27.691  18.174  23.771  1.00  0.00    -0.079 N 
ATOM     38  H53 UNL     1      27.801  17.162  23.709  1.00  0.00     0.274 HD
ATOM     39  H52 UNL     1      26.787  18.255  23.306  1.00  0.00     0.274 HD
ATOM     40  H51 UNL     1      28.425  18.670  23.266  1.00  0.00     0.274 HD
ENDBRANCH  36  37
ENDBRANCH  35  36
ENDBRANCH  34  35
ENDBRANCH  33  34
ENDBRANCH  23  33
BRANCH  28  41
HETATM   41  C32 UNL     1      31.310  22.942  19.884  1.00  0.00     0.009 C 
HETATM   42  C33 UNL     1      30.521  21.638  19.775  1.00  0.00     0.012 C 
HETATM   43  C34 UNL     1      32.145  23.037  18.625  1.00  0.00     0.012 C 
ENDBRANCH  28  41
BRANCH   1  44
HETATM   44  C4  UNL     1      29.030  25.985  16.204  1.00  0.00     0.035 C 
BRANCH  44  45
HETATM   45  C3  UNL     1      28.980  27.405  15.673  1.00  0.00     0.002 C 
BRANCH  45  46
HETATM   46  C2  UNL     1      30.133  27.623  14.721  1.00  0.00    -0.004 C 
HETATM   47  C1  UNL     1      29.760  28.737  13.782  1.00  0.00     0.005 C 
ENDBRANCH  45  46
ENDBRANCH  44  45
ENDBRANCH   1  44
BRANCH   4  48
HETATM   48  O1  UNL     1      27.911  28.021  20.231  1.00  0.00    -0.348 OA
ATOM     49  H1  UNL     1      27.133  27.893  20.760  1.00  0.00     0.219 HD
ENDBRANCH   4  48
BRANCH  10  50
HETATM   50  C14 UNL     1      22.637  26.795  19.092  1.00  0.00     0.013 C 
HETATM   51  C15 UNL     1      21.620  25.770  18.697  1.00  0.00     0.012 C 
BRANCH  50  52
HETATM   52  C16 UNL     1      22.352  27.231  20.491  1.00  0.00     0.002 C 
HETATM   53  C17 UNL     1      21.117  26.420  20.936  1.00  0.00     0.005 C 
ENDBRANCH  50  52
ENDBRANCH  10  50
BRANCH   5  54
HETATM   54  C8  UNL     1      26.586  29.783  18.129  1.00  0.00     0.037 C 
BRANCH  54  55
HETATM   55  C9  UNL     1      26.694  30.162  16.722  1.00  0.00    -0.020 C 
HETATM   56  C10 UNL     1      27.916  30.907  16.267  1.00  0.00     0.009 C 
HETATM   57  C11 UNL     1      25.517  31.117  16.411  1.00  0.00     0.009 C 
ENDBRANCH  54  55
ENDBRANCH   5  54
TORSDOF 14
ENDMDL
