MODEL 1
REMARK VINA RESULT: -6.877050829      0.000      0.000
REMARK  14 active torsions:
REMARK  status: ('A' for Active; 'I' for Inactive)
REMARK    1  A    between atoms: C2_2  and  C3_3 
REMARK    2  A    between atoms: C3_3  and  C4_4 
REMARK    3  A    between atoms: C4_4  and  N1_5 
REMARK       I    between atoms: N1_5  and  C5_7 
REMARK    4  A    between atoms: C5_7  and  C6_9 
REMARK    5  A    between atoms: C9_12  and  O2_13 
REMARK    6  A    between atoms: C16_26  and  C17_27 
REMARK    7  A    between atoms: C17_27  and  C18_28 
REMARK    8  A    between atoms: C22_35  and  C23_36 
REMARK    9  A    between atoms: C23_36  and  C24_37 
REMARK   10  A    between atoms: C27_40  and  O5_41 
REMARK   11  A    between atoms: C28_45  and  C29_46 
REMARK   12  A    between atoms: C29_46  and  C31_48 
REMARK   13  A    between atoms: C33_50  and  O6_51 
REMARK   14  A    between atoms: N6_53  and  C34_54 
ROOT
HETATM    1  C6  UNL     1      16.535  22.463  18.270  1.00  0.00     0.189 C 
HETATM    2  C7  UNL     1      16.592  21.042  18.686  1.00  0.00     0.088 C 
HETATM    3  C8  UNL     1      17.005  20.026  17.709  1.00  0.00     0.021 C 
HETATM    4  C9  UNL     1      15.354  20.623  19.388  1.00  0.00     0.117 C 
HETATM    5  N2  UNL     1      14.851  19.393  19.737  1.00  0.00    -0.369 N 
ATOM      6  H2  UNL     1      14.746  19.269  20.744  1.00  0.00     0.161 HD
HETATM    7  C10 UNL     1      14.441  18.242  18.973  1.00  0.00     0.096 C 
HETATM    8  C11 UNL     1      15.349  17.057  19.344  1.00  0.00     0.033 C 
HETATM    9  C12 UNL     1      12.985  17.847  19.303  1.00  0.00     0.053 C 
HETATM   10  C13 UNL     1      12.749  16.454  18.826  1.00  0.00     0.027 C 
HETATM   11  C14 UNL     1      12.977  17.756  20.840  1.00  0.00     0.027 C 
HETATM   12  C15 UNL     1      12.057  18.852  18.819  1.00  0.00     0.228 C 
HETATM   13  O3  UNL     1      11.810  19.793  19.664  1.00  0.00    -0.273 OA
HETATM   14  N3  UNL     1      11.388  18.965  17.594  1.00  0.00    -0.347 N 
ATOM     15  H3  UNL     1      10.505  19.474  17.636  1.00  0.00     0.163 HD
HETATM   16  C16 UNL     1      11.736  18.491  16.308  1.00  0.00     0.177 C 
HETATM   17  C21 UNL     1      12.676  19.348  15.543  1.00  0.00     0.244 C 
HETATM   18  O4  UNL     1      12.979  18.870  14.390  1.00  0.00    -0.271 OA
HETATM   19  N4  UNL     1      13.273  20.560  15.872  1.00  0.00    -0.325 N 
ATOM     20  H4  UNL     1      14.290  20.522  15.937  1.00  0.00     0.169 HD
HETATM   21  C22 UNL     1      12.712  21.853  16.134  1.00  0.00     0.063 C 
HETATM   22  C27 UNL     1      13.554  23.013  15.862  1.00  0.00     0.159 C 
HETATM   23  N5  UNL     1      14.670  23.255  15.079  1.00  0.00    -0.357 N 
ATOM     24  H5  UNL     1      14.601  24.147  14.589  1.00  0.00     0.162 HD
HETATM   25  C28 UNL     1      15.870  22.591  14.784  1.00  0.00     0.162 C 
HETATM   26  C33 UNL     1      16.996  22.632  15.743  1.00  0.00     0.138 C 
HETATM   27  N6  UNL     1      17.198  22.910  17.077  1.00  0.00    -0.350 N 
ENDROOT
BRANCH   1  28
HETATM   28  C5  UNL     1      16.874  23.275  19.482  1.00  0.00     0.241 C 
HETATM   29  N1  UNL     1      17.984  23.063  20.306  1.00  0.00    -0.359 N 
ATOM     30  H1  UNL     1      18.624  22.302  20.081  1.00  0.00     0.162 HD
HETATM   31  O1  UNL     1      16.088  24.214  19.761  1.00  0.00    -0.271 OA
BRANCH  29  32
HETATM   32  C4  UNL     1      18.255  23.879  21.457  1.00  0.00     0.122 C 
BRANCH  32  33
HETATM   33  C3  UNL     1      19.731  23.946  21.754  1.00  0.00     0.019 C 
BRANCH  33  34
HETATM   34  C2  UNL     1      20.344  22.613  21.342  1.00  0.00    -0.003 C 
HETATM   35  C1  UNL     1      21.748  22.928  20.830  1.00  0.00     0.005 C 
ENDBRANCH  33  34
ENDBRANCH  32  33
ENDBRANCH  29  32
ENDBRANCH   1  28
BRANCH  27  36
HETATM   36  C34 UNL     1      18.335  23.829  17.367  1.00  0.00     0.121 C 
HETATM   37  C35 UNL     1      17.982  25.249  16.900  1.00  0.00     0.026 C 
ENDBRANCH  27  36
BRANCH   4  38
HETATM   38  O2  UNL     1      14.610  21.645  19.732  1.00  0.00    -0.349 OA
ATOM     39  H2  UNL     1      13.704  21.537  19.465  1.00  0.00     0.219 HD
ENDBRANCH   4  38
BRANCH  26  40
HETATM   40  O6  UNL     1      18.133  22.311  15.153  1.00  0.00    -0.348 OA
ATOM     41  H6  UNL     1      18.063  21.472  14.712  1.00  0.00     0.219 HD
ENDBRANCH  26  40
BRANCH  25  42
HETATM   42  C29 UNL     1      16.441  23.186  13.451  1.00  0.00     0.012 C 
HETATM   43  C30 UNL     1      15.572  22.916  12.284  1.00  0.00     0.012 C 
BRANCH  42  44
HETATM   44  C31 UNL     1      16.818  24.626  13.621  1.00  0.00     0.002 C 
HETATM   45  C32 UNL     1      17.580  25.063  12.358  1.00  0.00     0.005 C 
ENDBRANCH  42  44
ENDBRANCH  25  42
BRANCH  22  46
HETATM   46  O5  UNL     1      13.149  24.067  16.520  1.00  0.00    -0.345 OA
ATOM     47  H5  UNL     1      12.720  24.693  15.948  1.00  0.00     0.219 HD
ENDBRANCH  22  46
BRANCH  21  48
HETATM   48  C23 UNL     1      11.317  22.111  15.726  1.00  0.00     0.065 C 
BRANCH  48  49
HETATM   49  C24 UNL     1      10.984  22.193  14.293  1.00  0.00    -0.017 C 
HETATM   50  C25 UNL     1       9.934  21.221  13.812  1.00  0.00     0.010 C 
HETATM   51  C26 UNL     1      12.209  21.962  13.399  1.00  0.00     0.010 C 
ENDBRANCH  48  49
ENDBRANCH  21  48
BRANCH  16  52
HETATM   52  C17 UNL     1      10.558  18.231  15.410  1.00  0.00     0.038 C 
BRANCH  52  53
HETATM   53  C18 UNL     1      10.264  16.830  15.053  1.00  0.00    -0.020 C 
HETATM   54  C19 UNL     1      11.215  15.785  15.513  1.00  0.00     0.009 C 
HETATM   55  C20 UNL     1       9.940  16.660  13.582  1.00  0.00     0.009 C 
ENDBRANCH  52  53
ENDBRANCH  16  52
TORSDOF 14
ENDMDL
MODEL 2
REMARK VINA RESULT: -6.221767489      9.263     13.370
REMARK  14 active torsions:
REMARK  status: ('A' for Active; 'I' for Inactive)
REMARK    1  A    between atoms: C2_2  and  C3_3 
REMARK    2  A    between atoms: C3_3  and  C4_4 
REMARK    3  A    between atoms: C4_4  and  N1_5 
REMARK       I    between atoms: N1_5  and  C5_7 
REMARK    4  A    between atoms: C5_7  and  C6_9 
REMARK    5  A    between atoms: C9_12  and  O2_13 
REMARK    6  A    between atoms: C16_26  and  C17_27 
REMARK    7  A    between atoms: C17_27  and  C18_28 
REMARK    8  A    between atoms: C22_35  and  C23_36 
REMARK    9  A    between atoms: C23_36  and  C24_37 
REMARK   10  A    between atoms: C27_40  and  O5_41 
REMARK   11  A    between atoms: C28_45  and  C29_46 
REMARK   12  A    between atoms: C29_46  and  C31_48 
REMARK   13  A    between atoms: C33_50  and  O6_51 
REMARK   14  A    between atoms: N6_53  and  C34_54 
ROOT
HETATM    1  C6  UNL     1      27.778  25.199  21.392  1.00  0.00     0.189 C 
HETATM    2  C7  UNL     1      26.583  24.326  21.311  1.00  0.00     0.088 C 
HETATM    3  C8  UNL     1      26.418  23.443  20.149  1.00  0.00     0.021 C 
HETATM    4  C9  UNL     1      25.333  25.079  21.581  1.00  0.00     0.117 C 
HETATM    5  N2  UNL     1      24.005  24.777  21.395  1.00  0.00    -0.369 N 
ATOM      6  H2  UNL     1      23.469  24.757  22.263  1.00  0.00     0.161 HD
HETATM    7  C10 UNL     1      23.215  24.484  20.227  1.00  0.00     0.096 C 
HETATM    8  C11 UNL     1      22.672  23.049  20.347  1.00  0.00     0.033 C 
HETATM    9  C12 UNL     1      22.008  25.442  20.120  1.00  0.00     0.053 C 
HETATM   10  C13 UNL     1      21.019  24.858  19.168  1.00  0.00     0.027 C 
HETATM   11  C14 UNL     1      21.345  25.342  21.505  1.00  0.00     0.027 C 
HETATM   12  C15 UNL     1      22.448  26.794  19.831  1.00  0.00     0.228 C 
HETATM   13  O3  UNL     1      22.696  27.503  20.878  1.00  0.00    -0.273 OA
HETATM   14  N3  UNL     1      22.644  27.451  18.609  1.00  0.00    -0.347 N 
ATOM     15  H3  UNL     1      22.534  28.465  18.649  1.00  0.00     0.163 HD
HETATM   16  C16 UNL     1      22.969  26.942  17.331  1.00  0.00     0.177 C 
HETATM   17  C21 UNL     1      24.411  26.686  17.092  1.00  0.00     0.244 C 
HETATM   18  O4  UNL     1      24.658  26.206  15.928  1.00  0.00    -0.271 OA
HETATM   19  N4  UNL     1      25.515  26.876  17.916  1.00  0.00    -0.325 N 
ATOM     20  H4  UNL     1      26.010  26.018  18.159  1.00  0.00     0.169 HD
HETATM   21  C22 UNL     1      26.083  28.065  18.483  1.00  0.00     0.063 C 
HETATM   22  C27 UNL     1      27.511  28.045  18.781  1.00  0.00     0.159 C 
HETATM   23  N5  UNL     1      28.593  27.296  18.354  1.00  0.00    -0.357 N 
ATOM     24  H5  UNL     1      29.414  27.879  18.187  1.00  0.00     0.162 HD
HETATM   25  C28 UNL     1      28.855  25.943  18.090  1.00  0.00     0.162 C 
HETATM   26  C33 UNL     1      29.124  25.008  19.205  1.00  0.00     0.138 C 
HETATM   27  N6  UNL     1      28.929  24.952  20.568  1.00  0.00    -0.350 N 
ENDROOT
BRANCH   1  28
HETATM   28  C5  UNL     1      28.105  25.341  22.847  1.00  0.00     0.241 C 
HETATM   29  N1  UNL     1      28.411  26.545  23.487  1.00  0.00    -0.359 N 
ATOM     30  H1  UNL     1      28.418  27.405  22.938  1.00  0.00     0.162 HD
HETATM   31  O1  UNL     1      28.096  24.284  23.526  1.00  0.00    -0.271 OA
BRANCH  29  32
HETATM   32  C4  UNL     1      28.716  26.616  24.889  1.00  0.00     0.122 C 
BRANCH  32  33
HETATM   33  C3  UNL     1      27.660  27.378  25.649  1.00  0.00     0.019 C 
BRANCH  33  34
HETATM   34  C2  UNL     1      26.880  26.370  26.486  1.00  0.00    -0.003 C 
HETATM   35  C1  UNL     1      25.647  25.998  25.665  1.00  0.00     0.005 C 
ENDBRANCH  33  34
ENDBRANCH  32  33
ENDBRANCH  29  32
ENDBRANCH   1  28
BRANCH  27  36
HETATM   36  C34 UNL     1      30.119  24.534  21.362  1.00  0.00     0.121 C 
HETATM   37  C35 UNL     1      31.232  25.582  21.215  1.00  0.00     0.026 C 
ENDBRANCH  27  36
BRANCH   4  38
HETATM   38  O2  UNL     1      25.567  26.260  22.098  1.00  0.00    -0.349 OA
ATOM     39  H2  UNL     1      25.095  26.950  21.646  1.00  0.00     0.219 HD
ENDBRANCH   4  38
BRANCH  26  40
HETATM   40  O6  UNL     1      29.721  23.913  18.772  1.00  0.00    -0.348 OA
ATOM     41  H6  UNL     1      29.440  23.697  17.891  1.00  0.00     0.219 HD
ENDBRANCH  26  40
BRANCH  25  42
HETATM   42  C29 UNL     1      30.120  25.861  17.169  1.00  0.00     0.012 C 
HETATM   43  C30 UNL     1      29.782  25.870  15.729  1.00  0.00     0.012 C 
BRANCH  42  44
HETATM   44  C31 UNL     1      31.145  26.879  17.570  1.00  0.00     0.002 C 
HETATM   45  C32 UNL     1      31.473  27.728  16.329  1.00  0.00     0.005 C 
ENDBRANCH  42  44
ENDBRANCH  25  42
BRANCH  22  46
HETATM   46  O5  UNL     1      27.831  28.955  19.663  1.00  0.00    -0.345 OA
ATOM     47  H5  UNL     1      28.283  28.577  20.408  1.00  0.00     0.219 HD
ENDBRANCH  22  46
BRANCH  21  48
HETATM   48  C23 UNL     1      25.682  29.371  17.924  1.00  0.00     0.065 C 
BRANCH  48  49
HETATM   49  C24 UNL     1      26.533  30.018  16.910  1.00  0.00    -0.017 C 
HETATM   50  C25 UNL     1      26.337  31.506  16.750  1.00  0.00     0.010 C 
HETATM   51  C26 UNL     1      26.330  29.417  15.514  1.00  0.00     0.010 C 
ENDBRANCH  48  49
ENDBRANCH  21  48
BRANCH  16  52
HETATM   52  C17 UNL     1      22.485  27.792  16.190  1.00  0.00     0.038 C 
BRANCH  52  53
HETATM   53  C18 UNL     1      21.172  27.465  15.600  1.00  0.00    -0.020 C 
HETATM   54  C19 UNL     1      20.215  26.688  16.429  1.00  0.00     0.009 C 
HETATM   55  C20 UNL     1      21.290  26.875  14.209  1.00  0.00     0.009 C 
ENDBRANCH  52  53
ENDBRANCH  16  52
TORSDOF 14
ENDMDL
MODEL 3
REMARK VINA RESULT: -6.210127788      9.365     13.465
REMARK  14 active torsions:
REMARK  status: ('A' for Active; 'I' for Inactive)
REMARK    1  A    between atoms: C2_2  and  C3_3 
REMARK    2  A    between atoms: C3_3  and  C4_4 
REMARK    3  A    between atoms: C4_4  and  N1_5 
REMARK       I    between atoms: N1_5  and  C5_7 
REMARK    4  A    between atoms: C5_7  and  C6_9 
REMARK    5  A    between atoms: C9_12  and  O2_13 
REMARK    6  A    between atoms: C16_26  and  C17_27 
REMARK    7  A    between atoms: C17_27  and  C18_28 
REMARK    8  A    between atoms: C22_35  and  C23_36 
REMARK    9  A    between atoms: C23_36  and  C24_37 
REMARK   10  A    between atoms: C27_40  and  O5_41 
REMARK   11  A    between atoms: C28_45  and  C29_46 
REMARK   12  A    between atoms: C29_46  and  C31_48 
REMARK   13  A    between atoms: C33_50  and  O6_51 
REMARK   14  A    between atoms: N6_53  and  C34_54 
ROOT
HETATM    1  C6  UNL     1      27.905  24.965  21.401  1.00  0.00     0.189 C 
HETATM    2  C7  UNL     1      26.693  24.119  21.302  1.00  0.00     0.088 C 
HETATM    3  C8  UNL     1      26.502  23.275  20.115  1.00  0.00     0.021 C 
HETATM    4  C9  UNL     1      25.460  24.887  21.604  1.00  0.00     0.117 C 
HETATM    5  N2  UNL     1      24.125  24.617  21.419  1.00  0.00    -0.369 N 
ATOM      6  H2  UNL     1      23.594  24.581  22.290  1.00  0.00     0.161 HD
HETATM    7  C10 UNL     1      23.321  24.375  20.248  1.00  0.00     0.096 C 
HETATM    8  C11 UNL     1      22.750  22.948  20.330  1.00  0.00     0.033 C 
HETATM    9  C12 UNL     1      22.133  25.359  20.179  1.00  0.00     0.053 C 
HETATM   10  C13 UNL     1      21.125  24.824  19.217  1.00  0.00     0.027 C 
HETATM   11  C14 UNL     1      21.478  25.230  21.566  1.00  0.00     0.027 C 
HETATM   12  C15 UNL     1      22.597  26.711  19.928  1.00  0.00     0.228 C 
HETATM   13  O3  UNL     1      22.867  27.383  20.995  1.00  0.00    -0.273 OA
HETATM   14  N3  UNL     1      22.798  27.401  18.726  1.00  0.00    -0.347 N 
ATOM     15  H3  UNL     1      22.708  28.415  18.797  1.00  0.00     0.163 HD
HETATM   16  C16 UNL     1      23.104  26.924  17.430  1.00  0.00     0.177 C 
HETATM   17  C21 UNL     1      24.539  26.648  17.173  1.00  0.00     0.244 C 
HETATM   18  O4  UNL     1      24.769  26.199  15.993  1.00  0.00    -0.271 OA
HETATM   19  N4  UNL     1      25.652  26.791  17.994  1.00  0.00    -0.325 N 
ATOM     20  H4  UNL     1      26.131  25.916  18.207  1.00  0.00     0.169 HD
HETATM   21  C22 UNL     1      26.247  27.951  18.592  1.00  0.00     0.063 C 
HETATM   22  C27 UNL     1      27.676  27.894  18.879  1.00  0.00     0.159 C 
HETATM   23  N5  UNL     1      28.741  27.137  18.421  1.00  0.00    -0.357 N 
ATOM     24  H5  UNL     1      29.571  27.708  18.266  1.00  0.00     0.162 HD
HETATM   25  C28 UNL     1      28.974  25.787  18.115  1.00  0.00     0.162 C 
HETATM   26  C33 UNL     1      29.232  24.815  19.199  1.00  0.00     0.138 C 
HETATM   27  N6  UNL     1      29.045  24.721  20.561  1.00  0.00    -0.350 N 
ENDROOT
BRANCH   1  28
HETATM   28  C5  UNL     1      28.245  25.056  22.857  1.00  0.00     0.241 C 
HETATM   29  N1  UNL     1      28.267  23.976  23.745  1.00  0.00    -0.359 N 
ATOM     30  H1  UNL     1      28.038  23.046  23.394  1.00  0.00     0.162 HD
HETATM   31  O1  UNL     1      28.528  26.199  23.293  1.00  0.00    -0.271 OA
BRANCH  29  32
HETATM   32  C4  UNL     1      28.602  24.129  25.134  1.00  0.00     0.122 C 
BRANCH  32  33
HETATM   33  C3  UNL     1      28.481  22.824  25.880  1.00  0.00     0.019 C 
BRANCH  33  34
HETATM   34  C2  UNL     1      27.832  21.815  24.939  1.00  0.00    -0.003 C 
HETATM   35  C1  UNL     1      27.789  20.491  25.698  1.00  0.00     0.005 C 
ENDBRANCH  33  34
ENDBRANCH  32  33
ENDBRANCH  29  32
ENDBRANCH   1  28
BRANCH  27  36
HETATM   36  C34 UNL     1      30.232  24.255  21.333  1.00  0.00     0.121 C 
HETATM   37  C35 UNL     1      31.372  25.274  21.191  1.00  0.00     0.026 C 
ENDBRANCH  27  36
BRANCH   4  38
HETATM   38  O2  UNL     1      25.720  26.047  22.155  1.00  0.00    -0.349 OA
ATOM     39  H2  UNL     1      25.985  25.962  23.064  1.00  0.00     0.219 HD
ENDBRANCH   4  38
BRANCH  26  40
HETATM   40  O6  UNL     1      29.805  23.722  18.728  1.00  0.00    -0.348 OA
ATOM     41  H6  UNL     1      29.303  23.357  18.009  1.00  0.00     0.219 HD
ENDBRANCH  26  40
BRANCH  25  42
HETATM   42  C29 UNL     1      30.231  25.709  17.183  1.00  0.00     0.012 C 
HETATM   43  C30 UNL     1      29.888  25.823  15.748  1.00  0.00     0.012 C 
BRANCH  42  44
HETATM   44  C31 UNL     1      31.301  26.655  17.640  1.00  0.00     0.002 C 
HETATM   45  C32 UNL     1      32.100  27.093  16.400  1.00  0.00     0.005 C 
ENDBRANCH  42  44
ENDBRANCH  25  42
BRANCH  22  46
HETATM   46  O5  UNL     1      28.020  28.770  19.786  1.00  0.00    -0.345 OA
ATOM     47  H5  UNL     1      27.261  29.141  20.220  1.00  0.00     0.219 HD
ENDBRANCH  22  46
BRANCH  21  48
HETATM   48  C23 UNL     1      25.868  29.281  18.077  1.00  0.00     0.065 C 
BRANCH  48  49
HETATM   49  C24 UNL     1      26.696  29.919  17.038  1.00  0.00    -0.017 C 
HETATM   50  C25 UNL     1      26.646  31.427  17.001  1.00  0.00     0.010 C 
HETATM   51  C26 UNL     1      26.316  29.453  15.627  1.00  0.00     0.010 C 
ENDBRANCH  48  49
ENDBRANCH  21  48
BRANCH  16  52
HETATM   52  C17 UNL     1      22.629  27.818  16.319  1.00  0.00     0.038 C 
BRANCH  52  53
HETATM   53  C18 UNL     1      21.350  27.479  15.664  1.00  0.00    -0.020 C 
HETATM   54  C19 UNL     1      20.278  26.888  16.506  1.00  0.00     0.009 C 
HETATM   55  C20 UNL     1      21.543  26.680  14.391  1.00  0.00     0.009 C 
ENDBRANCH  52  53
ENDBRANCH  16  52
TORSDOF 14
ENDMDL
MODEL 4
REMARK VINA RESULT: -5.926793194      1.042      1.522
REMARK  14 active torsions:
REMARK  status: ('A' for Active; 'I' for Inactive)
REMARK    1  A    between atoms: C2_2  and  C3_3 
REMARK    2  A    between atoms: C3_3  and  C4_4 
REMARK    3  A    between atoms: C4_4  and  N1_5 
REMARK       I    between atoms: N1_5  and  C5_7 
REMARK    4  A    between atoms: C5_7  and  C6_9 
REMARK    5  A    between atoms: C9_12  and  O2_13 
REMARK    6  A    between atoms: C16_26  and  C17_27 
REMARK    7  A    between atoms: C17_27  and  C18_28 
REMARK    8  A    between atoms: C22_35  and  C23_36 
REMARK    9  A    between atoms: C23_36  and  C24_37 
REMARK   10  A    between atoms: C27_40  and  O5_41 
REMARK   11  A    between atoms: C28_45  and  C29_46 
REMARK   12  A    between atoms: C29_46  and  C31_48 
REMARK   13  A    between atoms: C33_50  and  O6_51 
REMARK   14  A    between atoms: N6_53  and  C34_54 
ROOT
HETATM    1  C6  UNL     1      15.908  22.374  17.620  1.00  0.00     0.189 C 
HETATM    2  C7  UNL     1      16.107  21.012  18.168  1.00  0.00     0.088 C 
HETATM    3  C8  UNL     1      16.524  19.931  17.266  1.00  0.00     0.021 C 
HETATM    4  C9  UNL     1      14.960  20.584  19.006  1.00  0.00     0.117 C 
HETATM    5  N2  UNL     1      14.581  19.365  19.515  1.00  0.00    -0.369 N 
ATOM      6  H2  UNL     1      14.561  19.340  20.535  1.00  0.00     0.161 HD
HETATM    7  C10 UNL     1      14.208  18.114  18.905  1.00  0.00     0.096 C 
HETATM    8  C11 UNL     1      15.231  17.041  19.317  1.00  0.00     0.033 C 
HETATM    9  C12 UNL     1      12.815  17.655  19.389  1.00  0.00     0.053 C 
HETATM   10  C13 UNL     1      12.654  16.206  19.073  1.00  0.00     0.027 C 
HETATM   11  C14 UNL     1      12.927  17.725  20.923  1.00  0.00     0.027 C 
HETATM   12  C15 UNL     1      11.778  18.536  18.886  1.00  0.00     0.228 C 
HETATM   13  O3  UNL     1      11.521  19.541  19.651  1.00  0.00    -0.273 OA
HETATM   14  N3  UNL     1      11.014  18.473  17.713  1.00  0.00    -0.347 N 
ATOM     15  H3  UNL     1      10.100  18.920  17.777  1.00  0.00     0.163 HD
HETATM   16  C16 UNL     1      11.302  17.892  16.456  1.00  0.00     0.177 C 
HETATM   17  C21 UNL     1      12.114  18.728  15.537  1.00  0.00     0.244 C 
HETATM   18  O4  UNL     1      12.368  18.154  14.416  1.00  0.00    -0.271 OA
HETATM   19  N4  UNL     1      12.637  20.006  15.694  1.00  0.00    -0.325 N 
ATOM     20  H4  UNL     1      13.656  20.047  15.681  1.00  0.00     0.169 HD
HETATM   21  C22 UNL     1      11.997  21.278  15.873  1.00  0.00     0.063 C 
HETATM   22  C27 UNL     1      12.724  22.459  15.419  1.00  0.00     0.159 C 
HETATM   23  N5  UNL     1      13.757  22.695  14.528  1.00  0.00    -0.357 N 
ATOM     24  H5  UNL     1      13.582  23.524  13.960  1.00  0.00     0.162 HD
HETATM   25  C28 UNL     1      14.980  22.090  14.204  1.00  0.00     0.162 C 
HETATM   26  C33 UNL     1      16.167  22.310  15.059  1.00  0.00     0.138 C 
HETATM   27  N6  UNL     1      16.445  22.739  16.338  1.00  0.00    -0.350 N 
ENDROOT
BRANCH   1  28
HETATM   28  C5  UNL     1      16.271  23.331  18.714  1.00  0.00     0.241 C 
HETATM   29  N1  UNL     1      17.211  23.083  19.718  1.00  0.00    -0.359 N 
ATOM     30  H1  UNL     1      17.699  22.187  19.724  1.00  0.00     0.162 HD
HETATM   31  O1  UNL     1      15.673  24.436  18.710  1.00  0.00    -0.271 OA
BRANCH  29  32
HETATM   32  C4  UNL     1      17.516  24.044  20.742  1.00  0.00     0.122 C 
BRANCH  32  33
HETATM   33  C3  UNL     1      18.966  23.978  21.151  1.00  0.00     0.019 C 
BRANCH  33  34
HETATM   34  C2  UNL     1      19.587  22.776  20.449  1.00  0.00    -0.003 C 
HETATM   35  C1  UNL     1      20.560  22.155  21.448  1.00  0.00     0.005 C 
ENDBRANCH  33  34
ENDBRANCH  32  33
ENDBRANCH  29  32
ENDBRANCH   1  28
BRANCH  27  36
HETATM   36  C34 UNL     1      17.525  23.762  16.443  1.00  0.00     0.121 C 
HETATM   37  C35 UNL     1      17.093  25.044  15.716  1.00  0.00     0.026 C 
ENDBRANCH  27  36
BRANCH   4  38
HETATM   38  O2  UNL     1      14.165  21.582  19.308  1.00  0.00    -0.349 OA
ATOM     39  H2  UNL     1      14.624  22.285  19.752  1.00  0.00     0.219 HD
ENDBRANCH   4  38
BRANCH  26  40
HETATM   40  O6  UNL     1      17.279  22.010  14.413  1.00  0.00    -0.348 OA
ATOM     41  H6  UNL     1      17.597  22.754  13.917  1.00  0.00     0.219 HD
ENDBRANCH  26  40
BRANCH  25  42
HETATM   42  C29 UNL     1      15.403  22.580  12.777  1.00  0.00     0.012 C 
HETATM   43  C30 UNL     1      16.419  23.655  12.817  1.00  0.00     0.012 C 
BRANCH  42  44
HETATM   44  C31 UNL     1      15.762  21.424  11.893  1.00  0.00     0.002 C 
HETATM   45  C32 UNL     1      14.930  20.212  12.348  1.00  0.00     0.005 C 
ENDBRANCH  42  44
ENDBRANCH  25  42
BRANCH  22  46
HETATM   46  O5  UNL     1      12.287  23.545  16.001  1.00  0.00    -0.345 OA
ATOM     47  H5  UNL     1      12.694  24.323  15.638  1.00  0.00     0.219 HD
ENDBRANCH  22  46
BRANCH  21  48
HETATM   48  C23 UNL     1      10.560  21.393  15.556  1.00  0.00     0.065 C 
BRANCH  48  49
HETATM   49  C24 UNL     1      10.127  21.403  14.147  1.00  0.00    -0.017 C 
HETATM   50  C25 UNL     1       9.315  22.604  13.725  1.00  0.00     0.010 C 
HETATM   51  C26 UNL     1       9.275  20.177  13.794  1.00  0.00     0.010 C 
ENDBRANCH  48  49
ENDBRANCH  21  48
BRANCH  16  52
HETATM   52  C17 UNL     1      10.086  17.458  15.688  1.00  0.00     0.038 C 
BRANCH  52  53
HETATM   53  C18 UNL     1       9.731  16.025  15.716  1.00  0.00    -0.020 C 
HETATM   54  C19 UNL     1       9.166  15.478  16.977  1.00  0.00     0.009 C 
HETATM   55  C20 UNL     1      10.843  15.140  15.190  1.00  0.00     0.009 C 
ENDBRANCH  52  53
ENDBRANCH  16  52
TORSDOF 14
ENDMDL
MODEL 5
REMARK VINA RESULT: -5.584848047      9.800     17.039
REMARK  14 active torsions:
REMARK  status: ('A' for Active; 'I' for Inactive)
REMARK    1  A    between atoms: C2_2  and  C3_3 
REMARK    2  A    between atoms: C3_3  and  C4_4 
REMARK    3  A    between atoms: C4_4  and  N1_5 
REMARK       I    between atoms: N1_5  and  C5_7 
REMARK    4  A    between atoms: C5_7  and  C6_9 
REMARK    5  A    between atoms: C9_12  and  O2_13 
REMARK    6  A    between atoms: C16_26  and  C17_27 
REMARK    7  A    between atoms: C17_27  and  C18_28 
REMARK    8  A    between atoms: C22_35  and  C23_36 
REMARK    9  A    between atoms: C23_36  and  C24_37 
REMARK   10  A    between atoms: C27_40  and  O5_41 
REMARK   11  A    between atoms: C28_45  and  C29_46 
REMARK   12  A    between atoms: C29_46  and  C31_48 
REMARK   13  A    between atoms: C33_50  and  O6_51 
REMARK   14  A    between atoms: N6_53  and  C34_54 
ROOT
HETATM    1  C6  UNL     1      25.812  25.863  19.575  1.00  0.00     0.189 C 
HETATM    2  C7  UNL     1      25.999  26.119  18.128  1.00  0.00     0.088 C 
HETATM    3  C8  UNL     1      27.153  25.527  17.438  1.00  0.00     0.021 C 
HETATM    4  C9  UNL     1      25.878  27.562  17.804  1.00  0.00     0.117 C 
HETATM    5  N2  UNL     1      26.195  28.296  16.686  1.00  0.00    -0.369 N 
ATOM      6  H2  UNL     1      25.388  28.748  16.255  1.00  0.00     0.161 HD
HETATM    7  C10 UNL     1      27.434  28.559  15.997  1.00  0.00     0.096 C 
HETATM    8  C11 UNL     1      27.339  27.977  14.576  1.00  0.00     0.033 C 
HETATM    9  C12 UNL     1      27.687  30.077  15.874  1.00  0.00     0.053 C 
HETATM   10  C13 UNL     1      28.724  30.304  14.825  1.00  0.00     0.027 C 
HETATM   11  C14 UNL     1      26.376  30.613  15.269  1.00  0.00     0.027 C 
HETATM   12  C15 UNL     1      27.957  30.662  17.174  1.00  0.00     0.228 C 
HETATM   13  O3  UNL     1      26.905  31.065  17.800  1.00  0.00    -0.273 OA
HETATM   14  N3  UNL     1      29.165  30.861  17.854  1.00  0.00    -0.347 N 
ATOM     15  H3  UNL     1      29.159  31.640  18.513  1.00  0.00     0.163 HD
HETATM   16  C16 UNL     1      30.391  30.161  17.779  1.00  0.00     0.177 C 
HETATM   17  C21 UNL     1      30.472  28.923  18.594  1.00  0.00     0.244 C 
HETATM   18  O4  UNL     1      31.594  28.310  18.480  1.00  0.00    -0.271 OA
HETATM   19  N4  UNL     1      29.542  28.332  19.441  1.00  0.00    -0.325 N 
ATOM     20  H4  UNL     1      29.230  27.408  19.142  1.00  0.00     0.169 HD
HETATM   21  C22 UNL     1      28.944  28.790  20.662  1.00  0.00     0.063 C 
HETATM   22  C27 UNL     1      28.498  27.773  21.608  1.00  0.00     0.159 C 
HETATM   23  N5  UNL     1      28.793  26.439  21.829  1.00  0.00    -0.357 N 
ATOM     24  H5  UNL     1      28.886  26.232  22.823  1.00  0.00     0.162 HD
HETATM   25  C28 UNL     1      28.999  25.297  21.039  1.00  0.00     0.162 C 
HETATM   26  C33 UNL     1      27.842  24.563  20.481  1.00  0.00     0.138 C 
HETATM   27  N6  UNL     1      26.507  24.789  20.230  1.00  0.00    -0.350 N 
ENDROOT
BRANCH   1  28
HETATM   28  C5  UNL     1      24.335  25.857  19.820  1.00  0.00     0.241 C 
HETATM   29  N1  UNL     1      23.406  25.097  19.104  1.00  0.00    -0.359 N 
ATOM     30  H1  UNL     1      23.740  24.493  18.353  1.00  0.00     0.162 HD
HETATM   31  O1  UNL     1      23.920  26.600  20.744  1.00  0.00    -0.271 OA
BRANCH  29  32
HETATM   32  C4  UNL     1      21.998  25.135  19.387  1.00  0.00     0.122 C 
BRANCH  32  33
HETATM   33  C3  UNL     1      21.601  24.062  20.371  1.00  0.00     0.019 C 
BRANCH  33  34
HETATM   34  C2  UNL     1      20.930  24.750  21.554  1.00  0.00    -0.003 C 
HETATM   35  C1  UNL     1      19.667  23.945  21.853  1.00  0.00     0.005 C 
ENDBRANCH  33  34
ENDBRANCH  32  33
ENDBRANCH  29  32
ENDBRANCH   1  28
BRANCH  27  36
HETATM   36  C34 UNL     1      25.583  23.715  20.696  1.00  0.00     0.121 C 
HETATM   37  C35 UNL     1      25.565  23.681  22.231  1.00  0.00     0.026 C 
ENDBRANCH  27  36
BRANCH   4  38
HETATM   38  O2  UNL     1      25.365  28.251  18.793  1.00  0.00    -0.349 OA
ATOM     39  H2  UNL     1      24.469  28.516  18.620  1.00  0.00     0.219 HD
ENDBRANCH   4  38
BRANCH  26  40
HETATM   40  O6  UNL     1      28.187  23.341  20.119  1.00  0.00    -0.348 OA
ATOM     41  H6  UNL     1      27.727  22.690  20.635  1.00  0.00     0.219 HD
ENDBRANCH  26  40
BRANCH  25  42
HETATM   42  C29 UNL     1      29.780  24.245  21.898  1.00  0.00     0.012 C 
HETATM   43  C30 UNL     1      31.247  24.348  21.735  1.00  0.00     0.012 C 
BRANCH  42  44
HETATM   44  C31 UNL     1      29.314  24.259  23.322  1.00  0.00     0.002 C 
HETATM   45  C32 UNL     1      28.922  22.820  23.701  1.00  0.00     0.005 C 
ENDBRANCH  42  44
ENDBRANCH  25  42
BRANCH  22  46
HETATM   46  O5  UNL     1      27.607  28.247  22.439  1.00  0.00    -0.345 OA
ATOM     47  H5  UNL     1      27.949  28.305  23.323  1.00  0.00     0.219 HD
ENDBRANCH  22  46
BRANCH  21  48
HETATM   48  C23 UNL     1      29.569  29.926  21.368  1.00  0.00     0.065 C 
BRANCH  48  49
HETATM   49  C24 UNL     1      30.591  29.665  22.398  1.00  0.00    -0.017 C 
HETATM   50  C25 UNL     1      30.649  30.668  23.524  1.00  0.00     0.010 C 
HETATM   51  C26 UNL     1      32.006  29.612  21.810  1.00  0.00     0.010 C 
ENDBRANCH  48  49
ENDBRANCH  21  48
BRANCH  16  52
HETATM   52  C17 UNL     1      31.595  30.990  18.129  1.00  0.00     0.038 C 
BRANCH  52  53
HETATM   53  C18 UNL     1      31.379  32.419  18.433  1.00  0.00    -0.020 C 
HETATM   54  C19 UNL     1      32.008  33.419  17.532  1.00  0.00     0.009 C 
HETATM   55  C20 UNL     1      31.648  32.751  19.887  1.00  0.00     0.009 C 
ENDBRANCH  52  53
ENDBRANCH  16  52
TORSDOF 14
ENDMDL
