MODEL 1
REMARK VINA RESULT: -6.691220519      0.000      0.000
REMARK  14 active torsions:
REMARK  status: ('A' for Active; 'I' for Inactive)
REMARK    1  A    between atoms: C2_2  and  C3_3 
REMARK    2  A    between atoms: C3_3  and  C4_4 
REMARK    3  A    between atoms: C4_4  and  C5_5 
REMARK    4  A    between atoms: C5_5  and  C6_6 
REMARK    5  A    between atoms: C6_6  and  C7_7 
REMARK    6  A    between atoms: C14_19  and  C15_20 
REMARK    7  A    between atoms: C15_20  and  C16_21 
REMARK    8  A    between atoms: C20_28  and  C21_29 
REMARK    9  A    between atoms: C21_29  and  N4_30 
REMARK   10  A    between atoms: C23_36  and  O4_37 
REMARK   11  A    between atoms: C24_39  and  C25_40 
REMARK   12  A    between atoms: C25_40  and  C26_41 
REMARK   13  A    between atoms: C30_48  and  C31_49 
REMARK   14  A    between atoms: C31_49  and  C32_50 
ROOT
HETATM    1  C7  UNL     1      15.757  22.582  14.703  1.00  0.00     0.176 C 
HETATM    2  N1  UNL     1      14.788  22.479  15.728  1.00  0.00    -0.346 N 
ATOM      3  H1  UNL     1      15.174  22.552  16.670  1.00  0.00     0.163 HD
HETATM    4  C8  UNL     1      13.396  22.296  15.696  1.00  0.00     0.241 C 
HETATM    5  O1  UNL     1      12.612  23.229  16.144  1.00  0.00    -0.271 OA
HETATM    6  C9  UNL     1      12.643  21.118  15.194  1.00  0.00     0.179 C 
HETATM    7  C10 UNL     1      11.806  21.651  14.044  1.00  0.00     0.037 C 
HETATM    8  C11 UNL     1      10.438  21.780  14.670  1.00  0.00     0.022 C 
HETATM    9  C12 UNL     1      10.393  20.464  15.427  1.00  0.00     0.127 C 
HETATM   10  N2  UNL     1      11.692  20.576  16.151  1.00  0.00    -0.337 N 
HETATM   11  C13 UNL     1      11.946  20.226  17.489  1.00  0.00     0.243 C 
HETATM   12  O2  UNL     1      11.179  20.791  18.365  1.00  0.00    -0.271 OA
HETATM   13  C14 UNL     1      12.954  19.312  18.034  1.00  0.00     0.177 C 
HETATM   14  N3  UNL     1      14.315  19.696  17.931  1.00  0.00    -0.346 N 
ATOM     15  H3  UNL     1      14.721  19.699  16.995  1.00  0.00     0.163 HD
HETATM   16  C19 UNL     1      15.179  20.081  19.013  1.00  0.00     0.242 C 
HETATM   17  O3  UNL     1      16.395  19.710  18.840  1.00  0.00    -0.271 OA
HETATM   18  C20 UNL     1      14.694  20.810  20.165  1.00  0.00     0.201 C 
HETATM   19  N5  UNL     1      15.243  22.120  20.427  1.00  0.00    -0.358 N 
ATOM     20  H5  UNL     1      14.961  22.489  21.335  1.00  0.00     0.162 HD
HETATM   21  C23 UNL     1      16.057  22.983  19.736  1.00  0.00     0.135 C 
HETATM   22  C24 UNL     1      17.483  22.921  19.325  1.00  0.00     0.159 C 
HETATM   23  N6  UNL     1      17.963  24.273  18.989  1.00  0.00    -0.347 N 
ATOM     24  H6  UNL     1      18.124  24.903  19.774  1.00  0.00     0.163 HD
HETATM   25  C29 UNL     1      18.221  24.788  17.728  1.00  0.00     0.241 C 
HETATM   26  O5  UNL     1      19.283  25.500  17.598  1.00  0.00    -0.271 OA
HETATM   27  C30 UNL     1      17.445  24.638  16.484  1.00  0.00     0.177 C 
HETATM   28  N7  UNL     1      17.935  23.494  15.740  1.00  0.00    -0.346 N 
ATOM     29  H7  UNL     1      18.932  23.465  15.525  1.00  0.00     0.163 HD
HETATM   30  C35 UNL     1      17.142  22.416  15.289  1.00  0.00     0.241 C 
HETATM   31  O6  UNL     1      17.656  21.249  15.399  1.00  0.00    -0.271 OA
ENDROOT
BRANCH   1  32
HETATM   32  C6  UNL     1      15.669  21.590  13.582  1.00  0.00     0.035 C 
BRANCH  32  33
HETATM   33  C5  UNL     1      14.903  22.205  12.411  1.00  0.00     0.002 C 
BRANCH  33  34
HETATM   34  C4  UNL     1      14.135  21.196  11.629  1.00  0.00     0.000 C 
BRANCH  34  35
HETATM   35  C3  UNL     1      14.253  19.840  12.242  1.00  0.00    -0.000 C 
BRANCH  35  36
HETATM   36  C2  UNL     1      12.937  19.091  12.260  1.00  0.00    -0.005 C 
HETATM   37  C1  UNL     1      12.978  17.848  13.091  1.00  0.00     0.005 C 
ENDBRANCH  35  36
ENDBRANCH  34  35
ENDBRANCH  33  34
ENDBRANCH  32  33
ENDBRANCH   1  32
BRANCH  27  38
HETATM   38  C31 UNL     1      17.633  25.857  15.563  1.00  0.00     0.038 C 
BRANCH  38  39
HETATM   39  C32 UNL     1      18.435  25.430  14.344  1.00  0.00    -0.020 C 
HETATM   40  C33 UNL     1      19.615  26.380  14.181  1.00  0.00     0.009 C 
HETATM   41  C34 UNL     1      17.599  25.520  13.101  1.00  0.00     0.009 C 
ENDBRANCH  38  39
ENDBRANCH  27  38
BRANCH  13  42
HETATM   42  C15 UNL     1      12.853  17.913  17.400  1.00  0.00     0.038 C 
BRANCH  42  43
HETATM   43  C16 UNL     1      11.496  17.319  17.550  1.00  0.00    -0.020 C 
HETATM   44  C17 UNL     1      11.034  16.813  16.215  1.00  0.00     0.009 C 
HETATM   45  C18 UNL     1      11.540  16.115  18.493  1.00  0.00     0.009 C 
ENDBRANCH  42  43
ENDBRANCH  13  42
BRANCH  22  46
HETATM   46  C25 UNL     1      18.340  22.336  20.397  1.00  0.00     0.037 C 
BRANCH  46  47
HETATM   47  C26 UNL     1      19.605  23.001  20.733  1.00  0.00    -0.020 C 
HETATM   48  C27 UNL     1      19.516  23.958  21.901  1.00  0.00     0.009 C 
HETATM   49  C28 UNL     1      20.845  22.147  20.737  1.00  0.00     0.009 C 
ENDBRANCH  46  47
ENDBRANCH  22  46
BRANCH  21  50
HETATM   50  O4  UNL     1      15.488  24.090  19.352  1.00  0.00    -0.348 OA
ATOM     51  H4  UNL     1      16.048  24.683  18.864  1.00  0.00     0.219 HD
ENDBRANCH  21  50
BRANCH  18  52
HETATM   52  C21 UNL     1      14.660  19.980  21.439  1.00  0.00     0.266 C 
BRANCH  52  53
HETATM   53  N4  UNL     1      14.767  18.579  21.255  1.00  0.00    -0.077 N 
HETATM   54  C22 UNL     1      13.496  17.990  21.651  1.00  0.00     0.267 C 
ATOM     55  H42 UNL     1      15.048  18.321  20.309  1.00  0.00     0.276 HD
ATOM     56  H41 UNL     1      15.564  18.172  21.746  1.00  0.00     0.276 HD
ENDBRANCH  52  53
ENDBRANCH  18  52
TORSDOF 14
ENDMDL
MODEL 2
REMARK VINA RESULT: -6.671781521      1.059      1.231
REMARK  14 active torsions:
REMARK  status: ('A' for Active; 'I' for Inactive)
REMARK    1  A    between atoms: C2_2  and  C3_3 
REMARK    2  A    between atoms: C3_3  and  C4_4 
REMARK    3  A    between atoms: C4_4  and  C5_5 
REMARK    4  A    between atoms: C5_5  and  C6_6 
REMARK    5  A    between atoms: C6_6  and  C7_7 
REMARK    6  A    between atoms: C14_19  and  C15_20 
REMARK    7  A    between atoms: C15_20  and  C16_21 
REMARK    8  A    between atoms: C20_28  and  C21_29 
REMARK    9  A    between atoms: C21_29  and  N4_30 
REMARK   10  A    between atoms: C23_36  and  O4_37 
REMARK   11  A    between atoms: C24_39  and  C25_40 
REMARK   12  A    between atoms: C25_40  and  C26_41 
REMARK   13  A    between atoms: C30_48  and  C31_49 
REMARK   14  A    between atoms: C31_49  and  C32_50 
ROOT
HETATM    1  C7  UNL     1      14.818  22.423  14.031  1.00  0.00     0.176 C 
HETATM    2  N1  UNL     1      13.920  22.276  15.113  1.00  0.00    -0.346 N 
ATOM      3  H1  UNL     1      14.369  22.303  16.029  1.00  0.00     0.163 HD
HETATM    4  C8  UNL     1      12.527  22.100  15.166  1.00  0.00     0.241 C 
HETATM    5  O1  UNL     1      11.783  23.015  15.710  1.00  0.00    -0.271 OA
HETATM    6  C9  UNL     1      11.734  20.951  14.662  1.00  0.00     0.179 C 
HETATM    7  C10 UNL     1      10.825  21.541  13.598  1.00  0.00     0.037 C 
HETATM    8  C11 UNL     1       9.504  21.646  14.319  1.00  0.00     0.022 C 
HETATM    9  C12 UNL     1       9.500  20.296  15.016  1.00  0.00     0.127 C 
HETATM   10  N2  UNL     1      10.845  20.368  15.654  1.00  0.00    -0.337 N 
HETATM   11  C13 UNL     1      11.186  19.954  16.955  1.00  0.00     0.243 C 
HETATM   12  O2  UNL     1      10.484  20.481  17.906  1.00  0.00    -0.271 OA
HETATM   13  C14 UNL     1      12.221  19.012  17.386  1.00  0.00     0.177 C 
HETATM   14  N3  UNL     1      13.575  19.394  17.210  1.00  0.00    -0.346 N 
ATOM     15  H3  UNL     1      13.918  19.439  16.250  1.00  0.00     0.163 HD
HETATM   16  C19 UNL     1      14.513  19.724  18.248  1.00  0.00     0.242 C 
HETATM   17  O3  UNL     1      15.711  19.356  17.976  1.00  0.00    -0.271 OA
HETATM   18  C20 UNL     1      14.111  20.400  19.463  1.00  0.00     0.201 C 
HETATM   19  N5  UNL     1      14.687  21.693  19.749  1.00  0.00    -0.358 N 
ATOM     20  H5  UNL     1      14.469  22.021  20.690  1.00  0.00     0.162 HD
HETATM   21  C23 UNL     1      15.459  22.585  19.045  1.00  0.00     0.135 C 
HETATM   22  C24 UNL     1      16.854  22.536  18.536  1.00  0.00     0.159 C 
HETATM   23  N6  UNL     1      17.320  23.900  18.232  1.00  0.00    -0.347 N 
ATOM     24  H6  UNL     1      17.538  24.491  19.034  1.00  0.00     0.163 HD
HETATM   25  C29 UNL     1      17.496  24.473  16.982  1.00  0.00     0.241 C 
HETATM   26  O5  UNL     1      18.552  25.186  16.815  1.00  0.00    -0.271 OA
HETATM   27  C30 UNL     1      16.637  24.385  15.789  1.00  0.00     0.177 C 
HETATM   28  N7  UNL     1      17.068  23.275  14.960  1.00  0.00    -0.346 N 
ATOM     29  H7  UNL     1      18.048  23.252  14.677  1.00  0.00     0.163 HD
HETATM   30  C35 UNL     1      16.238  22.224  14.514  1.00  0.00     0.241 C 
HETATM   31  O6  UNL     1      16.750  21.050  14.534  1.00  0.00    -0.271 OA
ENDROOT
BRANCH   1  32
HETATM   32  C6  UNL     1      14.647  21.486  12.873  1.00  0.00     0.035 C 
BRANCH  32  33
HETATM   33  C5  UNL     1      14.470  20.059  13.390  1.00  0.00     0.002 C 
BRANCH  33  34
HETATM   34  C4  UNL     1      13.854  19.151  12.382  1.00  0.00     0.000 C 
BRANCH  34  35
HETATM   35  C3  UNL     1      13.049  18.082  13.045  1.00  0.00    -0.000 C 
BRANCH  35  36
HETATM   36  C2  UNL     1      12.017  17.471  12.120  1.00  0.00    -0.005 C 
HETATM   37  C1  UNL     1      10.639  18.014  12.335  1.00  0.00     0.005 C 
ENDBRANCH  35  36
ENDBRANCH  34  35
ENDBRANCH  33  34
ENDBRANCH  32  33
ENDBRANCH   1  32
BRANCH  27  38
HETATM   38  C31 UNL     1      16.772  25.645  14.915  1.00  0.00     0.038 C 
BRANCH  38  39
HETATM   39  C32 UNL     1      17.903  25.434  13.922  1.00  0.00    -0.020 C 
HETATM   40  C33 UNL     1      18.781  26.679  13.911  1.00  0.00     0.009 C 
HETATM   41  C34 UNL     1      17.363  25.242  12.535  1.00  0.00     0.009 C 
ENDBRANCH  38  39
ENDBRANCH  27  38
BRANCH  13  42
HETATM   42  C15 UNL     1      12.068  17.645  16.696  1.00  0.00     0.038 C 
BRANCH  42  43
HETATM   43  C16 UNL     1      10.811  16.949  17.090  1.00  0.00    -0.020 C 
HETATM   44  C17 UNL     1      10.062  16.555  15.851  1.00  0.00     0.009 C 
HETATM   45  C18 UNL     1      11.130  15.658  17.848  1.00  0.00     0.009 C 
ENDBRANCH  42  43
ENDBRANCH  13  42
BRANCH  22  46
HETATM   46  C25 UNL     1      17.776  21.897  19.520  1.00  0.00     0.037 C 
BRANCH  46  47
HETATM   47  C26 UNL     1      18.848  22.707  20.114  1.00  0.00    -0.020 C 
HETATM   48  C27 UNL     1      18.366  23.779  21.065  1.00  0.00     0.009 C 
HETATM   49  C28 UNL     1      20.073  21.973  20.591  1.00  0.00     0.009 C 
ENDBRANCH  46  47
ENDBRANCH  22  46
BRANCH  21  50
HETATM   50  O4  UNL     1      14.874  23.711  18.753  1.00  0.00    -0.348 OA
ATOM     51  H4  UNL     1      15.283  24.208  18.054  1.00  0.00     0.219 HD
ENDBRANCH  21  50
BRANCH  18  52
HETATM   52  C21 UNL     1      14.158  19.511  20.696  1.00  0.00     0.266 C 
BRANCH  52  53
HETATM   53  N4  UNL     1      14.249  18.119  20.440  1.00  0.00    -0.077 N 
HETATM   54  C22 UNL     1      12.965  17.528  20.787  1.00  0.00     0.267 C 
ATOM     55  H42 UNL     1      14.540  17.908  19.486  1.00  0.00     0.276 HD
ATOM     56  H41 UNL     1      15.034  17.677  20.920  1.00  0.00     0.276 HD
ENDBRANCH  52  53
ENDBRANCH  18  52
TORSDOF 14
ENDMDL
MODEL 3
REMARK VINA RESULT: -6.647594479      2.025      7.327
REMARK  14 active torsions:
REMARK  status: ('A' for Active; 'I' for Inactive)
REMARK    1  A    between atoms: C2_2  and  C3_3 
REMARK    2  A    between atoms: C3_3  and  C4_4 
REMARK    3  A    between atoms: C4_4  and  C5_5 
REMARK    4  A    between atoms: C5_5  and  C6_6 
REMARK    5  A    between atoms: C6_6  and  C7_7 
REMARK    6  A    between atoms: C14_19  and  C15_20 
REMARK    7  A    between atoms: C15_20  and  C16_21 
REMARK    8  A    between atoms: C20_28  and  C21_29 
REMARK    9  A    between atoms: C21_29  and  N4_30 
REMARK   10  A    between atoms: C23_36  and  O4_37 
REMARK   11  A    between atoms: C24_39  and  C25_40 
REMARK   12  A    between atoms: C25_40  and  C26_41 
REMARK   13  A    between atoms: C30_48  and  C31_49 
REMARK   14  A    between atoms: C31_49  and  C32_50 
ROOT
HETATM    1  C7  UNL     1      11.179  19.696  15.109  1.00  0.00     0.176 C 
HETATM    2  N1  UNL     1      12.579  19.752  15.307  1.00  0.00    -0.346 N 
ATOM      3  H1  UNL     1      12.872  19.500  16.251  1.00  0.00     0.163 HD
HETATM    4  C8  UNL     1      13.640  20.089  14.451  1.00  0.00     0.241 C 
HETATM    5  O1  UNL     1      14.523  19.191  14.136  1.00  0.00    -0.271 OA
HETATM    6  C9  UNL     1      13.917  21.403  13.816  1.00  0.00     0.179 C 
HETATM    7  C10 UNL     1      13.837  21.138  12.323  1.00  0.00     0.037 C 
HETATM    8  C11 UNL     1      15.292  21.069  11.926  1.00  0.00     0.022 C 
HETATM    9  C12 UNL     1      15.815  22.256  12.715  1.00  0.00     0.127 C 
HETATM   10  N2  UNL     1      15.263  21.899  14.053  1.00  0.00    -0.337 N 
HETATM   11  C13 UNL     1      15.913  22.019  15.295  1.00  0.00     0.243 C 
HETATM   12  O2  UNL     1      17.056  21.418  15.383  1.00  0.00    -0.271 OA
HETATM   13  C14 UNL     1      15.482  22.728  16.502  1.00  0.00     0.177 C 
HETATM   14  N3  UNL     1      14.358  22.217  17.200  1.00  0.00    -0.346 N 
ATOM     15  H3  UNL     1      13.452  22.307  16.739  1.00  0.00     0.163 HD
HETATM   16  C19 UNL     1      14.367  21.586  18.491  1.00  0.00     0.242 C 
HETATM   17  O3  UNL     1      13.317  21.843  19.182  1.00  0.00    -0.271 OA
HETATM   18  C20 UNL     1      15.464  20.753  18.934  1.00  0.00     0.201 C 
HETATM   19  N5  UNL     1      15.193  19.367  19.236  1.00  0.00    -0.358 N 
ATOM     20  H5  UNL     1      15.981  18.902  19.685  1.00  0.00     0.162 HD
HETATM   21  C23 UNL     1      14.118  18.531  19.058  1.00  0.00     0.135 C 
HETATM   22  C24 UNL     1      12.753  18.497  19.642  1.00  0.00     0.159 C 
HETATM   23  N6  UNL     1      12.157  17.165  19.437  1.00  0.00    -0.347 N 
ATOM     24  H6  UNL     1      12.523  16.413  20.021  1.00  0.00     0.163 HD
HETATM   25  C29 UNL     1      11.158  16.816  18.543  1.00  0.00     0.241 C 
HETATM   26  O5  UNL     1      10.246  16.018  18.973  1.00  0.00    -0.271 OA
HETATM   27  C30 UNL     1      10.977  17.229  17.140  1.00  0.00     0.177 C 
HETATM   28  N7  UNL     1      10.136  18.410  17.086  1.00  0.00    -0.346 N 
ATOM     29  H7  UNL     1       9.227  18.361  17.547  1.00  0.00     0.163 HD
HETATM   30  C35 UNL     1      10.476  19.622  16.447  1.00  0.00     0.241 C 
HETATM   31  O6  UNL     1      10.156  20.698  17.063  1.00  0.00    -0.271 OA
ENDROOT
BRANCH   1  32
HETATM   32  C6  UNL     1      10.549  20.845  14.381  1.00  0.00     0.035 C 
BRANCH  32  33
HETATM   33  C5  UNL     1       9.342  20.349  13.585  1.00  0.00     0.002 C 
BRANCH  33  34
HETATM   34  C4  UNL     1       9.311  18.866  13.447  1.00  0.00     0.000 C 
BRANCH  34  35
HETATM   35  C3  UNL     1       9.157  18.465  12.016  1.00  0.00    -0.000 C 
BRANCH  35  36
HETATM   36  C2  UNL     1      10.255  17.531  11.551  1.00  0.00    -0.005 C 
HETATM   37  C1  UNL     1      11.628  18.019  11.894  1.00  0.00     0.005 C 
ENDBRANCH  35  36
ENDBRANCH  34  35
ENDBRANCH  33  34
ENDBRANCH  32  33
ENDBRANCH   1  32
BRANCH  27  38
HETATM   38  C31 UNL     1      10.240  16.146  16.333  1.00  0.00     0.038 C 
BRANCH  38  39
HETATM   39  C32 UNL     1      11.255  15.130  15.835  1.00  0.00    -0.020 C 
HETATM   40  C33 UNL     1      11.337  15.227  14.316  1.00  0.00     0.009 C 
HETATM   41  C34 UNL     1      10.825  13.735  16.183  1.00  0.00     0.009 C 
ENDBRANCH  38  39
ENDBRANCH  27  38
BRANCH  13  42
HETATM   42  C15 UNL     1      15.171  24.207  16.213  1.00  0.00     0.038 C 
BRANCH  42  43
HETATM   43  C16 UNL     1      16.397  25.054  16.213  1.00  0.00    -0.020 C 
HETATM   44  C17 UNL     1      17.427  24.421  17.102  1.00  0.00     0.009 C 
HETATM   45  C18 UNL     1      17.001  25.121  14.809  1.00  0.00     0.009 C 
ENDBRANCH  42  43
ENDBRANCH  13  42
BRANCH  22  46
HETATM   46  C25 UNL     1      12.769  18.822  21.098  1.00  0.00     0.037 C 
BRANCH  46  47
HETATM   47  C26 UNL     1      13.789  18.197  21.951  1.00  0.00    -0.020 C 
HETATM   48  C27 UNL     1      14.694  19.177  22.661  1.00  0.00     0.009 C 
HETATM   49  C28 UNL     1      13.345  17.042  22.810  1.00  0.00     0.009 C 
ENDBRANCH  46  47
ENDBRANCH  22  46
BRANCH  21  50
HETATM   50  O4  UNL     1      14.309  17.561  18.210  1.00  0.00    -0.348 OA
ATOM     51  H4  UNL     1      13.775  17.602  17.424  1.00  0.00     0.219 HD
ENDBRANCH  21  50
BRANCH  18  52
HETATM   52  C21 UNL     1      16.300  21.386  20.036  1.00  0.00     0.266 C 
BRANCH  52  53
HETATM   53  N4  UNL     1      16.161  22.790  20.175  1.00  0.00    -0.077 N 
HETATM   54  C22 UNL     1      17.481  23.332  20.460  1.00  0.00     0.267 C 
ATOM     55  H42 UNL     1      15.716  23.228  19.369  1.00  0.00     0.276 HD
ATOM     56  H41 UNL     1      15.463  23.053  20.872  1.00  0.00     0.276 HD
ENDBRANCH  52  53
ENDBRANCH  18  52
TORSDOF 14
ENDMDL
MODEL 4
REMARK VINA RESULT: -6.503654338      7.826     12.369
REMARK  14 active torsions:
REMARK  status: ('A' for Active; 'I' for Inactive)
REMARK    1  A    between atoms: C2_2  and  C3_3 
REMARK    2  A    between atoms: C3_3  and  C4_4 
REMARK    3  A    between atoms: C4_4  and  C5_5 
REMARK    4  A    between atoms: C5_5  and  C6_6 
REMARK    5  A    between atoms: C6_6  and  C7_7 
REMARK    6  A    between atoms: C14_19  and  C15_20 
REMARK    7  A    between atoms: C15_20  and  C16_21 
REMARK    8  A    between atoms: C20_28  and  C21_29 
REMARK    9  A    between atoms: C21_29  and  N4_30 
REMARK   10  A    between atoms: C23_36  and  O4_37 
REMARK   11  A    between atoms: C24_39  and  C25_40 
REMARK   12  A    between atoms: C25_40  and  C26_41 
REMARK   13  A    between atoms: C30_48  and  C31_49 
REMARK   14  A    between atoms: C31_49  and  C32_50 
ROOT
HETATM    1  C7  UNL     1      23.961  27.655  16.774  1.00  0.00     0.176 C 
HETATM    2  N1  UNL     1      24.291  27.266  18.093  1.00  0.00    -0.346 N 
ATOM      3  H1  UNL     1      25.276  27.391  18.327  1.00  0.00     0.163 HD
HETATM    4  C8  UNL     1      23.519  26.740  19.143  1.00  0.00     0.241 C 
HETATM    5  O1  UNL     1      23.364  27.425  20.234  1.00  0.00    -0.271 OA
HETATM    6  C9  UNL     1      22.813  25.434  19.188  1.00  0.00     0.179 C 
HETATM    7  C10 UNL     1      21.344  25.790  19.340  1.00  0.00     0.037 C 
HETATM    8  C11 UNL     1      21.099  25.543  20.809  1.00  0.00     0.022 C 
HETATM    9  C12 UNL     1      21.840  24.225  20.960  1.00  0.00     0.127 C 
HETATM   10  N2  UNL     1      23.141  24.628  20.354  1.00  0.00    -0.337 N 
HETATM   11  C13 UNL     1      24.428  24.294  20.814  1.00  0.00     0.243 C 
HETATM   12  O2  UNL     1      24.674  24.609  22.045  1.00  0.00    -0.271 OA
HETATM   13  C14 UNL     1      25.527  23.640  20.101  1.00  0.00     0.177 C 
HETATM   14  N3  UNL     1      26.149  24.358  19.049  1.00  0.00    -0.346 N 
ATOM     15  H3  UNL     1      25.596  24.504  18.204  1.00  0.00     0.163 HD
HETATM   16  C19 UNL     1      27.480  24.899  19.052  1.00  0.00     0.242 C 
HETATM   17  O3  UNL     1      28.043  24.854  17.899  1.00  0.00    -0.271 OA
HETATM   18  C20 UNL     1      28.093  25.431  20.250  1.00  0.00     0.201 C 
HETATM   19  N5  UNL     1      28.475  26.824  20.263  1.00  0.00    -0.358 N 
ATOM     20  H5  UNL     1      29.035  27.069  21.080  1.00  0.00     0.162 HD
HETATM   21  C23 UNL     1      28.258  27.894  19.430  1.00  0.00     0.135 C 
HETATM   22  C24 UNL     1      28.706  28.211  18.050  1.00  0.00     0.159 C 
HETATM   23  N6  UNL     1      28.549  29.654  17.796  1.00  0.00    -0.347 N 
ATOM     24  H6  UNL     1      29.223  30.268  18.251  1.00  0.00     0.163 HD
HETATM   25  C29 UNL     1      27.591  30.272  17.008  1.00  0.00     0.241 C 
HETATM   26  O5  UNL     1      27.992  31.234  16.255  1.00  0.00    -0.271 OA
HETATM   27  C30 UNL     1      26.150  29.988  16.899  1.00  0.00     0.177 C 
HETATM   28  N7  UNL     1      25.921  29.038  15.827  1.00  0.00    -0.346 N 
ATOM     29  H7  UNL     1      26.293  29.270  14.906  1.00  0.00     0.163 HD
HETATM   30  C35 UNL     1      25.224  27.816  15.958  1.00  0.00     0.241 C 
HETATM   31  O6  UNL     1      25.720  26.812  15.337  1.00  0.00    -0.271 OA
ENDROOT
BRANCH   1  32
HETATM   32  C6  UNL     1      23.086  26.723  15.989  1.00  0.00     0.035 C 
BRANCH  32  33
HETATM   33  C5  UNL     1      21.696  27.337  15.828  1.00  0.00     0.002 C 
BRANCH  33  34
HETATM   34  C4  UNL     1      21.135  27.148  14.461  1.00  0.00     0.000 C 
BRANCH  34  35
HETATM   35  C3  UNL     1      20.207  25.979  14.420  1.00  0.00    -0.000 C 
BRANCH  35  36
HETATM   36  C2  UNL     1      18.765  26.387  14.201  1.00  0.00    -0.005 C 
HETATM   37  C1  UNL     1      17.963  25.348  13.482  1.00  0.00     0.005 C 
ENDBRANCH  35  36
ENDBRANCH  34  35
ENDBRANCH  33  34
ENDBRANCH  32  33
ENDBRANCH   1  32
BRANCH  27  38
HETATM   38  C31 UNL     1      25.362  31.254  16.520  1.00  0.00     0.038 C 
BRANCH  38  39
HETATM   39  C32 UNL     1      25.993  32.450  17.213  1.00  0.00    -0.020 C 
HETATM   40  C33 UNL     1      25.363  32.604  18.592  1.00  0.00     0.009 C 
HETATM   41  C34 UNL     1      25.727  33.711  16.444  1.00  0.00     0.009 C 
ENDBRANCH  38  39
ENDBRANCH  27  38
BRANCH  13  42
HETATM   42  C15 UNL     1      25.093  22.290  19.502  1.00  0.00     0.038 C 
BRANCH  42  43
HETATM   43  C16 UNL     1      26.255  21.430  19.143  1.00  0.00    -0.020 C 
HETATM   44  C17 UNL     1      27.064  21.161  20.378  1.00  0.00     0.009 C 
HETATM   45  C18 UNL     1      25.776  20.075  18.620  1.00  0.00     0.009 C 
ENDBRANCH  42  43
ENDBRANCH  13  42
BRANCH  22  46
HETATM   46  C25 UNL     1      30.127  27.813  17.828  1.00  0.00     0.037 C 
BRANCH  46  47
HETATM   47  C26 UNL     1      30.482  27.128  16.578  1.00  0.00    -0.020 C 
HETATM   48  C27 UNL     1      31.245  25.837  16.770  1.00  0.00     0.009 C 
HETATM   49  C28 UNL     1      29.420  27.056  15.513  1.00  0.00     0.009 C 
ENDBRANCH  46  47
ENDBRANCH  22  46
BRANCH  21  50
HETATM   50  O4  UNL     1      27.512  28.838  19.928  1.00  0.00    -0.348 OA
ATOM     51  H4  UNL     1      26.989  29.314  19.294  1.00  0.00     0.219 HD
ENDBRANCH  21  50
BRANCH  18  52
HETATM   52  C21 UNL     1      29.219  24.563  20.792  1.00  0.00     0.266 C 
BRANCH  52  53
HETATM   53  N4  UNL     1      29.751  23.617  19.881  1.00  0.00    -0.077 N 
HETATM   54  C22 UNL     1      31.198  23.766  19.894  1.00  0.00     0.267 C 
ATOM     55  H42 UNL     1      29.447  22.662  20.075  1.00  0.00     0.276 HD
ATOM     56  H41 UNL     1      29.350  23.696  18.945  1.00  0.00     0.276 HD
ENDBRANCH  52  53
ENDBRANCH  18  52
TORSDOF 14
ENDMDL
MODEL 5
REMARK VINA RESULT: -6.128411163      3.879      6.631
REMARK  14 active torsions:
REMARK  status: ('A' for Active; 'I' for Inactive)
REMARK    1  A    between atoms: C2_2  and  C3_3 
REMARK    2  A    between atoms: C3_3  and  C4_4 
REMARK    3  A    between atoms: C4_4  and  C5_5 
REMARK    4  A    between atoms: C5_5  and  C6_6 
REMARK    5  A    between atoms: C6_6  and  C7_7 
REMARK    6  A    between atoms: C14_19  and  C15_20 
REMARK    7  A    between atoms: C15_20  and  C16_21 
REMARK    8  A    between atoms: C20_28  and  C21_29 
REMARK    9  A    between atoms: C21_29  and  N4_30 
REMARK   10  A    between atoms: C23_36  and  O4_37 
REMARK   11  A    between atoms: C24_39  and  C25_40 
REMARK   12  A    between atoms: C25_40  and  C26_41 
REMARK   13  A    between atoms: C30_48  and  C31_49 
REMARK   14  A    between atoms: C31_49  and  C32_50 
ROOT
HETATM    1  C7  UNL     1      11.826  19.005  12.909  1.00  0.00     0.176 C 
HETATM    2  N1  UNL     1      10.658  18.606  13.599  1.00  0.00    -0.346 N 
ATOM      3  H1  UNL     1      10.805  18.427  14.592  1.00  0.00     0.163 HD
HETATM    4  C8  UNL     1       9.332  18.411  13.175  1.00  0.00     0.241 C 
HETATM    5  O1  UNL     1       8.388  19.170  13.641  1.00  0.00    -0.271 OA
HETATM    6  C9  UNL     1       8.823  17.400  12.214  1.00  0.00     0.179 C 
HETATM    7  C10 UNL     1       8.234  18.209  11.072  1.00  0.00     0.037 C 
HETATM    8  C11 UNL     1       6.753  18.136  11.349  1.00  0.00     0.022 C 
HETATM    9  C12 UNL     1       6.646  16.662  11.703  1.00  0.00     0.127 C 
HETATM   10  N2  UNL     1       7.725  16.598  12.730  1.00  0.00    -0.337 N 
HETATM   11  C13 UNL     1       7.689  15.902  13.952  1.00  0.00     0.243 C 
HETATM   12  O2  UNL     1       6.692  16.191  14.725  1.00  0.00    -0.271 OA
HETATM   13  C14 UNL     1       8.616  14.894  14.473  1.00  0.00     0.177 C 
HETATM   14  N3  UNL     1       9.925  15.319  14.815  1.00  0.00    -0.346 N 
ATOM     15  H3  UNL     1      10.537  15.585  14.043  1.00  0.00     0.163 HD
HETATM   16  C19 UNL     1      10.476  15.411  16.139  1.00  0.00     0.242 C 
HETATM   17  O3  UNL     1      11.726  15.126  16.183  1.00  0.00    -0.271 OA
HETATM   18  C20 UNL     1       9.673  15.788  17.283  1.00  0.00     0.201 C 
HETATM   19  N5  UNL     1      10.031  16.987  18.004  1.00  0.00    -0.358 N 
ATOM     20  H5  UNL     1       9.514  17.089  18.877  1.00  0.00     0.162 HD
HETATM   21  C23 UNL     1      10.906  18.023  17.785  1.00  0.00     0.135 C 
HETATM   22  C24 UNL     1      12.389  18.104  17.739  1.00  0.00     0.159 C 
HETATM   23  N6  UNL     1      12.815  19.505  17.896  1.00  0.00    -0.347 N 
ATOM     24  H6  UNL     1      12.733  19.900  18.832  1.00  0.00     0.163 HD
HETATM   25  C29 UNL     1      13.315  20.350  16.917  1.00  0.00     0.241 C 
HETATM   26  O5  UNL     1      14.312  21.092  17.244  1.00  0.00    -0.271 OA
HETATM   27  C30 UNL     1      12.867  20.530  15.525  1.00  0.00     0.177 C 
HETATM   28  N7  UNL     1      13.615  19.642  14.654  1.00  0.00    -0.346 N 
ATOM     29  H7  UNL     1      14.633  19.693  14.694  1.00  0.00     0.163 HD
HETATM   30  C35 UNL     1      13.045  18.713  13.757  1.00  0.00     0.241 C 
HETATM   31  O6  UNL     1      13.618  17.570  13.685  1.00  0.00    -0.271 OA
ENDROOT
BRANCH   1  32
HETATM   32  C6  UNL     1      12.089  18.355  11.583  1.00  0.00     0.035 C 
BRANCH  32  33
HETATM   33  C5  UNL     1      12.000  16.836  11.730  1.00  0.00     0.002 C 
BRANCH  33  34
HETATM   34  C4  UNL     1      11.927  16.132  10.419  1.00  0.00     0.000 C 
BRANCH  34  35
HETATM   35  C3  UNL     1      12.987  15.086  10.313  1.00  0.00    -0.000 C 
BRANCH  35  36
HETATM   36  C2  UNL     1      13.891  15.047  11.528  1.00  0.00    -0.005 C 
HETATM   37  C1  UNL     1      15.336  15.247  11.194  1.00  0.00     0.005 C 
ENDBRANCH  35  36
ENDBRANCH  34  35
ENDBRANCH  33  34
ENDBRANCH  32  33
ENDBRANCH   1  32
BRANCH  27  38
HETATM   38  C31 UNL     1      13.159  21.957  15.028  1.00  0.00     0.038 C 
BRANCH  38  39
HETATM   39  C32 UNL     1      14.299  21.903  14.025  1.00  0.00    -0.020 C 
HETATM   40  C33 UNL     1      15.345  22.939  14.419  1.00  0.00     0.009 C 
HETATM   41  C34 UNL     1      13.811  22.245  12.647  1.00  0.00     0.009 C 
ENDBRANCH  38  39
ENDBRANCH  27  38
BRANCH  13  42
HETATM   42  C15 UNL     1       8.788  13.720  13.494  1.00  0.00     0.038 C 
BRANCH  42  43
HETATM   43  C16 UNL     1      10.104  13.040  13.650  1.00  0.00    -0.020 C 
HETATM   44  C17 UNL     1       9.901  11.745  14.381  1.00  0.00     0.009 C 
HETATM   45  C18 UNL     1      10.692  12.691  12.281  1.00  0.00     0.009 C 
ENDBRANCH  42  43
ENDBRANCH  13  42
BRANCH  22  46
HETATM   46  C25 UNL     1      13.018  17.266  18.801  1.00  0.00     0.037 C 
BRANCH  46  47
HETATM   47  C26 UNL     1      13.497  17.918  20.027  1.00  0.00    -0.020 C 
HETATM   48  C27 UNL     1      12.682  17.602  21.260  1.00  0.00     0.009 C 
HETATM   49  C28 UNL     1      14.984  17.922  20.262  1.00  0.00     0.009 C 
ENDBRANCH  46  47
ENDBRANCH  22  46
BRANCH  21  50
HETATM   50  O4  UNL     1      10.349  19.181  17.573  1.00  0.00    -0.348 OA
ATOM     51  H4  UNL     1      10.285  19.742  18.336  1.00  0.00     0.219 HD
ENDBRANCH  21  50
BRANCH  18  52
HETATM   52  C21 UNL     1       9.415  14.642  18.248  1.00  0.00     0.266 C 
BRANCH  52  53
HETATM   53  N4  UNL     1       8.114  14.600  18.809  1.00  0.00    -0.077 N 
HETATM   54  C22 UNL     1       7.290  13.779  17.934  1.00  0.00     0.267 C 
ATOM     55  H42 UNL     1       8.108  14.280  19.778  1.00  0.00     0.276 HD
ATOM     56  H41 UNL     1       7.721  15.527  18.973  1.00  0.00     0.276 HD
ENDBRANCH  52  53
ENDBRANCH  18  52
TORSDOF 14
ENDMDL
