MODEL 1
REMARK VINA RESULT: -7.072281221      0.000      0.000
REMARK  12 active torsions:
REMARK  status: ('A' for Active; 'I' for Inactive)
REMARK    1  A    between atoms: C2_2  and  C3_3 
REMARK    2  A    between atoms: C3_3  and  C4_4 
REMARK    3  A    between atoms: C4_4  and  C5_5 
REMARK       I    between atoms: C5_5  and  N1_7 
REMARK    4  A    between atoms: N1_7  and  C6_9 
REMARK    5  A    between atoms: C6_9  and  C7_10 
REMARK    6  A    between atoms: C7_10  and  C8_11 
REMARK    7  A    between atoms: C14_22  and  C15_23 
REMARK    8  A    between atoms: C15_23  and  C16_24 
REMARK    9  A    between atoms: C20_31  and  C21_32 
REMARK   10  A    between atoms: C21_32  and  C22_33 
REMARK   11  A    between atoms: C26_40  and  C27_41 
REMARK   12  A    between atoms: C27_41  and  C28_42 
ROOT
HETATM    1  C8  UNL     1      25.440  26.898  17.734  1.00  0.00     0.178 C 
HETATM    2  N2  UNL     1      25.367  28.321  17.882  1.00  0.00    -0.346 N 
ATOM      3  H2  UNL     1      24.590  28.715  18.412  1.00  0.00     0.163 HD
HETATM    4  C9  UNL     1      26.321  29.205  17.330  1.00  0.00     0.240 C 
HETATM    5  O2  UNL     1      25.966  30.307  16.825  1.00  0.00    -0.271 OA
HETATM    6  C10 UNL     1      27.743  28.871  17.328  1.00  0.00     0.174 C 
HETATM    7  C11 UNL     1      28.438  30.000  18.127  1.00  0.00     0.042 C 
HETATM    8  N3  UNL     1      28.319  28.756  16.024  1.00  0.00    -0.342 N 
HETATM    9  C12 UNL     1      27.697  29.372  14.850  1.00  0.00     0.153 C 
HETATM   10  C13 UNL     1      29.521  28.042  15.852  1.00  0.00     0.243 C 
HETATM   11  O3  UNL     1      30.445  28.472  15.072  1.00  0.00    -0.271 OA
HETATM   12  C14 UNL     1      29.829  26.734  16.551  1.00  0.00     0.177 C 
HETATM   13  N4  UNL     1      30.970  27.001  17.393  1.00  0.00    -0.346 N 
ATOM     14  H4  UNL     1      31.873  27.112  16.932  1.00  0.00     0.163 HD
HETATM   15  C19 UNL     1      30.946  27.122  18.811  1.00  0.00     0.241 C 
HETATM   16  O4  UNL     1      31.754  27.932  19.330  1.00  0.00    -0.271 OA
HETATM   17  C20 UNL     1      30.018  26.342  19.686  1.00  0.00     0.177 C 
HETATM   18  N5  UNL     1      29.200  27.149  20.528  1.00  0.00    -0.346 N 
ATOM     19  H5  UNL     1      29.635  27.980  20.929  1.00  0.00     0.163 HD
HETATM   20  C25 UNL     1      27.853  26.915  20.864  1.00  0.00     0.241 C 
HETATM   21  O5  UNL     1      27.253  27.796  21.551  1.00  0.00    -0.271 OA
HETATM   22  C26 UNL     1      27.040  25.730  20.497  1.00  0.00     0.181 C 
HETATM   23  N7  UNL     1      25.684  26.158  20.197  1.00  0.00    -0.346 N 
ATOM     24  H7  UNL     1      25.146  26.493  20.996  1.00  0.00     0.163 HD
HETATM   25  C36 UNL     1      25.015  26.177  18.982  1.00  0.00     0.241 C 
HETATM   26  O6  UNL     1      23.937  25.526  18.899  1.00  0.00    -0.271 OA
ENDROOT
BRANCH  22  27
HETATM   27  C27 UNL     1      26.969  24.895  21.791  1.00  0.00     0.075 C 
BRANCH  27  28
HETATM   28  C28 UNL     1      27.402  23.507  21.563  1.00  0.00    -0.028 A 
HETATM   29  C29 UNL     1      28.426  22.857  22.199  1.00  0.00     0.096 A 
HETATM   30  N6  UNL     1      28.518  21.613  21.722  1.00  0.00    -0.365 N 
HETATM   31  C30 UNL     1      27.574  21.433  20.785  1.00  0.00     0.042 A 
ATOM     32  H6  UNL     1      29.197  20.914  22.022  1.00  0.00     0.165 HD
HETATM   33  C31 UNL     1      27.236  20.340  19.987  1.00  0.00     0.030 A 
HETATM   34  C35 UNL     1      26.871  22.604  20.676  1.00  0.00    -0.002 A 
HETATM   35  C32 UNL     1      26.203  20.391  19.074  1.00  0.00     0.002 A 
HETATM   36  C33 UNL     1      25.501  21.574  18.969  1.00  0.00     0.001 A 
HETATM   37  C34 UNL     1      25.834  22.649  19.755  1.00  0.00     0.014 A 
ENDBRANCH  27  28
ENDBRANCH  22  27
BRANCH  17  38
HETATM   38  C21 UNL     1      30.748  25.316  20.498  1.00  0.00     0.038 C 
BRANCH  38  39
HETATM   39  C22 UNL     1      30.894  23.964  19.912  1.00  0.00    -0.020 C 
HETATM   40  C23 UNL     1      29.917  23.595  18.828  1.00  0.00     0.009 C 
HETATM   41  C24 UNL     1      32.293  23.817  19.280  1.00  0.00     0.009 C 
ENDBRANCH  38  39
ENDBRANCH  17  38
BRANCH   1  42
HETATM   42  C7  UNL     1      24.696  26.483  16.512  1.00  0.00     0.054 C 
BRANCH  42  43
HETATM   43  C6  UNL     1      23.533  27.243  16.048  1.00  0.00     0.125 C 
BRANCH  43  44
HETATM   44  N1  UNL     1      22.427  26.530  15.465  1.00  0.00    -0.361 N 
HETATM   45  C5  UNL     1      21.150  27.158  15.458  1.00  0.00     0.217 C 
HETATM   46  O1  UNL     1      21.043  28.300  15.957  1.00  0.00    -0.274 OA
ATOM     47  H1  UNL     1      22.555  25.599  15.068  1.00  0.00     0.162 HD
BRANCH  45  48
HETATM   48  C4  UNL     1      19.986  26.463  14.871  1.00  0.00     0.106 C 
BRANCH  48  49
HETATM   49  C3  UNL     1      19.680  25.148  15.481  1.00  0.00     0.035 C 
BRANCH  49  50
HETATM   50  C2  UNL     1      18.280  24.969  15.864  1.00  0.00    -0.036 C 
HETATM   51  C1  UNL     1      17.451  24.022  15.472  1.00  0.00     0.007 C 
ENDBRANCH  49  50
ENDBRANCH  48  49
ENDBRANCH  45  48
ENDBRANCH  43  44
ENDBRANCH  42  43
ENDBRANCH   1  42
BRANCH  12  52
HETATM   52  C15 UNL     1      30.064  25.775  15.432  1.00  0.00     0.038 C 
BRANCH  52  53
HETATM   53  C16 UNL     1      31.446  25.362  15.139  1.00  0.00    -0.020 C 
HETATM   54  C17 UNL     1      31.579  23.883  15.563  1.00  0.00     0.009 C 
HETATM   55  C18 UNL     1      31.649  25.315  13.624  1.00  0.00     0.009 C 
ENDBRANCH  52  53
ENDBRANCH  12  52
TORSDOF 12
ENDMDL
MODEL 2
REMARK VINA RESULT: -6.924510895      2.474      6.900
REMARK  12 active torsions:
REMARK  status: ('A' for Active; 'I' for Inactive)
REMARK    1  A    between atoms: C2_2  and  C3_3 
REMARK    2  A    between atoms: C3_3  and  C4_4 
REMARK    3  A    between atoms: C4_4  and  C5_5 
REMARK       I    between atoms: C5_5  and  N1_7 
REMARK    4  A    between atoms: N1_7  and  C6_9 
REMARK    5  A    between atoms: C6_9  and  C7_10 
REMARK    6  A    between atoms: C7_10  and  C8_11 
REMARK    7  A    between atoms: C14_22  and  C15_23 
REMARK    8  A    between atoms: C15_23  and  C16_24 
REMARK    9  A    between atoms: C20_31  and  C21_32 
REMARK   10  A    between atoms: C21_32  and  C22_33 
REMARK   11  A    between atoms: C26_40  and  C27_41 
REMARK   12  A    between atoms: C27_41  and  C28_42 
ROOT
HETATM    1  C8  UNL     1      23.935  26.642  18.601  1.00  0.00     0.178 C 
HETATM    2  N2  UNL     1      23.844  25.214  18.546  1.00  0.00    -0.346 N 
ATOM      3  H2  UNL     1      23.241  24.792  17.840  1.00  0.00     0.163 HD
HETATM    4  C9  UNL     1      24.549  24.361  19.425  1.00  0.00     0.240 C 
HETATM    5  O2  UNL     1      24.011  23.314  19.882  1.00  0.00    -0.271 OA
HETATM    6  C10 UNL     1      25.921  24.664  19.826  1.00  0.00     0.174 C 
HETATM    7  C11 UNL     1      26.769  23.456  19.360  1.00  0.00     0.042 C 
HETATM    8  N3  UNL     1      26.089  24.879  21.230  1.00  0.00    -0.342 N 
HETATM    9  C12 UNL     1      25.119  24.379  22.208  1.00  0.00     0.153 C 
HETATM   10  C13 UNL     1      27.217  25.580  21.699  1.00  0.00     0.243 C 
HETATM   11  O3  UNL     1      27.847  25.199  22.751  1.00  0.00    -0.271 OA
HETATM   12  C14 UNL     1      27.778  26.816  21.027  1.00  0.00     0.177 C 
HETATM   13  N4  UNL     1      29.104  26.453  20.588  1.00  0.00    -0.346 N 
ATOM     14  H4  UNL     1      29.824  26.363  21.306  1.00  0.00     0.163 HD
HETATM   15  C19 UNL     1      29.496  26.211  19.242  1.00  0.00     0.241 C 
HETATM   16  O4  UNL     1      30.384  25.343  19.052  1.00  0.00    -0.271 OA
HETATM   17  C20 UNL     1      28.905  26.932  18.072  1.00  0.00     0.177 C 
HETATM   18  N5  UNL     1      28.339  26.072  17.088  1.00  0.00    -0.346 N 
ATOM     19  H5  UNL     1      28.834  25.201  16.900  1.00  0.00     0.163 HD
HETATM   20  C25 UNL     1      27.163  26.304  16.348  1.00  0.00     0.241 C 
HETATM   21  O5  UNL     1      26.755  25.380  15.582  1.00  0.00    -0.271 OA
HETATM   22  C26 UNL     1      26.333  27.534  16.363  1.00  0.00     0.181 C 
HETATM   23  N7  UNL     1      24.931  27.161  16.274  1.00  0.00    -0.346 N 
ATOM     24  H7  UNL     1      24.640  26.770  15.379  1.00  0.00     0.163 HD
HETATM   25  C36 UNL     1      23.932  27.261  17.232  1.00  0.00     0.241 C 
HETATM   26  O6  UNL     1      22.909  27.939  16.938  1.00  0.00    -0.271 OA
ENDROOT
BRANCH  22  27
HETATM   27  C27 UNL     1      26.688  28.255  15.047  1.00  0.00     0.075 C 
BRANCH  27  28
HETATM   28  C28 UNL     1      27.279  29.579  15.300  1.00  0.00    -0.028 A 
HETATM   29  C29 UNL     1      26.682  30.627  15.949  1.00  0.00     0.096 A 
HETATM   30  N6  UNL     1      27.527  31.661  15.980  1.00  0.00    -0.365 N 
HETATM   31  C30 UNL     1      28.668  31.311  15.364  1.00  0.00     0.042 A 
ATOM     32  H6  UNL     1      27.336  32.569  16.404  1.00  0.00     0.165 HD
HETATM   33  C31 UNL     1      29.856  32.001  15.120  1.00  0.00     0.030 A 
HETATM   34  C35 UNL     1      28.527  30.017  14.935  1.00  0.00    -0.002 A 
HETATM   35  C32 UNL     1      30.915  31.422  14.451  1.00  0.00     0.002 A 
HETATM   36  C33 UNL     1      30.765  30.120  14.022  1.00  0.00     0.001 A 
HETATM   37  C34 UNL     1      29.596  29.442  14.263  1.00  0.00     0.014 A 
ENDBRANCH  27  28
ENDBRANCH  22  27
BRANCH  17  38
HETATM   38  C21 UNL     1      29.890  27.869  17.441  1.00  0.00     0.038 C 
BRANCH  38  39
HETATM   39  C22 UNL     1      30.452  28.940  18.293  1.00  0.00    -0.020 C 
HETATM   40  C23 UNL     1      31.545  29.775  17.684  1.00  0.00     0.009 C 
HETATM   41  C24 UNL     1      29.339  29.933  18.685  1.00  0.00     0.009 C 
ENDBRANCH  38  39
ENDBRANCH  17  38
BRANCH   1  42
HETATM   42  C7  UNL     1      22.882  27.177  19.509  1.00  0.00     0.054 C 
BRANCH  42  43
HETATM   43  C6  UNL     1      21.586  26.503  19.634  1.00  0.00     0.125 C 
BRANCH  43  44
HETATM   44  N1  UNL     1      20.598  26.708  18.608  1.00  0.00    -0.361 N 
HETATM   45  C5  UNL     1      20.103  25.568  17.913  1.00  0.00     0.217 C 
HETATM   46  O1  UNL     1      20.547  24.440  18.223  1.00  0.00    -0.274 OA
ATOM     47  H1  UNL     1      20.262  27.644  18.384  1.00  0.00     0.162 HD
BRANCH  45  48
HETATM   48  C4  UNL     1      19.088  25.731  16.852  1.00  0.00     0.106 C 
BRANCH  48  49
HETATM   49  C3  UNL     1      19.530  25.299  15.505  1.00  0.00     0.035 C 
BRANCH  49  50
HETATM   50  C2  UNL     1      20.268  26.315  14.756  1.00  0.00    -0.036 C 
HETATM   51  C1  UNL     1      19.999  27.603  14.663  1.00  0.00     0.007 C 
ENDBRANCH  49  50
ENDBRANCH  48  49
ENDBRANCH  45  48
ENDBRANCH  43  44
ENDBRANCH  42  43
ENDBRANCH   1  42
BRANCH  12  52
HETATM   52  C15 UNL     1      27.714  27.863  22.088  1.00  0.00     0.038 C 
BRANCH  52  53
HETATM   53  C16 UNL     1      28.874  28.750  22.271  1.00  0.00    -0.020 C 
HETATM   54  C17 UNL     1      28.331  30.192  22.387  1.00  0.00     0.009 C 
HETATM   55  C18 UNL     1      29.496  28.495  23.644  1.00  0.00     0.009 C 
ENDBRANCH  52  53
ENDBRANCH  12  52
TORSDOF 12
ENDMDL
MODEL 3
REMARK VINA RESULT: -6.899389885      2.472      6.877
REMARK  12 active torsions:
REMARK  status: ('A' for Active; 'I' for Inactive)
REMARK    1  A    between atoms: C2_2  and  C3_3 
REMARK    2  A    between atoms: C3_3  and  C4_4 
REMARK    3  A    between atoms: C4_4  and  C5_5 
REMARK       I    between atoms: C5_5  and  N1_7 
REMARK    4  A    between atoms: N1_7  and  C6_9 
REMARK    5  A    between atoms: C6_9  and  C7_10 
REMARK    6  A    between atoms: C7_10  and  C8_11 
REMARK    7  A    between atoms: C14_22  and  C15_23 
REMARK    8  A    between atoms: C15_23  and  C16_24 
REMARK    9  A    between atoms: C20_31  and  C21_32 
REMARK   10  A    between atoms: C21_32  and  C22_33 
REMARK   11  A    between atoms: C26_40  and  C27_41 
REMARK   12  A    between atoms: C27_41  and  C28_42 
ROOT
HETATM    1  C8  UNL     1      24.016  26.655  18.494  1.00  0.00     0.178 C 
HETATM    2  N2  UNL     1      23.946  25.225  18.446  1.00  0.00    -0.346 N 
ATOM      3  H2  UNL     1      23.354  24.791  17.738  1.00  0.00     0.163 HD
HETATM    4  C9  UNL     1      24.660  24.387  19.332  1.00  0.00     0.240 C 
HETATM    5  O2  UNL     1      24.135  23.335  19.792  1.00  0.00    -0.271 OA
HETATM    6  C10 UNL     1      26.025  24.713  19.739  1.00  0.00     0.174 C 
HETATM    7  C11 UNL     1      26.894  23.515  19.284  1.00  0.00     0.042 C 
HETATM    8  N3  UNL     1      26.183  24.936  21.143  1.00  0.00    -0.342 N 
HETATM    9  C12 UNL     1      25.214  24.427  22.119  1.00  0.00     0.153 C 
HETATM   10  C13 UNL     1      27.298  25.656  21.615  1.00  0.00     0.243 C 
HETATM   11  O3  UNL     1      27.927  25.290  22.671  1.00  0.00    -0.271 OA
HETATM   12  C14 UNL     1      27.843  26.897  20.940  1.00  0.00     0.177 C 
HETATM   13  N4  UNL     1      29.177  26.553  20.509  1.00  0.00    -0.346 N 
ATOM     14  H4  UNL     1      29.894  26.477  21.231  1.00  0.00     0.163 HD
HETATM   15  C19 UNL     1      29.580  26.310  19.166  1.00  0.00     0.241 C 
HETATM   16  O4  UNL     1      30.481  25.454  18.984  1.00  0.00    -0.271 OA
HETATM   17  C20 UNL     1      28.984  27.017  17.990  1.00  0.00     0.177 C 
HETATM   18  N5  UNL     1      28.436  26.144  17.007  1.00  0.00    -0.346 N 
ATOM     19  H5  UNL     1      28.945  25.279  16.826  1.00  0.00     0.163 HD
HETATM   20  C25 UNL     1      27.261  26.355  16.260  1.00  0.00     0.241 C 
HETATM   21  O5  UNL     1      26.870  25.422  15.496  1.00  0.00    -0.271 OA
HETATM   22  C26 UNL     1      26.412  27.572  16.265  1.00  0.00     0.181 C 
HETATM   23  N7  UNL     1      25.016  27.178  16.171  1.00  0.00    -0.346 N 
ATOM     24  H7  UNL     1      24.736  26.778  15.276  1.00  0.00     0.163 HD
HETATM   25  C36 UNL     1      24.010  27.268  17.123  1.00  0.00     0.241 C 
HETATM   26  O6  UNL     1      22.979  27.929  16.821  1.00  0.00    -0.271 OA
ENDROOT
BRANCH  22  27
HETATM   27  C27 UNL     1      26.763  28.292  14.947  1.00  0.00     0.075 C 
BRANCH  27  28
HETATM   28  C28 UNL     1      27.414  29.589  15.198  1.00  0.00    -0.028 A 
HETATM   29  C29 UNL     1      28.707  29.923  14.895  1.00  0.00     0.096 A 
HETATM   30  N6  UNL     1      28.933  31.183  15.274  1.00  0.00    -0.365 N 
HETATM   31  C30 UNL     1      27.813  31.683  15.820  1.00  0.00     0.042 A 
ATOM     32  H6  UNL     1      29.815  31.684  15.167  1.00  0.00     0.165 HD
HETATM   33  C31 UNL     1      27.507  32.929  16.368  1.00  0.00     0.030 A 
HETATM   34  C35 UNL     1      26.859  30.701  15.779  1.00  0.00    -0.002 A 
HETATM   35  C32 UNL     1      26.260  33.218  16.880  1.00  0.00     0.002 A 
HETATM   36  C33 UNL     1      25.304  32.224  16.835  1.00  0.00     0.001 A 
HETATM   37  C34 UNL     1      25.606  30.998  16.296  1.00  0.00     0.014 A 
ENDBRANCH  27  28
ENDBRANCH  22  27
BRANCH  17  38
HETATM   38  C21 UNL     1      29.957  27.965  17.359  1.00  0.00     0.038 C 
BRANCH  38  39
HETATM   39  C22 UNL     1      30.446  29.090  18.189  1.00  0.00    -0.020 C 
HETATM   40  C23 UNL     1      31.400  30.045  17.525  1.00  0.00     0.009 C 
HETATM   41  C24 UNL     1      29.254  29.949  18.656  1.00  0.00     0.009 C 
ENDBRANCH  38  39
ENDBRANCH  17  38
BRANCH   1  42
HETATM   42  C7  UNL     1      22.950  27.178  19.395  1.00  0.00     0.054 C 
BRANCH  42  43
HETATM   43  C6  UNL     1      21.655  26.500  19.496  1.00  0.00     0.125 C 
BRANCH  43  44
HETATM   44  N1  UNL     1      20.682  26.709  18.456  1.00  0.00    -0.361 N 
HETATM   45  C5  UNL     1      20.012  25.572  17.923  1.00  0.00     0.217 C 
HETATM   46  O1  UNL     1      20.296  24.443  18.379  1.00  0.00    -0.274 OA
ATOM     47  H1  UNL     1      20.478  27.646  18.110  1.00  0.00     0.162 HD
BRANCH  45  48
HETATM   48  C4  UNL     1      19.006  25.739  16.854  1.00  0.00     0.106 C 
BRANCH  48  49
HETATM   49  C3  UNL     1      19.466  25.334  15.504  1.00  0.00     0.035 C 
BRANCH  49  50
HETATM   50  C2  UNL     1      20.231  26.358  14.794  1.00  0.00    -0.036 C 
HETATM   51  C1  UNL     1      19.932  27.635  14.653  1.00  0.00     0.007 C 
ENDBRANCH  49  50
ENDBRANCH  48  49
ENDBRANCH  45  48
ENDBRANCH  43  44
ENDBRANCH  42  43
ENDBRANCH   1  42
BRANCH  12  52
HETATM   52  C15 UNL     1      27.758  27.948  21.996  1.00  0.00     0.038 C 
BRANCH  52  53
HETATM   53  C16 UNL     1      28.912  28.840  22.194  1.00  0.00    -0.020 C 
HETATM   54  C17 UNL     1      28.359  30.275  22.341  1.00  0.00     0.009 C 
HETATM   55  C18 UNL     1      29.538  28.562  23.562  1.00  0.00     0.009 C 
ENDBRANCH  52  53
ENDBRANCH  12  52
TORSDOF 12
ENDMDL
MODEL 4
REMARK VINA RESULT: -6.699473823      2.868      7.152
REMARK  12 active torsions:
REMARK  status: ('A' for Active; 'I' for Inactive)
REMARK    1  A    between atoms: C2_2  and  C3_3 
REMARK    2  A    between atoms: C3_3  and  C4_4 
REMARK    3  A    between atoms: C4_4  and  C5_5 
REMARK       I    between atoms: C5_5  and  N1_7 
REMARK    4  A    between atoms: N1_7  and  C6_9 
REMARK    5  A    between atoms: C6_9  and  C7_10 
REMARK    6  A    between atoms: C7_10  and  C8_11 
REMARK    7  A    between atoms: C14_22  and  C15_23 
REMARK    8  A    between atoms: C15_23  and  C16_24 
REMARK    9  A    between atoms: C20_31  and  C21_32 
REMARK   10  A    between atoms: C21_32  and  C22_33 
REMARK   11  A    between atoms: C26_40  and  C27_41 
REMARK   12  A    between atoms: C27_41  and  C28_42 
ROOT
HETATM    1  C8  UNL     1      23.981  26.657  18.470  1.00  0.00     0.178 C 
HETATM    2  N2  UNL     1      23.860  25.230  18.412  1.00  0.00    -0.346 N 
ATOM      3  H2  UNL     1      23.267  24.822  17.689  1.00  0.00     0.163 HD
HETATM    4  C9  UNL     1      24.524  24.361  19.307  1.00  0.00     0.240 C 
HETATM    5  O2  UNL     1      23.951  23.327  19.749  1.00  0.00    -0.271 OA
HETATM    6  C10 UNL     1      25.891  24.634  19.744  1.00  0.00     0.174 C 
HETATM    7  C11 UNL     1      26.724  23.407  19.298  1.00  0.00     0.042 C 
HETATM    8  N3  UNL     1      26.028  24.844  21.152  1.00  0.00    -0.342 N 
HETATM    9  C12 UNL     1      25.022  24.365  22.104  1.00  0.00     0.153 C 
HETATM   10  C13 UNL     1      27.159  25.519  21.651  1.00  0.00     0.243 C 
HETATM   11  O3  UNL     1      27.753  25.124  22.718  1.00  0.00    -0.271 OA
HETATM   12  C14 UNL     1      27.764  26.743  20.995  1.00  0.00     0.177 C 
HETATM   13  N4  UNL     1      29.092  26.351  20.590  1.00  0.00    -0.346 N 
ATOM     14  H4  UNL     1      29.791  26.245  21.325  1.00  0.00     0.163 HD
HETATM   15  C19 UNL     1      29.514  26.101  19.254  1.00  0.00     0.241 C 
HETATM   16  O4  UNL     1      30.387  25.214  19.085  1.00  0.00    -0.271 OA
HETATM   17  C20 UNL     1      28.969  26.836  18.070  1.00  0.00     0.177 C 
HETATM   18  N5  UNL     1      28.409  25.990  17.070  1.00  0.00    -0.346 N 
ATOM     19  H5  UNL     1      28.889  25.108  16.894  1.00  0.00     0.163 HD
HETATM   20  C25 UNL     1      27.259  26.249  16.300  1.00  0.00     0.241 C 
HETATM   21  O5  UNL     1      26.850  25.334  15.523  1.00  0.00    -0.271 OA
HETATM   22  C26 UNL     1      26.456  27.496  16.296  1.00  0.00     0.181 C 
HETATM   23  N7  UNL     1      25.049  27.155  16.171  1.00  0.00    -0.346 N 
ATOM     24  H7  UNL     1      24.772  26.771  15.268  1.00  0.00     0.163 HD
HETATM   25  C36 UNL     1      24.027  27.276  17.103  1.00  0.00     0.241 C 
HETATM   26  O6  UNL     1      23.027  27.977  16.784  1.00  0.00    -0.271 OA
ENDROOT
BRANCH  22  27
HETATM   27  C27 UNL     1      26.860  28.210  14.990  1.00  0.00     0.075 C 
BRANCH  27  28
HETATM   28  C28 UNL     1      27.429  29.542  15.257  1.00  0.00    -0.028 A 
HETATM   29  C29 UNL     1      26.811  30.576  15.908  1.00  0.00     0.096 A 
HETATM   30  N6  UNL     1      27.640  31.622  15.954  1.00  0.00    -0.365 N 
HETATM   31  C30 UNL     1      28.791  31.294  15.346  1.00  0.00     0.042 A 
ATOM     32  H6  UNL     1      27.431  32.524  16.381  1.00  0.00     0.165 HD
HETATM   33  C31 UNL     1      29.971  32.002  15.117  1.00  0.00     0.030 A 
HETATM   34  C35 UNL     1      28.673  30.000  14.907  1.00  0.00    -0.002 A 
HETATM   35  C32 UNL     1      31.044  31.444  14.455  1.00  0.00     0.002 A 
HETATM   36  C33 UNL     1      30.918  30.142  14.016  1.00  0.00     0.001 A 
HETATM   37  C34 UNL     1      29.757  29.445  14.242  1.00  0.00     0.014 A 
ENDBRANCH  27  28
ENDBRANCH  22  27
BRANCH  17  38
HETATM   38  C21 UNL     1      29.990  27.751  17.465  1.00  0.00     0.038 C 
BRANCH  38  39
HETATM   39  C22 UNL     1      30.491  28.861  18.306  1.00  0.00    -0.020 C 
HETATM   40  C23 UNL     1      31.547  29.741  17.693  1.00  0.00     0.009 C 
HETATM   41  C24 UNL     1      29.327  29.803  18.676  1.00  0.00     0.009 C 
ENDBRANCH  38  39
ENDBRANCH  17  38
BRANCH   1  42
HETATM   42  C7  UNL     1      22.917  27.214  19.352  1.00  0.00     0.054 C 
BRANCH  42  43
HETATM   43  C6  UNL     1      21.501  27.019  19.032  1.00  0.00     0.125 C 
BRANCH  43  44
HETATM   44  N1  UNL     1      20.656  26.368  19.998  1.00  0.00    -0.361 N 
HETATM   45  C5  UNL     1      20.351  24.991  19.805  1.00  0.00     0.217 C 
HETATM   46  O1  UNL     1      20.829  24.407  18.808  1.00  0.00    -0.274 OA
ATOM     47  H1  UNL     1      20.285  26.879  20.799  1.00  0.00     0.162 HD
BRANCH  45  48
HETATM   48  C4  UNL     1      19.488  24.281  20.771  1.00  0.00     0.106 C 
BRANCH  48  49
HETATM   49  C3  UNL     1      20.172  23.857  22.015  1.00  0.00     0.035 C 
BRANCH  49  50
HETATM   50  C2  UNL     1      20.993  22.655  21.874  1.00  0.00    -0.036 C 
HETATM   51  C1  UNL     1      20.733  21.581  21.154  1.00  0.00     0.007 C 
ENDBRANCH  49  50
ENDBRANCH  48  49
ENDBRANCH  45  48
ENDBRANCH  43  44
ENDBRANCH  42  43
ENDBRANCH   1  42
BRANCH  12  52
HETATM   52  C15 UNL     1      27.696  27.790  22.055  1.00  0.00     0.038 C 
BRANCH  52  53
HETATM   53  C16 UNL     1      28.867  28.657  22.263  1.00  0.00    -0.020 C 
HETATM   54  C17 UNL     1      28.345  30.106  22.389  1.00  0.00     0.009 C 
HETATM   55  C18 UNL     1      29.467  28.377  23.642  1.00  0.00     0.009 C 
ENDBRANCH  52  53
ENDBRANCH  12  52
TORSDOF 12
ENDMDL
MODEL 5
REMARK VINA RESULT: -6.694730922     11.880     18.243
REMARK  12 active torsions:
REMARK  status: ('A' for Active; 'I' for Inactive)
REMARK    1  A    between atoms: C2_2  and  C3_3 
REMARK    2  A    between atoms: C3_3  and  C4_4 
REMARK    3  A    between atoms: C4_4  and  C5_5 
REMARK       I    between atoms: C5_5  and  N1_7 
REMARK    4  A    between atoms: N1_7  and  C6_9 
REMARK    5  A    between atoms: C6_9  and  C7_10 
REMARK    6  A    between atoms: C7_10  and  C8_11 
REMARK    7  A    between atoms: C14_22  and  C15_23 
REMARK    8  A    between atoms: C15_23  and  C16_24 
REMARK    9  A    between atoms: C20_31  and  C21_32 
REMARK   10  A    between atoms: C21_32  and  C22_33 
REMARK   11  A    between atoms: C26_40  and  C27_41 
REMARK   12  A    between atoms: C27_41  and  C28_42 
ROOT
HETATM    1  C8  UNL     1      13.543  19.730  14.436  1.00  0.00     0.178 C 
HETATM    2  N2  UNL     1      12.484  20.693  14.368  1.00  0.00    -0.346 N 
ATOM      3  H2  UNL     1      12.423  21.291  13.544  1.00  0.00     0.163 HD
HETATM    4  C9  UNL     1      11.520  20.853  15.389  1.00  0.00     0.240 C 
HETATM    5  O2  UNL     1      11.107  22.000  15.716  1.00  0.00    -0.271 OA
HETATM    6  C10 UNL     1      10.971  19.696  16.092  1.00  0.00     0.174 C 
HETATM    7  C11 UNL     1       9.444  19.738  15.838  1.00  0.00     0.042 C 
HETATM    8  N3  UNL     1      11.242  19.678  17.497  1.00  0.00    -0.342 N 
HETATM    9  C12 UNL     1      11.596  20.897  18.229  1.00  0.00     0.153 C 
HETATM   10  C13 UNL     1      11.161  18.465  18.208  1.00  0.00     0.243 C 
HETATM   11  O3  UNL     1      10.635  18.414  19.378  1.00  0.00    -0.271 OA
HETATM   12  C14 UNL     1      11.674  17.143  17.676  1.00  0.00     0.177 C 
HETATM   13  N4  UNL     1      10.513  16.295  17.554  1.00  0.00    -0.346 N 
ATOM     14  H4  UNL     1      10.107  15.933  18.418  1.00  0.00     0.163 HD
HETATM   15  C19 UNL     1       9.885  15.917  16.335  1.00  0.00     0.241 C 
HETATM   16  O4  UNL     1       8.638  15.762  16.357  1.00  0.00    -0.271 OA
HETATM   17  C20 UNL     1      10.633  15.703  15.058  1.00  0.00     0.177 C 
HETATM   18  N5  UNL     1      10.170  16.502  13.974  1.00  0.00    -0.346 N 
ATOM     19  H5  UNL     1       9.163  16.647  13.908  1.00  0.00     0.163 HD
HETATM   20  C25 UNL     1      10.962  17.113  12.983  1.00  0.00     0.241 C 
HETATM   21  O5  UNL     1      10.384  17.872  12.148  1.00  0.00    -0.271 OA
HETATM   22  C26 UNL     1      12.427  16.965  12.802  1.00  0.00     0.181 C 
HETATM   23  N7  UNL     1      12.988  18.244  12.397  1.00  0.00    -0.346 N 
ATOM     24  H7  UNL     1      12.731  18.555  11.460  1.00  0.00     0.163 HD
HETATM   25  C36 UNL     1      13.822  19.102  13.100  1.00  0.00     0.241 C 
HETATM   26  O6  UNL     1      14.932  19.394  12.577  1.00  0.00    -0.271 OA
ENDROOT
BRANCH  22  27
HETATM   27  C27 UNL     1      12.573  16.012  11.599  1.00  0.00     0.075 C 
BRANCH  27  28
HETATM   28  C28 UNL     1      13.987  15.796  11.250  1.00  0.00    -0.028 A 
HETATM   29  C29 UNL     1      15.058  15.873  12.101  1.00  0.00     0.096 A 
HETATM   30  N6  UNL     1      16.177  15.617  11.420  1.00  0.00    -0.365 N 
HETATM   31  C30 UNL     1      15.863  15.373  10.137  1.00  0.00     0.042 A 
ATOM     32  H6  UNL     1      17.119  15.609  11.811  1.00  0.00     0.165 HD
HETATM   33  C31 UNL     1      16.637  15.059   9.021  1.00  0.00     0.030 A 
HETATM   34  C35 UNL     1      14.502  15.482  10.018  1.00  0.00    -0.002 A 
HETATM   35  C32 UNL     1      16.079  14.848   7.777  1.00  0.00     0.002 A 
HETATM   36  C33 UNL     1      14.709  14.959   7.664  1.00  0.00     0.001 A 
HETATM   37  C34 UNL     1      13.947  15.269   8.764  1.00  0.00     0.014 A 
ENDBRANCH  27  28
ENDBRANCH  22  27
BRANCH  17  38
HETATM   38  C21 UNL     1      10.661  14.257  14.664  1.00  0.00     0.038 C 
BRANCH  38  39
HETATM   39  C22 UNL     1       9.591  13.779  13.758  1.00  0.00    -0.020 C 
HETATM   40  C23 UNL     1      10.031  13.283  12.408  1.00  0.00     0.009 C 
HETATM   41  C24 UNL     1       8.843  12.600  14.412  1.00  0.00     0.009 C 
ENDBRANCH  38  39
ENDBRANCH  17  38
BRANCH   1  42
HETATM   42  C7  UNL     1      14.739  20.346  15.076  1.00  0.00     0.054 C 
BRANCH  42  43
HETATM   43  C6  UNL     1      14.820  21.795  15.276  1.00  0.00     0.125 C 
BRANCH  43  44
HETATM   44  N1  UNL     1      15.102  22.297  16.595  1.00  0.00    -0.361 N 
HETATM   45  C5  UNL     1      16.449  22.266  17.053  1.00  0.00     0.217 C 
HETATM   46  O1  UNL     1      17.328  21.804  16.292  1.00  0.00    -0.274 OA
ATOM     47  H1  UNL     1      14.357  22.666  17.186  1.00  0.00     0.162 HD
BRANCH  45  48
HETATM   48  C4  UNL     1      16.786  22.770  18.400  1.00  0.00     0.106 C 
BRANCH  48  49
HETATM   49  C3  UNL     1      17.229  21.728  19.356  1.00  0.00     0.035 C 
BRANCH  49  50
HETATM   50  C2  UNL     1      16.180  20.791  19.758  1.00  0.00    -0.036 C 
HETATM   51  C1  UNL     1      15.077  21.055  20.431  1.00  0.00     0.007 C 
ENDBRANCH  49  50
ENDBRANCH  48  49
ENDBRANCH  45  48
ENDBRANCH  43  44
ENDBRANCH  42  43
ENDBRANCH   1  42
BRANCH  12  52
HETATM   52  C15 UNL     1      12.682  16.714  18.690  1.00  0.00     0.038 C 
BRANCH  52  53
HETATM   53  C16 UNL     1      13.575  17.732  19.268  1.00  0.00    -0.020 C 
HETATM   54  C17 UNL     1      13.428  17.648  20.803  1.00  0.00     0.009 C 
HETATM   55  C18 UNL     1      15.029  17.324  19.029  1.00  0.00     0.009 C 
ENDBRANCH  52  53
ENDBRANCH  12  52
TORSDOF 12
ENDMDL
