MODEL 1
REMARK VINA RESULT: -8.963587697      0.000      0.000
REMARK  13 active torsions:
REMARK  status: ('A' for Active; 'I' for Inactive)
REMARK    1  A    between atoms: C2_2  and  C4_4 
REMARK    2  A    between atoms: C4_4  and  C5_5 
REMARK    3  A    between atoms: C7_10  and  C8_11 
REMARK    4  A    between atoms: C12_18  and  C13_19 
REMARK    5  A    between atoms: C13_19  and  C14_20 
REMARK    6  A    between atoms: C14_20  and  C15_21 
REMARK    7  A    between atoms: C15_21  and  C16_22 
REMARK    8  A    between atoms: C18_27  and  O3_28 
REMARK    9  A    between atoms: C19_30  and  C20_31 
REMARK   10  A    between atoms: C20_31  and  C21_32 
REMARK   11  A    between atoms: C30_46  and  C31_47 
REMARK   12  A    between atoms: C31_47  and  C32_48 
REMARK   13  A    between atoms: C32_48  and  N7_49 
ROOT
HETATM    1  C16 UNL     1      24.354  23.200  19.614  1.00  0.00     0.124 C 
HETATM    2  C17 UNL     1      24.825  21.887  19.225  1.00  0.00     0.059 C 
HETATM    3  N3  UNL     1      25.191  20.844  18.902  1.00  0.00    -0.197 NA
ENDROOT
BRANCH   1   4
HETATM    4  C15 UNL     1      23.312  23.043  20.701  1.00  0.00     0.014 C 
BRANCH   4   5
HETATM    5  C14 UNL     1      22.081  22.307  20.148  1.00  0.00     0.004 C 
BRANCH   5   6
HETATM    6  C13 UNL     1      21.093  22.264  21.252  1.00  0.00     0.035 C 
BRANCH   6   7
HETATM    7  C12 UNL     1      19.713  22.843  20.890  1.00  0.00     0.175 C 
HETATM    8  C11 UNL     1      19.649  24.202  21.429  1.00  0.00     0.241 C 
HETATM    9  N2  UNL     1      19.931  25.440  20.847  1.00  0.00    -0.346 N 
HETATM   10  O2  UNL     1      19.258  24.265  22.661  1.00  0.00    -0.271 OA
HETATM   11  C7  UNL     1      21.003  25.807  19.953  1.00  0.00     0.180 C 
ATOM     12  H2  UNL     1      19.287  26.193  21.088  1.00  0.00     0.163 HD
HETATM   13  C6  UNL     1      20.593  27.029  19.209  1.00  0.00     0.241 C 
HETATM   14  N1  UNL     1      20.317  27.161  17.862  1.00  0.00    -0.346 N 
HETATM   15  O1  UNL     1      20.489  28.083  19.936  1.00  0.00    -0.271 OA
HETATM   16  C5  UNL     1      21.189  26.657  16.761  1.00  0.00     0.177 C 
ATOM     17  H1  UNL     1      19.454  27.638  17.601  1.00  0.00     0.163 HD
HETATM   18  C36 UNL     1      20.288  26.433  15.581  1.00  0.00     0.241 C 
HETATM   19  N8  UNL     1      18.986  25.905  15.644  1.00  0.00    -0.346 N 
HETATM   20  O5  UNL     1      20.734  26.742  14.450  1.00  0.00    -0.271 OA
HETATM   21  C30 UNL     1      18.535  24.749  16.387  1.00  0.00     0.178 C 
ATOM     22  H8  UNL     1      18.276  26.395  15.102  1.00  0.00     0.163 HD
HETATM   23  C29 UNL     1      17.492  25.118  17.383  1.00  0.00     0.241 C 
HETATM   24  N6  UNL     1      17.223  24.478  18.596  1.00  0.00    -0.347 N 
HETATM   25  O4  UNL     1      16.794  26.142  17.041  1.00  0.00    -0.271 OA
HETATM   26  C19 UNL     1      17.106  23.034  18.799  1.00  0.00     0.163 C 
ATOM     27  H6  UNL     1      17.098  25.072  19.415  1.00  0.00     0.163 HD
HETATM   28  C18 UNL     1      18.414  22.336  18.730  1.00  0.00     0.135 C 
HETATM   29  N4  UNL     1      19.558  22.697  19.470  1.00  0.00    -0.359 N 
ATOM     30  H4  UNL     1      20.396  22.881  18.918  1.00  0.00     0.162 HD
BRANCH  11  31
HETATM   31  C8  UNL     1      22.248  26.046  20.796  1.00  0.00     0.009 C 
HETATM   32  C9  UNL     1      21.965  26.669  22.125  1.00  0.00     0.012 C 
HETATM   33  C10 UNL     1      23.346  26.748  20.079  1.00  0.00     0.012 C 
ENDBRANCH  11  31
BRANCH  16  34
HETATM   34  C4  UNL     1      22.156  27.783  16.530  1.00  0.00     0.038 C 
BRANCH  34  35
HETATM   35  C2  UNL     1      23.585  27.458  16.718  1.00  0.00    -0.020 C 
HETATM   36  C1  UNL     1      24.072  26.591  15.521  1.00  0.00     0.009 C 
HETATM   37  C3  UNL     1      24.469  28.712  16.680  1.00  0.00     0.009 C 
ENDBRANCH  34  35
ENDBRANCH  16  34
BRANCH  21  38
HETATM   38  C31 UNL     1      17.833  23.833  15.367  1.00  0.00     0.063 C 
BRANCH  38  39
HETATM   39  C32 UNL     1      16.369  24.203  15.261  1.00  0.00     0.238 C 
BRANCH  39  40
HETATM   40  N7  UNL     1      15.548  23.098  14.863  1.00  0.00    -0.079 N 
HETATM   41  C33 UNL     1      14.156  23.419  15.224  1.00  0.00     0.271 C 
HETATM   42  C34 UNL     1      15.851  21.860  15.520  1.00  0.00     0.271 C 
HETATM   43  C35 UNL     1      15.528  22.892  13.417  1.00  0.00     0.271 C 
ENDBRANCH  39  40
ENDBRANCH  38  39
ENDBRANCH  21  38
BRANCH  26  44
HETATM   44  C20 UNL     1      16.333  22.724  20.068  1.00  0.00     0.074 C 
BRANCH  44  45
HETATM   45  C21 UNL     1      15.137  21.910  19.639  1.00  0.00    -0.028 A 
HETATM   46  C22 UNL     1      14.123  22.314  18.799  1.00  0.00     0.096 A 
HETATM   47  N5  UNL     1      13.285  21.281  18.686  1.00  0.00    -0.365 N 
HETATM   48  C23 UNL     1      13.728  20.248  19.418  1.00  0.00     0.042 A 
ATOM     49  H5  UNL     1      12.433  21.278  18.125  1.00  0.00     0.165 HD
HETATM   50  C24 UNL     1      13.236  18.957  19.644  1.00  0.00     0.030 A 
HETATM   51  C28 UNL     1      14.905  20.613  20.039  1.00  0.00    -0.002 A 
HETATM   52  C25 UNL     1      13.941  18.110  20.472  1.00  0.00     0.002 A 
HETATM   53  C26 UNL     1      15.109  18.465  21.091  1.00  0.00     0.001 A 
HETATM   54  C27 UNL     1      15.597  19.746  20.866  1.00  0.00     0.014 A 
ENDBRANCH  44  45
ENDBRANCH  26  44
BRANCH  28  55
HETATM   55  O3  UNL     1      18.479  21.323  17.917  1.00  0.00    -0.348 OA
ATOM     56  H3  UNL     1      18.649  21.480  16.995  1.00  0.00     0.219 HD
ENDBRANCH  28  55
ENDBRANCH   6   7
ENDBRANCH   5   6
ENDBRANCH   4   5
ENDBRANCH   1   4
TORSDOF 13
ENDMDL
MODEL 2
REMARK VINA RESULT: -7.371805636      2.499      9.814
REMARK  13 active torsions:
REMARK  status: ('A' for Active; 'I' for Inactive)
REMARK    1  A    between atoms: C2_2  and  C4_4 
REMARK    2  A    between atoms: C4_4  and  C5_5 
REMARK    3  A    between atoms: C7_10  and  C8_11 
REMARK    4  A    between atoms: C12_18  and  C13_19 
REMARK    5  A    between atoms: C13_19  and  C14_20 
REMARK    6  A    between atoms: C14_20  and  C15_21 
REMARK    7  A    between atoms: C15_21  and  C16_22 
REMARK    8  A    between atoms: C18_27  and  O3_28 
REMARK    9  A    between atoms: C19_30  and  C20_31 
REMARK   10  A    between atoms: C20_31  and  C21_32 
REMARK   11  A    between atoms: C30_46  and  C31_47 
REMARK   12  A    between atoms: C31_47  and  C32_48 
REMARK   13  A    between atoms: C32_48  and  N7_49 
ROOT
HETATM    1  C16 UNL     1      14.669  20.069  12.794  1.00  0.00     0.124 C 
HETATM    2  C17 UNL     1      13.825  18.895  12.847  1.00  0.00     0.059 C 
HETATM    3  N3  UNL     1      13.160  17.954  12.876  1.00  0.00    -0.197 NA
ENDROOT
BRANCH   1   4
HETATM    4  C15 UNL     1      13.866  21.225  12.237  1.00  0.00     0.014 C 
BRANCH   4   5
HETATM    5  C14 UNL     1      14.346  22.547  12.858  1.00  0.00     0.004 C 
BRANCH   5   6
HETATM    6  C13 UNL     1      15.500  22.204  13.723  1.00  0.00     0.035 C 
BRANCH   6   7
HETATM    7  C12 UNL     1      15.586  23.026  15.022  1.00  0.00     0.175 C 
HETATM    8  C11 UNL     1      14.224  23.199  15.526  1.00  0.00     0.241 C 
HETATM    9  N2  UNL     1      13.483  22.463  16.455  1.00  0.00    -0.346 N 
HETATM   10  O2  UNL     1      13.597  24.215  15.025  1.00  0.00    -0.271 OA
HETATM   11  C7  UNL     1      13.408  21.033  16.639  1.00  0.00     0.180 C 
ATOM     12  H2  UNL     1      12.914  23.016  17.095  1.00  0.00     0.163 HD
HETATM   13  C6  UNL     1      12.945  20.765  18.027  1.00  0.00     0.241 C 
HETATM   14  N1  UNL     1      13.648  20.193  19.071  1.00  0.00    -0.346 N 
HETATM   15  O1  UNL     1      11.733  21.120  18.261  1.00  0.00    -0.271 OA
HETATM   16  C5  UNL     1      14.431  18.927  18.976  1.00  0.00     0.177 C 
ATOM     17  H1  UNL     1      13.629  20.671  19.971  1.00  0.00     0.163 HD
HETATM   18  C36 UNL     1      15.485  19.005  20.043  1.00  0.00     0.241 C 
HETATM   19  N8  UNL     1      16.201  20.163  20.392  1.00  0.00    -0.346 N 
HETATM   20  O5  UNL     1      15.745  17.951  20.673  1.00  0.00    -0.271 OA
HETATM   21  C30 UNL     1      16.831  21.116  19.505  1.00  0.00     0.178 C 
ATOM     22  H8  UNL     1      16.287  20.355  21.390  1.00  0.00     0.163 HD
HETATM   23  C29 UNL     1      16.255  22.478  19.675  1.00  0.00     0.241 C 
HETATM   24  N6  UNL     1      16.169  23.482  18.707  1.00  0.00    -0.347 N 
HETATM   25  O4  UNL     1      15.803  22.701  20.858  1.00  0.00    -0.271 OA
HETATM   26  C19 UNL     1      17.239  23.895  17.799  1.00  0.00     0.163 C 
ATOM     27  H6  UNL     1      15.278  23.972  18.627  1.00  0.00     0.163 HD
HETATM   28  C18 UNL     1      17.502  22.899  16.731  1.00  0.00     0.135 C 
HETATM   29  N4  UNL     1      16.519  22.354  15.880  1.00  0.00    -0.359 N 
ATOM     30  H4  UNL     1      16.462  21.335  15.874  1.00  0.00     0.162 HD
BRANCH  11  31
HETATM   31  C8  UNL     1      12.441  20.483  15.600  1.00  0.00     0.009 C 
HETATM   32  C9  UNL     1      11.461  21.493  15.094  1.00  0.00     0.012 C 
HETATM   33  C10 UNL     1      11.771  19.216  16.001  1.00  0.00     0.012 C 
ENDBRANCH  11  31
BRANCH  16  34
HETATM   34  C4  UNL     1      13.415  17.858  19.259  1.00  0.00     0.038 C 
BRANCH  34  35
HETATM   35  C2  UNL     1      12.367  18.205  20.243  1.00  0.00    -0.020 C 
HETATM   36  C1  UNL     1      10.971  17.907  19.625  1.00  0.00     0.009 C 
HETATM   37  C3  UNL     1      12.441  17.322  21.495  1.00  0.00     0.009 C 
ENDBRANCH  34  35
ENDBRANCH  16  34
BRANCH  21  38
HETATM   38  C31 UNL     1      18.297  21.222  19.962  1.00  0.00     0.063 C 
BRANCH  38  39
HETATM   39  C32 UNL     1      18.629  22.658  20.307  1.00  0.00     0.238 C 
BRANCH  39  40
HETATM   40  N7  UNL     1      19.991  22.826  20.718  1.00  0.00    -0.079 N 
HETATM   41  C33 UNL     1      20.001  23.728  21.883  1.00  0.00     0.271 C 
HETATM   42  C34 UNL     1      20.841  23.437  19.738  1.00  0.00     0.271 C 
HETATM   43  C35 UNL     1      20.602  21.587  21.192  1.00  0.00     0.271 C 
ENDBRANCH  39  40
ENDBRANCH  38  39
ENDBRANCH  21  38
BRANCH  26  44
HETATM   44  C20 UNL     1      16.987  25.292  17.261  1.00  0.00     0.074 C 
BRANCH  44  45
HETATM   45  C21 UNL     1      18.205  25.650  16.445  1.00  0.00    -0.028 A 
HETATM   46  C22 UNL     1      18.340  25.553  15.078  1.00  0.00     0.096 A 
HETATM   47  N5  UNL     1      19.569  25.983  14.782  1.00  0.00    -0.365 N 
HETATM   48  C23 UNL     1      20.210  26.346  15.904  1.00  0.00     0.042 A 
ATOM     49  H5  UNL     1      19.962  26.029  13.842  1.00  0.00     0.165 HD
HETATM   50  C24 UNL     1      21.491  26.855  16.149  1.00  0.00     0.030 A 
HETATM   51  C28 UNL     1      19.372  26.148  16.981  1.00  0.00    -0.002 A 
HETATM   52  C25 UNL     1      21.860  27.132  17.448  1.00  0.00     0.002 A 
HETATM   53  C26 UNL     1      21.035  26.938  18.522  1.00  0.00     0.001 A 
HETATM   54  C27 UNL     1      19.763  26.434  18.277  1.00  0.00     0.014 A 
ENDBRANCH  44  45
ENDBRANCH  26  44
BRANCH  28  55
HETATM   55  O3  UNL     1      18.739  22.520  16.595  1.00  0.00    -0.348 OA
ATOM     56  H3  UNL     1      19.252  22.867  15.874  1.00  0.00     0.219 HD
ENDBRANCH  28  55
ENDBRANCH   6   7
ENDBRANCH   5   6
ENDBRANCH   4   5
ENDBRANCH   1   4
TORSDOF 13
ENDMDL
MODEL 3
REMARK VINA RESULT: -7.287444031      4.115     11.029
REMARK  13 active torsions:
REMARK  status: ('A' for Active; 'I' for Inactive)
REMARK    1  A    between atoms: C2_2  and  C4_4 
REMARK    2  A    between atoms: C4_4  and  C5_5 
REMARK    3  A    between atoms: C7_10  and  C8_11 
REMARK    4  A    between atoms: C12_18  and  C13_19 
REMARK    5  A    between atoms: C13_19  and  C14_20 
REMARK    6  A    between atoms: C14_20  and  C15_21 
REMARK    7  A    between atoms: C15_21  and  C16_22 
REMARK    8  A    between atoms: C18_27  and  O3_28 
REMARK    9  A    between atoms: C19_30  and  C20_31 
REMARK   10  A    between atoms: C20_31  and  C21_32 
REMARK   11  A    between atoms: C30_46  and  C31_47 
REMARK   12  A    between atoms: C31_47  and  C32_48 
REMARK   13  A    between atoms: C32_48  and  N7_49 
ROOT
HETATM    1  C16 UNL     1      13.535  18.543  13.241  1.00  0.00     0.124 C 
HETATM    2  C17 UNL     1      12.958  17.469  12.460  1.00  0.00     0.059 C 
HETATM    3  N3  UNL     1      12.514  16.609  11.835  1.00  0.00    -0.197 NA
ENDROOT
BRANCH   1   4
HETATM    4  C15 UNL     1      13.441  19.829  12.448  1.00  0.00     0.014 C 
BRANCH   4   5
HETATM    5  C14 UNL     1      14.565  20.790  12.870  1.00  0.00     0.004 C 
BRANCH   5   6
HETATM    6  C13 UNL     1      13.913  22.089  13.161  1.00  0.00     0.035 C 
BRANCH   6   7
HETATM    7  C12 UNL     1      13.785  22.412  14.661  1.00  0.00     0.175 C 
HETATM    8  C11 UNL     1      12.383  22.731  14.927  1.00  0.00     0.241 C 
HETATM    9  N2  UNL     1      11.322  21.934  15.366  1.00  0.00    -0.346 N 
HETATM   10  O2  UNL     1      12.073  23.970  14.721  1.00  0.00    -0.271 OA
HETATM   11  C7  UNL     1      10.982  20.581  15.000  1.00  0.00     0.180 C 
ATOM     12  H2  UNL     1      10.699  22.373  16.044  1.00  0.00     0.163 HD
HETATM   13  C6  UNL     1      10.138  20.003  16.081  1.00  0.00     0.241 C 
HETATM   14  N1  UNL     1      10.449  18.980  16.958  1.00  0.00    -0.346 N 
HETATM   15  O1  UNL     1       8.977  20.540  16.195  1.00  0.00    -0.271 OA
HETATM   16  C5  UNL     1      11.024  17.662  16.559  1.00  0.00     0.177 C 
ATOM     17  H1  UNL     1      10.272  19.138  17.950  1.00  0.00     0.163 HD
HETATM   18  C36 UNL     1      11.764  17.147  17.760  1.00  0.00     0.241 C 
HETATM   19  N8  UNL     1      12.536  17.932  18.634  1.00  0.00    -0.346 N 
HETATM   20  O5  UNL     1      11.686  15.918  18.000  1.00  0.00    -0.271 OA
HETATM   21  C30 UNL     1      13.514  18.940  18.291  1.00  0.00     0.178 C 
ATOM     22  H8  UNL     1      12.389  17.771  19.631  1.00  0.00     0.163 HD
HETATM   23  C29 UNL     1      13.132  20.273  18.833  1.00  0.00     0.241 C 
HETATM   24  N6  UNL     1      13.457  21.523  18.299  1.00  0.00    -0.347 N 
HETATM   25  O4  UNL     1      12.429  20.208  19.907  1.00  0.00    -0.271 OA
HETATM   26  C19 UNL     1      14.776  21.938  17.823  1.00  0.00     0.163 C 
ATOM     27  H6  UNL     1      12.705  22.208  18.235  1.00  0.00     0.163 HD
HETATM   28  C18 UNL     1      15.149  21.301  16.536  1.00  0.00     0.135 C 
HETATM   29  N4  UNL     1      14.348  21.301  15.376  1.00  0.00    -0.359 N 
ATOM     30  H4  UNL     1      14.138  20.381  14.989  1.00  0.00     0.162 HD
BRANCH  11  31
HETATM   31  C8  UNL     1      10.243  20.633  13.670  1.00  0.00     0.009 C 
HETATM   32  C9  UNL     1       9.148  21.650  13.628  1.00  0.00     0.012 C 
HETATM   33  C10 UNL     1       9.785  19.307  13.173  1.00  0.00     0.012 C 
ENDBRANCH  11  31
BRANCH  16  34
HETATM   34  C4  UNL     1       9.817  16.830  16.237  1.00  0.00     0.038 C 
BRANCH  34  35
HETATM   35  C2  UNL     1       9.775  16.248  14.879  1.00  0.00    -0.020 C 
HETATM   36  C1  UNL     1      10.927  15.212  14.734  1.00  0.00     0.009 C 
HETATM   37  C3  UNL     1       8.490  15.445  14.638  1.00  0.00     0.009 C 
ENDBRANCH  34  35
ENDBRANCH  16  34
BRANCH  21  38
HETATM   38  C31 UNL     1      14.810  18.547  19.023  1.00  0.00     0.063 C 
BRANCH  38  39
HETATM   39  C32 UNL     1      14.508  18.221  20.470  1.00  0.00     0.238 C 
BRANCH  39  40
HETATM   40  N7  UNL     1      15.165  19.107  21.384  1.00  0.00    -0.079 N 
HETATM   41  C33 UNL     1      16.192  18.333  22.102  1.00  0.00     0.271 C 
HETATM   42  C34 UNL     1      14.313  19.664  22.394  1.00  0.00     0.271 C 
HETATM   43  C35 UNL     1      15.896  20.180  20.715  1.00  0.00     0.271 C 
ENDBRANCH  39  40
ENDBRANCH  38  39
ENDBRANCH  21  38
BRANCH  26  44
HETATM   44  C20 UNL     1      14.892  23.452  17.792  1.00  0.00     0.074 C 
BRANCH  44  45
HETATM   45  C21 UNL     1      16.296  23.771  18.243  1.00  0.00    -0.028 A 
HETATM   46  C22 UNL     1      16.807  23.625  19.514  1.00  0.00     0.096 A 
HETATM   47  N5  UNL     1      18.083  24.014  19.461  1.00  0.00    -0.365 N 
HETATM   48  C23 UNL     1      18.395  24.397  18.213  1.00  0.00     0.042 A 
ATOM     49  H5  UNL     1      18.727  24.018  20.253  1.00  0.00     0.165 HD
HETATM   50  C24 UNL     1      19.571  24.881  17.629  1.00  0.00     0.030 A 
HETATM   51  C28 UNL     1      17.281  24.256  17.412  1.00  0.00    -0.002 A 
HETATM   52  C25 UNL     1      19.568  25.195  16.287  1.00  0.00     0.002 A 
HETATM   53  C26 UNL     1      18.467  25.059  15.485  1.00  0.00     0.001 A 
HETATM   54  C27 UNL     1      17.300  24.578  16.067  1.00  0.00     0.014 A 
ENDBRANCH  44  45
ENDBRANCH  26  44
BRANCH  28  55
HETATM   55  O3  UNL     1      16.305  20.704  16.507  1.00  0.00    -0.348 OA
ATOM     56  H3  UNL     1      16.528  20.094  17.201  1.00  0.00     0.219 HD
ENDBRANCH  28  55
ENDBRANCH   6   7
ENDBRANCH   5   6
ENDBRANCH   4   5
ENDBRANCH   1   4
TORSDOF 13
ENDMDL
MODEL 4
REMARK VINA RESULT: -7.166929818      6.395     12.657
REMARK  13 active torsions:
REMARK  status: ('A' for Active; 'I' for Inactive)
REMARK    1  A    between atoms: C2_2  and  C4_4 
REMARK    2  A    between atoms: C4_4  and  C5_5 
REMARK    3  A    between atoms: C7_10  and  C8_11 
REMARK    4  A    between atoms: C12_18  and  C13_19 
REMARK    5  A    between atoms: C13_19  and  C14_20 
REMARK    6  A    between atoms: C14_20  and  C15_21 
REMARK    7  A    between atoms: C15_21  and  C16_22 
REMARK    8  A    between atoms: C18_27  and  O3_28 
REMARK    9  A    between atoms: C19_30  and  C20_31 
REMARK   10  A    between atoms: C20_31  and  C21_32 
REMARK   11  A    between atoms: C30_46  and  C31_47 
REMARK   12  A    between atoms: C31_47  and  C32_48 
REMARK   13  A    between atoms: C32_48  and  N7_49 
ROOT
HETATM    1  C16 UNL     1      15.869  15.544  11.336  1.00  0.00     0.124 C 
HETATM    2  C17 UNL     1      16.751  15.906  10.247  1.00  0.00     0.059 C 
HETATM    3  N3  UNL     1      17.458  16.207   9.389  1.00  0.00    -0.197 NA
ENDROOT
BRANCH   1   4
HETATM    4  C15 UNL     1      14.450  15.916  10.961  1.00  0.00     0.014 C 
BRANCH   4   5
HETATM    5  C14 UNL     1      13.690  16.410  12.203  1.00  0.00     0.004 C 
BRANCH   5   6
HETATM    6  C13 UNL     1      12.393  16.935  11.713  1.00  0.00     0.035 C 
BRANCH   6   7
HETATM    7  C12 UNL     1      11.874  18.161  12.486  1.00  0.00     0.175 C 
HETATM    8  C11 UNL     1      10.420  18.039  12.583  1.00  0.00     0.241 C 
HETATM    9  N2  UNL     1       9.603  17.502  13.583  1.00  0.00    -0.346 N 
HETATM   10  O2  UNL     1       9.778  18.515  11.565  1.00  0.00    -0.271 OA
HETATM   11  C7  UNL     1       9.793  16.312  14.377  1.00  0.00     0.180 C 
ATOM     12  H2  UNL     1       8.751  18.027  13.778  1.00  0.00     0.163 HD
HETATM   13  C6  UNL     1       8.981  16.445  15.617  1.00  0.00     0.241 C 
HETATM   14  N1  UNL     1       9.421  16.582  16.920  1.00  0.00    -0.346 N 
HETATM   15  O1  UNL     1       7.711  16.429  15.425  1.00  0.00    -0.271 OA
HETATM   16  C5  UNL     1      10.454  15.719  17.565  1.00  0.00     0.177 C 
ATOM     17  H1  UNL     1       9.009  17.326  17.483  1.00  0.00     0.163 HD
HETATM   18  C36 UNL     1      11.065  16.543  18.660  1.00  0.00     0.241 C 
HETATM   19  N8  UNL     1      11.356  17.916  18.576  1.00  0.00    -0.346 N 
HETATM   20  O5  UNL     1      11.337  15.958  19.737  1.00  0.00    -0.271 OA
HETATM   21  C30 UNL     1      12.009  18.618  17.493  1.00  0.00     0.178 C 
ATOM     22  H8  UNL     1      11.073  18.485  19.373  1.00  0.00     0.163 HD
HETATM   23  C29 UNL     1      11.122  19.662  16.912  1.00  0.00     0.241 C 
HETATM   24  N6  UNL     1      11.130  20.136  15.597  1.00  0.00    -0.347 N 
HETATM   25  O4  UNL     1      10.277  20.145  17.752  1.00  0.00    -0.271 OA
HETATM   26  C19 UNL     1      12.315  20.514  14.826  1.00  0.00     0.163 C 
ATOM     27  H6  UNL     1      10.227  20.227  15.132  1.00  0.00     0.163 HD
HETATM   28  C18 UNL     1      13.120  19.342  14.400  1.00  0.00     0.135 C 
HETATM   29  N4  UNL     1      12.608  18.219  13.718  1.00  0.00    -0.359 N 
ATOM     30  H4  UNL     1      12.783  17.319  14.165  1.00  0.00     0.162 HD
BRANCH  11  31
HETATM   31  C8  UNL     1       9.356  15.120  13.537  1.00  0.00     0.009 C 
HETATM   32  C9  UNL     1      10.494  14.312  13.002  1.00  0.00     0.012 C 
HETATM   33  C10 UNL     1       8.365  15.450  12.477  1.00  0.00     0.012 C 
ENDBRANCH  11  31
BRANCH  16  34
HETATM   34  C4  UNL     1       9.664  14.559  18.100  1.00  0.00     0.038 C 
BRANCH  34  35
HETATM   35  C2  UNL     1       9.794  13.288  17.356  1.00  0.00    -0.020 C 
HETATM   36  C1  UNL     1       8.476  13.020  16.573  1.00  0.00     0.009 C 
HETATM   37  C3  UNL     1      10.884  13.364  16.278  1.00  0.00     0.009 C 
ENDBRANCH  34  35
ENDBRANCH  16  34
BRANCH  21  38
HETATM   38  C31 UNL     1      13.190  19.377  18.125  1.00  0.00     0.063 C 
BRANCH  38  39
HETATM   39  C32 UNL     1      13.071  19.355  19.634  1.00  0.00     0.238 C 
BRANCH  39  40
HETATM   40  N7  UNL     1      14.344  19.296  20.287  1.00  0.00    -0.079 N 
HETATM   41  C33 UNL     1      14.779  17.888  20.297  1.00  0.00     0.271 C 
HETATM   42  C34 UNL     1      14.334  19.716  21.658  1.00  0.00     0.271 C 
HETATM   43  C35 UNL     1      15.392  20.012  19.564  1.00  0.00     0.271 C 
ENDBRANCH  39  40
ENDBRANCH  38  39
ENDBRANCH  21  38
BRANCH  26  44
HETATM   44  C20 UNL     1      11.945  21.431  13.674  1.00  0.00     0.074 C 
BRANCH  44  45
HETATM   45  C21 UNL     1      13.238  22.052  13.205  1.00  0.00    -0.028 A 
HETATM   46  C22 UNL     1      13.709  22.098  11.911  1.00  0.00     0.096 A 
HETATM   47  N5  UNL     1      14.876  22.746  11.951  1.00  0.00    -0.365 N 
HETATM   48  C23 UNL     1      15.157  23.109  13.213  1.00  0.00     0.042 A 
ATOM     49  H5  UNL     1      15.467  22.937  11.142  1.00  0.00     0.165 HD
HETATM   50  C24 UNL     1      16.230  23.795  13.792  1.00  0.00     0.030 A 
HETATM   51  C28 UNL     1      14.136  22.683  14.037  1.00  0.00    -0.002 A 
HETATM   52  C25 UNL     1      16.224  24.014  15.153  1.00  0.00     0.002 A 
HETATM   53  C26 UNL     1      15.216  23.596  15.977  1.00  0.00     0.001 A 
HETATM   54  C27 UNL     1      14.150  22.915  15.401  1.00  0.00     0.014 A 
ENDBRANCH  44  45
ENDBRANCH  26  44
BRANCH  28  55
HETATM   55  O3  UNL     1      14.387  19.382  14.693  1.00  0.00    -0.348 OA
ATOM     56  H3  UNL     1      14.718  20.102  15.216  1.00  0.00     0.219 HD
ENDBRANCH  28  55
ENDBRANCH   6   7
ENDBRANCH   5   6
ENDBRANCH   4   5
ENDBRANCH   1   4
TORSDOF 13
ENDMDL
MODEL 5
REMARK VINA RESULT: -7.129882144      2.647      8.321
REMARK  13 active torsions:
REMARK  status: ('A' for Active; 'I' for Inactive)
REMARK    1  A    between atoms: C2_2  and  C4_4 
REMARK    2  A    between atoms: C4_4  and  C5_5 
REMARK    3  A    between atoms: C7_10  and  C8_11 
REMARK    4  A    between atoms: C12_18  and  C13_19 
REMARK    5  A    between atoms: C13_19  and  C14_20 
REMARK    6  A    between atoms: C14_20  and  C15_21 
REMARK    7  A    between atoms: C15_21  and  C16_22 
REMARK    8  A    between atoms: C18_27  and  O3_28 
REMARK    9  A    between atoms: C19_30  and  C20_31 
REMARK   10  A    between atoms: C20_31  and  C21_32 
REMARK   11  A    between atoms: C30_46  and  C31_47 
REMARK   12  A    between atoms: C31_47  and  C32_48 
REMARK   13  A    between atoms: C32_48  and  N7_49 
ROOT
HETATM    1  C16 UNL     1      20.325  24.388  21.879  1.00  0.00     0.124 C 
HETATM    2  C17 UNL     1      21.056  25.637  21.889  1.00  0.00     0.059 C 
HETATM    3  N3  UNL     1      21.631  26.635  21.912  1.00  0.00    -0.197 NA
ENDROOT
BRANCH   1   4
HETATM    4  C15 UNL     1      19.115  24.536  20.982  1.00  0.00     0.014 C 
BRANCH   4   5
HETATM    5  C14 UNL     1      17.831  24.549  21.828  1.00  0.00     0.004 C 
BRANCH   5   6
HETATM    6  C13 UNL     1      16.932  23.531  21.233  1.00  0.00     0.035 C 
BRANCH   6   7
HETATM    7  C12 UNL     1      17.360  23.047  19.835  1.00  0.00     0.175 C 
HETATM    8  C11 UNL     1      17.573  21.602  19.913  1.00  0.00     0.241 C 
HETATM    9  N2  UNL     1      16.722  20.528  19.639  1.00  0.00    -0.346 N 
HETATM   10  O2  UNL     1      18.760  21.261  20.300  1.00  0.00    -0.271 OA
HETATM   11  C7  UNL     1      15.319  20.373  19.939  1.00  0.00     0.180 C 
ATOM     12  H2  UNL     1      17.156  19.740  19.159  1.00  0.00     0.163 HD
HETATM   13  C6  UNL     1      14.755  19.351  19.016  1.00  0.00     0.241 C 
HETATM   14  N1  UNL     1      13.837  19.527  17.998  1.00  0.00    -0.346 N 
HETATM   15  O1  UNL     1      15.194  18.159  19.210  1.00  0.00    -0.271 OA
HETATM   16  C5  UNL     1      12.548  20.267  18.133  1.00  0.00     0.177 C 
ATOM     17  H1  UNL     1      14.056  19.121  17.089  1.00  0.00     0.163 HD
HETATM   18  C36 UNL     1      12.197  20.752  16.756  1.00  0.00     0.241 C 
HETATM   19  N8  UNL     1      13.114  21.252  15.815  1.00  0.00    -0.346 N 
HETATM   20  O5  UNL     1      10.988  20.707  16.421  1.00  0.00    -0.271 OA
HETATM   21  C30 UNL     1      14.175  22.210  16.033  1.00  0.00     0.178 C 
ATOM     22  H8  UNL     1      13.019  20.896  14.863  1.00  0.00     0.163 HD
HETATM   23  C29 UNL     1      15.507  21.624  15.718  1.00  0.00     0.241 C 
HETATM   24  N6  UNL     1      16.735  21.973  16.287  1.00  0.00    -0.347 N 
HETATM   25  O4  UNL     1      15.465  20.704  14.822  1.00  0.00    -0.271 OA
HETATM   26  C19 UNL     1      17.228  23.333  16.503  1.00  0.00     0.163 C 
ATOM     27  H6  UNL     1      17.343  21.208  16.579  1.00  0.00     0.163 HD
HETATM   28  C18 UNL     1      16.526  24.029  17.610  1.00  0.00     0.135 C 
HETATM   29  N4  UNL     1      16.364  23.511  18.911  1.00  0.00    -0.359 N 
ATOM     30  H4  UNL     1      15.401  23.457  19.243  1.00  0.00     0.162 HD
BRANCH  11  31
HETATM   31  C8  UNL     1      15.200  19.950  21.396  1.00  0.00     0.009 C 
HETATM   32  C9  UNL     1      16.152  18.867  21.789  1.00  0.00     0.012 C 
HETATM   33  C10 UNL     1      13.810  19.651  21.834  1.00  0.00     0.012 C 
ENDBRANCH  11  31
BRANCH  16  34
HETATM   34  C4  UNL     1      11.589  19.223  18.628  1.00  0.00     0.038 C 
BRANCH  34  35
HETATM   35  C2  UNL     1      11.799  17.854  18.113  1.00  0.00    -0.020 C 
HETATM   36  C1  UNL     1      11.919  16.871  19.313  1.00  0.00     0.009 C 
HETATM   37  C3  UNL     1      10.591  17.351  17.311  1.00  0.00     0.009 C 
ENDBRANCH  34  35
ENDBRANCH  16  34
BRANCH  21  38
HETATM   38  C31 UNL     1      13.958  23.332  15.002  1.00  0.00     0.063 C 
BRANCH  38  39
HETATM   39  C32 UNL     1      13.362  22.761  13.733  1.00  0.00     0.238 C 
BRANCH  39  40
HETATM   40  N7  UNL     1      14.284  22.770  12.637  1.00  0.00    -0.079 N 
HETATM   41  C33 UNL     1      13.851  23.813  11.692  1.00  0.00     0.271 C 
HETATM   42  C34 UNL     1      14.332  21.550  11.886  1.00  0.00     0.271 C 
HETATM   43  C35 UNL     1      15.637  23.154  13.032  1.00  0.00     0.271 C 
ENDBRANCH  39  40
ENDBRANCH  38  39
ENDBRANCH  21  38
BRANCH  26  44
HETATM   44  C20 UNL     1      18.738  23.347  16.654  1.00  0.00     0.074 C 
BRANCH  44  45
HETATM   45  C21 UNL     1      19.201  24.668  16.089  1.00  0.00    -0.028 A 
HETATM   46  C22 UNL     1      18.824  25.229  14.888  1.00  0.00     0.096 A 
HETATM   47  N5  UNL     1      19.462  26.398  14.794  1.00  0.00    -0.365 N 
HETATM   48  C23 UNL     1      20.221  26.596  15.883  1.00  0.00     0.042 A 
ATOM     49  H5  UNL     1      19.383  27.045  14.010  1.00  0.00     0.165 HD
HETATM   50  C24 UNL     1      21.070  27.635  16.279  1.00  0.00     0.030 A 
HETATM   51  C28 UNL     1      20.079  25.515  16.728  1.00  0.00    -0.002 A 
HETATM   52  C25 UNL     1      21.726  27.537  17.487  1.00  0.00     0.002 A 
HETATM   53  C26 UNL     1      21.590  26.468  18.331  1.00  0.00     0.001 A 
HETATM   54  C27 UNL     1      20.747  25.437  17.937  1.00  0.00     0.014 A 
ENDBRANCH  44  45
ENDBRANCH  26  44
BRANCH  28  55
HETATM   55  O3  UNL     1      16.034  25.200  17.329  1.00  0.00    -0.348 OA
ATOM     56  H3  UNL     1      15.106  25.280  17.145  1.00  0.00     0.219 HD
ENDBRANCH  28  55
ENDBRANCH   6   7
ENDBRANCH   5   6
ENDBRANCH   4   5
ENDBRANCH   1   4
TORSDOF 13
ENDMDL
