MODEL 1
REMARK VINA RESULT: -9.467057387      0.000      0.000
REMARK  11 active torsions:
REMARK  status: ('A' for Active; 'I' for Inactive)
REMARK    1  A    between atoms: C3_3  and  O1_4 
REMARK    2  A    between atoms: O1_4  and  C4_5 
REMARK       I    between atoms: N2_12  and  C9_14 
REMARK    3  A    between atoms: C9_14  and  C10_16 
REMARK    4  A    between atoms: C10_16  and  C11_17 
REMARK    5  A    between atoms: C11_17  and  C12_18 
REMARK    6  A    between atoms: C12_18  and  C13_19 
REMARK    7  A    between atoms: C13_19  and  N3_20 
REMARK    8  A    between atoms: C18_28  and  C19_29 
REMARK    9  A    between atoms: N6_35  and  C23_37 
REMARK   10  A    between atoms: C23_37  and  C24_38 
REMARK   11  A    between atoms: C24_38  and  N7_39 
ROOT
HETATM    1  C1  UNL     1      19.042  24.096  15.456  1.00  0.00     0.055 C 
HETATM    2  C2  UNL     1      19.084  23.905  16.907  1.00  0.00     0.016 A 
HETATM    3  C3  UNL     1      18.600  22.815  17.529  1.00  0.00     0.089 A 
HETATM    4  C17 UNL     1      18.741  22.737  18.936  1.00  0.00     0.063 A 
HETATM    5  C18 UNL     1      19.351  23.748  19.624  1.00  0.00     0.017 A 
HETATM    6  N5  UNL     1      19.832  24.836  18.999  1.00  0.00    -0.345 N 
ATOM      7  H5  UNL     1      20.285  25.585  19.522  1.00  0.00     0.167 HD
HETATM    8  C22 UNL     1      19.698  24.907  17.672  1.00  0.00     0.110 A 
HETATM    9  N6  UNL     1      20.151  25.942  17.058  1.00  0.00    -0.374 N 
ATOM     10  H6  UNL     1      20.038  25.977  16.045  1.00  0.00     0.161 HD
ENDROOT
BRANCH   3  11
HETATM   11  O1  UNL     1      17.978  21.767  16.910  1.00  0.00    -0.293 OA
BRANCH  11  12
HETATM   12  C4  UNL     1      16.647  21.512  16.913  1.00  0.00     0.149 A 
HETATM   13  C5  UNL     1      15.754  22.251  16.116  1.00  0.00     0.059 A 
HETATM   14  C6  UNL     1      14.415  22.036  16.081  1.00  0.00     0.037 A 
HETATM   15  C7  UNL     1      13.837  21.019  16.876  1.00  0.00     0.068 A 
HETATM   16  N1  UNL     1      12.565  20.694  16.949  1.00  0.00    -0.334 N 
HETATM   17  C16 UNL     1      14.722  20.314  17.641  1.00  0.00     0.106 A 
HETATM   18  C8  UNL     1      12.215  19.700  17.763  1.00  0.00     0.153 A 
ATOM     19  H1  UNL     1      11.866  21.189  16.396  1.00  0.00     0.168 HD
HETATM   20  N2  UNL     1      11.012  19.245  17.959  1.00  0.00    -0.307 N 
HETATM   21  S1  UNL     1      13.693  19.205  18.443  1.00  0.00    -0.034 SA
HETATM   22  C9  UNL     1      10.746  18.193  18.840  1.00  0.00     0.223 C 
ATOM     23  H2  UNL     1      10.235  19.671  17.453  1.00  0.00     0.171 HD
HETATM   24  O2  UNL     1      10.821  18.450  20.072  1.00  0.00    -0.273 OA
HETATM   25  N4  UNL     1      16.073  20.569  17.644  1.00  0.00    -0.329 N 
ATOM     26  H4  UNL     1      16.669  19.998  18.244  1.00  0.00     0.168 HD
BRANCH  22  27
HETATM   27  C10 UNL     1      10.391  16.830  18.429  1.00  0.00     0.103 C 
BRANCH  27  28
HETATM   28  C11 UNL     1      11.113  16.263  17.279  1.00  0.00     0.011 C 
BRANCH  28  29
HETATM   29  C12 UNL     1      10.467  16.175  15.964  1.00  0.00     0.031 C 
BRANCH  29  30
HETATM   30  C13 UNL     1       9.580  15.021  15.686  1.00  0.00     0.271 C 
BRANCH  30  31
HETATM   31  N3  UNL     1      10.069  13.805  16.339  1.00  0.00     0.080 N 
HETATM   32  C14 UNL     1      10.360  12.857  15.244  1.00  0.00     0.309 C 
HETATM   33  C15 UNL     1       8.953  13.205  17.064  1.00  0.00     0.309 C 
ENDBRANCH  30  31
ENDBRANCH  29  30
ENDBRANCH  28  29
ENDBRANCH  27  28
ENDBRANCH  22  27
ENDBRANCH  11  12
ENDBRANCH   3  11
BRANCH   5  34
HETATM   34  C19 UNL     1      19.485  23.629  21.114  1.00  0.00     0.036 A 
HETATM   35  C20 UNL     1      19.742  22.301  21.695  1.00  0.00     0.011 A 
HETATM   36  C21 UNL     1      20.864  23.256  21.619  1.00  0.00     0.011 A 
ENDBRANCH   5  34
BRANCH   9  37
HETATM   37  C23 UNL     1      20.800  27.046  17.691  1.00  0.00     0.151 C 
BRANCH  37  38
HETATM   38  C24 UNL     1      22.297  27.060  17.575  1.00  0.00     0.292 C 
BRANCH  38  39
HETATM   39  N7  UNL     1      22.738  27.548  16.287  1.00  0.00     0.093 N 
HETATM   40  C25 UNL     1      24.012  28.183  16.410  1.00  0.00     0.300 C 
HETATM   41  C26 UNL     1      24.458  28.911  15.161  1.00  0.00     0.262 C 
HETATM   42  N8  UNL     1      23.403  29.738  14.613  1.00  0.00    -0.072 N 
HETATM   43  C27 UNL     1      22.171  28.990  14.437  1.00  0.00     0.262 C 
ATOM     44  H82 UNL     1      23.252  30.573  15.179  1.00  0.00     0.277 HD
ATOM     45  H81 UNL     1      23.694  30.185  13.744  1.00  0.00     0.277 HD
HETATM   46  C28 UNL     1      21.729  28.417  15.751  1.00  0.00     0.300 C 
ENDBRANCH  38  39
ENDBRANCH  37  38
ENDBRANCH   9  37
TORSDOF 11
ENDMDL
MODEL 2
REMARK VINA RESULT: -9.371138278      0.849      1.173
REMARK  11 active torsions:
REMARK  status: ('A' for Active; 'I' for Inactive)
REMARK    1  A    between atoms: C3_3  and  O1_4 
REMARK    2  A    between atoms: O1_4  and  C4_5 
REMARK       I    between atoms: N2_12  and  C9_14 
REMARK    3  A    between atoms: C9_14  and  C10_16 
REMARK    4  A    between atoms: C10_16  and  C11_17 
REMARK    5  A    between atoms: C11_17  and  C12_18 
REMARK    6  A    between atoms: C12_18  and  C13_19 
REMARK    7  A    between atoms: C13_19  and  N3_20 
REMARK    8  A    between atoms: C18_28  and  C19_29 
REMARK    9  A    between atoms: N6_35  and  C23_37 
REMARK   10  A    between atoms: C23_37  and  C24_38 
REMARK   11  A    between atoms: C24_38  and  N7_39 
ROOT
HETATM    1  C1  UNL     1      18.979  24.065  15.413  1.00  0.00     0.055 C 
HETATM    2  C2  UNL     1      19.041  23.855  16.860  1.00  0.00     0.016 A 
HETATM    3  C3  UNL     1      18.592  22.745  17.472  1.00  0.00     0.089 A 
HETATM    4  C17 UNL     1      18.750  22.651  18.876  1.00  0.00     0.063 A 
HETATM    5  C18 UNL     1      19.342  23.667  19.572  1.00  0.00     0.017 A 
HETATM    6  N5  UNL     1      19.787  24.776  18.957  1.00  0.00    -0.345 N 
ATOM      7  H5  UNL     1      20.227  25.529  19.486  1.00  0.00     0.167 HD
HETATM    8  C22 UNL     1      19.638  24.862  17.632  1.00  0.00     0.110 A 
HETATM    9  N6  UNL     1      20.057  25.917  17.029  1.00  0.00    -0.374 N 
ATOM     10  H6  UNL     1      19.932  25.963  16.017  1.00  0.00     0.161 HD
ENDROOT
BRANCH   3  11
HETATM   11  O1  UNL     1      17.991  21.690  16.845  1.00  0.00    -0.293 OA
BRANCH  11  12
HETATM   12  C4  UNL     1      16.662  21.420  16.829  1.00  0.00     0.149 A 
HETATM   13  C5  UNL     1      15.783  22.106  15.973  1.00  0.00     0.059 A 
HETATM   14  C6  UNL     1      14.447  21.875  15.917  1.00  0.00     0.037 A 
HETATM   15  C7  UNL     1      13.860  20.894  16.750  1.00  0.00     0.068 A 
HETATM   16  N1  UNL     1      12.589  20.559  16.809  1.00  0.00    -0.334 N 
HETATM   17  C16 UNL     1      14.732  20.240  17.572  1.00  0.00     0.106 A 
HETATM   18  C8  UNL     1      12.230  19.605  17.665  1.00  0.00     0.153 A 
ATOM     19  H1  UNL     1      11.899  21.017  16.215  1.00  0.00     0.168 HD
HETATM   20  N2  UNL     1      11.026  19.147  17.856  1.00  0.00    -0.307 N 
HETATM   21  S1  UNL     1      13.694  19.163  18.405  1.00  0.00    -0.034 SA
HETATM   22  C9  UNL     1      10.749  18.140  18.784  1.00  0.00     0.223 C 
ATOM     23  H2  UNL     1      10.258  19.538  17.309  1.00  0.00     0.171 HD
HETATM   24  O2  UNL     1      10.791  18.461  20.003  1.00  0.00    -0.273 OA
HETATM   25  N4  UNL     1      16.080  20.510  17.594  1.00  0.00    -0.329 N 
ATOM     26  H4  UNL     1      16.666  19.977  18.238  1.00  0.00     0.168 HD
BRANCH  22  27
HETATM   27  C10 UNL     1      10.417  16.753  18.436  1.00  0.00     0.103 C 
BRANCH  27  28
HETATM   28  C11 UNL     1      10.918  16.243  17.151  1.00  0.00     0.011 C 
BRANCH  28  29
HETATM   29  C12 UNL     1      10.071  15.393  16.306  1.00  0.00     0.031 C 
BRANCH  29  30
HETATM   30  C13 UNL     1       9.812  15.814  14.909  1.00  0.00     0.271 C 
BRANCH  30  31
HETATM   31  N3  UNL     1      11.036  15.769  14.106  1.00  0.00     0.080 N 
HETATM   32  C14 UNL     1      10.916  16.879  13.139  1.00  0.00     0.309 C 
HETATM   33  C15 UNL     1      10.994  14.559  13.290  1.00  0.00     0.309 C 
ENDBRANCH  30  31
ENDBRANCH  29  30
ENDBRANCH  28  29
ENDBRANCH  27  28
ENDBRANCH  22  27
ENDBRANCH  11  12
ENDBRANCH   3  11
BRANCH   5  34
HETATM   34  C19 UNL     1      19.495  23.531  21.059  1.00  0.00     0.036 A 
HETATM   35  C20 UNL     1      19.821  22.209  21.615  1.00  0.00     0.011 A 
HETATM   36  C21 UNL     1      20.896  23.218  21.546  1.00  0.00     0.011 A 
ENDBRANCH   5  34
BRANCH   9  37
HETATM   37  C23 UNL     1      20.684  27.028  17.670  1.00  0.00     0.151 C 
BRANCH  37  38
HETATM   38  C24 UNL     1      22.184  27.045  17.598  1.00  0.00     0.292 C 
BRANCH  38  39
HETATM   39  N7  UNL     1      22.662  27.521  16.319  1.00  0.00     0.093 N 
HETATM   40  C25 UNL     1      23.941  28.141  16.470  1.00  0.00     0.300 C 
HETATM   41  C26 UNL     1      24.426  28.857  15.229  1.00  0.00     0.262 C 
HETATM   42  N8  UNL     1      23.394  29.694  14.652  1.00  0.00    -0.072 N 
HETATM   43  C27 UNL     1      22.158  28.961  14.450  1.00  0.00     0.262 C 
ATOM     44  H82 UNL     1      23.241  30.534  15.210  1.00  0.00     0.277 HD
ATOM     45  H81 UNL     1      23.712  30.133  13.787  1.00  0.00     0.277 HD
HETATM   46  C28 UNL     1      21.677  28.400  15.755  1.00  0.00     0.300 C 
ENDBRANCH  38  39
ENDBRANCH  37  38
ENDBRANCH   9  37
TORSDOF 11
ENDMDL
MODEL 3
REMARK VINA RESULT: -9.335761185      3.278     11.477
REMARK  11 active torsions:
REMARK  status: ('A' for Active; 'I' for Inactive)
REMARK    1  A    between atoms: C3_3  and  O1_4 
REMARK    2  A    between atoms: O1_4  and  C4_5 
REMARK       I    between atoms: N2_12  and  C9_14 
REMARK    3  A    between atoms: C9_14  and  C10_16 
REMARK    4  A    between atoms: C10_16  and  C11_17 
REMARK    5  A    between atoms: C11_17  and  C12_18 
REMARK    6  A    between atoms: C12_18  and  C13_19 
REMARK    7  A    between atoms: C13_19  and  N3_20 
REMARK    8  A    between atoms: C18_28  and  C19_29 
REMARK    9  A    between atoms: N6_35  and  C23_37 
REMARK   10  A    between atoms: C23_37  and  C24_38 
REMARK   11  A    between atoms: C24_38  and  N7_39 
ROOT
HETATM    1  C1  UNL     1      14.173  22.622  16.207  1.00  0.00     0.055 C 
HETATM    2  C2  UNL     1      13.845  21.408  16.957  1.00  0.00     0.016 A 
HETATM    3  C3  UNL     1      14.079  21.260  18.273  1.00  0.00     0.089 A 
HETATM    4  C17 UNL     1      13.675  20.049  18.886  1.00  0.00     0.063 A 
HETATM    5  C18 UNL     1      13.069  19.071  18.147  1.00  0.00     0.017 A 
HETATM    6  N5  UNL     1      12.838  19.223  16.832  1.00  0.00    -0.345 N 
ATOM      7  H5  UNL     1      12.385  18.488  16.290  1.00  0.00     0.167 HD
HETATM    8  C22 UNL     1      13.220  20.367  16.257  1.00  0.00     0.110 A 
HETATM    9  N6  UNL     1      13.008  20.528  14.999  1.00  0.00    -0.374 N 
ATOM     10  H6  UNL     1      13.307  21.408  14.578  1.00  0.00     0.161 HD
ENDROOT
BRANCH   3  11
HETATM   11  O1  UNL     1      14.679  22.189  19.075  1.00  0.00    -0.293 OA
BRANCH  11  12
HETATM   12  C4  UNL     1      15.987  22.546  19.045  1.00  0.00     0.149 A 
HETATM   13  C5  UNL     1      17.002  21.657  19.440  1.00  0.00     0.059 A 
HETATM   14  C6  UNL     1      18.323  21.964  19.428  1.00  0.00     0.037 A 
HETATM   15  C7  UNL     1      18.753  23.242  19.000  1.00  0.00     0.068 A 
HETATM   16  N1  UNL     1      19.990  23.684  18.933  1.00  0.00    -0.334 N 
HETATM   17  C16 UNL     1      17.751  24.089  18.620  1.00  0.00     0.106 A 
HETATM   18  C8  UNL     1      20.192  24.927  18.501  1.00  0.00     0.153 A 
ATOM     19  H1  UNL     1      20.773  23.090  19.204  1.00  0.00     0.168 HD
HETATM   20  N2  UNL     1      21.340  25.527  18.371  1.00  0.00    -0.307 N 
HETATM   21  S1  UNL     1      18.622  25.495  18.180  1.00  0.00    -0.034 SA
HETATM   22  C9  UNL     1      21.447  26.841  17.908  1.00  0.00     0.223 C 
ATOM     23  H2  UNL     1      22.191  25.019  18.614  1.00  0.00     0.171 HD
HETATM   24  O2  UNL     1      21.092  27.754  18.701  1.00  0.00    -0.273 OA
HETATM   25  N4  UNL     1      16.423  23.733  18.650  1.00  0.00    -0.329 N 
ATOM     26  H4  UNL     1      15.734  24.422  18.351  1.00  0.00     0.168 HD
BRANCH  22  27
HETATM   27  C10 UNL     1      21.940  27.220  16.578  1.00  0.00     0.103 C 
BRANCH  27  28
HETATM   28  C11 UNL     1      21.764  26.244  15.492  1.00  0.00     0.011 C 
BRANCH  28  29
HETATM   29  C12 UNL     1      20.483  26.140  14.784  1.00  0.00     0.031 C 
BRANCH  29  30
HETATM   30  C13 UNL     1      19.815  24.819  14.716  1.00  0.00     0.271 C 
BRANCH  30  31
HETATM   31  N3  UNL     1      18.509  24.917  14.062  1.00  0.00     0.080 N 
HETATM   32  C14 UNL     1      18.117  26.336  14.170  1.00  0.00     0.309 C 
HETATM   33  C15 UNL     1      17.539  24.199  14.885  1.00  0.00     0.309 C 
ENDBRANCH  30  31
ENDBRANCH  29  30
ENDBRANCH  28  29
ENDBRANCH  27  28
ENDBRANCH  22  27
ENDBRANCH  11  12
ENDBRANCH   3  11
BRANCH   5  34
HETATM   34  C19 UNL     1      12.652  17.803  18.832  1.00  0.00     0.036 A 
HETATM   35  C20 UNL     1      12.420  17.829  20.285  1.00  0.00     0.011 A 
HETATM   36  C21 UNL     1      11.244  17.795  19.394  1.00  0.00     0.011 A 
ENDBRANCH   5  34
BRANCH   9  37
HETATM   37  C23 UNL     1      12.385  19.565  14.147  1.00  0.00     0.151 C 
BRANCH  37  38
HETATM   38  C24 UNL     1      11.167  20.052  13.414  1.00  0.00     0.292 C 
BRANCH  38  39
HETATM   39  N7  UNL     1      10.540  19.001  12.644  1.00  0.00     0.093 N 
HETATM   40  C25 UNL     1      11.205  17.757  12.874  1.00  0.00     0.300 C 
HETATM   41  C26 UNL     1      10.758  16.643  11.953  1.00  0.00     0.262 C 
HETATM   42  N8  UNL     1      10.709  17.074  10.570  1.00  0.00    -0.072 N 
HETATM   43  C27 UNL     1       9.939  18.295  10.416  1.00  0.00     0.262 C 
ATOM     44  H82 UNL     1      11.645  17.173  10.178  1.00  0.00     0.277 HD
ATOM     45  H81 UNL     1      10.358  16.333   9.963  1.00  0.00     0.277 HD
HETATM   46  C28 UNL     1      10.532  19.384  11.259  1.00  0.00     0.300 C 
ENDBRANCH  38  39
ENDBRANCH  37  38
ENDBRANCH   9  37
TORSDOF 11
ENDMDL
MODEL 4
REMARK VINA RESULT: -9.319672199      2.594     12.305
REMARK  11 active torsions:
REMARK  status: ('A' for Active; 'I' for Inactive)
REMARK    1  A    between atoms: C3_3  and  O1_4 
REMARK    2  A    between atoms: O1_4  and  C4_5 
REMARK       I    between atoms: N2_12  and  C9_14 
REMARK    3  A    between atoms: C9_14  and  C10_16 
REMARK    4  A    between atoms: C10_16  and  C11_17 
REMARK    5  A    between atoms: C11_17  and  C12_18 
REMARK    6  A    between atoms: C12_18  and  C13_19 
REMARK    7  A    between atoms: C13_19  and  N3_20 
REMARK    8  A    between atoms: C18_28  and  C19_29 
REMARK    9  A    between atoms: N6_35  and  C23_37 
REMARK   10  A    between atoms: C23_37  and  C24_38 
REMARK   11  A    between atoms: C24_38  and  N7_39 
ROOT
HETATM    1  C1  UNL     1      13.535  19.319  20.055  1.00  0.00     0.055 C 
HETATM    2  C2  UNL     1      13.474  19.888  18.709  1.00  0.00     0.016 A 
HETATM    3  C3  UNL     1      14.018  21.072  18.375  1.00  0.00     0.089 A 
HETATM    4  C17 UNL     1      13.923  21.488  17.024  1.00  0.00     0.063 A 
HETATM    5  C18 UNL     1      13.293  20.700  16.103  1.00  0.00     0.017 A 
HETATM    6  N5  UNL     1      12.749  19.518  16.441  1.00  0.00    -0.345 N 
ATOM      7  H5  UNL     1      12.281  18.938  15.746  1.00  0.00     0.167 HD
HETATM    8  C22 UNL     1      12.841  19.128  17.715  1.00  0.00     0.110 A 
HETATM    9  N6  UNL     1      12.324  18.001  18.056  1.00  0.00    -0.374 N 
ATOM     10  H6  UNL     1      12.404  17.721  19.034  1.00  0.00     0.161 HD
ENDROOT
BRANCH   3  11
HETATM   11  O1  UNL     1      14.661  21.914  19.237  1.00  0.00    -0.293 OA
BRANCH  11  12
HETATM   12  C4  UNL     1      15.952  22.320  19.146  1.00  0.00     0.149 A 
HETATM   13  C5  UNL     1      17.019  21.451  19.436  1.00  0.00     0.059 A 
HETATM   14  C6  UNL     1      18.326  21.807  19.359  1.00  0.00     0.037 A 
HETATM   15  C7  UNL     1      18.684  23.118  18.967  1.00  0.00     0.068 A 
HETATM   16  N1  UNL     1      19.899  23.607  18.847  1.00  0.00    -0.334 N 
HETATM   17  C16 UNL     1      17.633  23.944  18.689  1.00  0.00     0.106 A 
HETATM   18  C8  UNL     1      20.032  24.875  18.464  1.00  0.00     0.153 A 
ATOM     19  H1  UNL     1      20.718  23.030  19.042  1.00  0.00     0.168 HD
HETATM   20  N2  UNL     1      21.149  25.521  18.293  1.00  0.00    -0.307 N 
HETATM   21  S1  UNL     1      18.427  25.399  18.265  1.00  0.00    -0.034 SA
HETATM   22  C9  UNL     1      21.184  26.858  17.887  1.00  0.00     0.223 C 
ATOM     23  H2  UNL     1      22.030  25.034  18.460  1.00  0.00     0.171 HD
HETATM   24  O2  UNL     1      20.847  27.721  18.743  1.00  0.00    -0.273 OA
HETATM   25  N4  UNL     1      16.323  23.538  18.782  1.00  0.00    -0.329 N 
ATOM     26  H4  UNL     1      15.593  24.215  18.558  1.00  0.00     0.168 HD
BRANCH  22  27
HETATM   27  C10 UNL     1      21.580  27.314  16.550  1.00  0.00     0.103 C 
BRANCH  27  28
HETATM   28  C11 UNL     1      21.727  26.290  15.505  1.00  0.00     0.011 C 
BRANCH  28  29
HETATM   29  C12 UNL     1      20.621  26.001  14.584  1.00  0.00     0.031 C 
BRANCH  29  30
HETATM   30  C13 UNL     1      19.795  24.794  14.824  1.00  0.00     0.271 C 
BRANCH  30  31
HETATM   31  N3  UNL     1      18.493  24.901  14.164  1.00  0.00     0.080 N 
HETATM   32  C14 UNL     1      18.068  26.303  14.350  1.00  0.00     0.309 C 
HETATM   33  C15 UNL     1      17.532  24.116  14.934  1.00  0.00     0.309 C 
ENDBRANCH  30  31
ENDBRANCH  29  30
ENDBRANCH  28  29
ENDBRANCH  27  28
ENDBRANCH  22  27
ENDBRANCH  11  12
ENDBRANCH   3  11
BRANCH   5  34
HETATM   34  C19 UNL     1      13.214  21.172  14.680  1.00  0.00     0.036 A 
HETATM   35  C20 UNL     1      14.246  22.098  14.187  1.00  0.00     0.011 A 
HETATM   36  C21 UNL     1      14.322  20.686  13.767  1.00  0.00     0.011 A 
ENDBRANCH   5  34
BRANCH   9  37
HETATM   37  C23 UNL     1      11.647  17.112  17.167  1.00  0.00     0.151 C 
BRANCH  37  38
HETATM   38  C24 UNL     1      10.148  17.129  17.263  1.00  0.00     0.292 C 
BRANCH  38  39
HETATM   39  N7  UNL     1       9.565  15.854  16.907  1.00  0.00     0.093 N 
HETATM   40  C25 UNL     1       9.717  14.926  17.982  1.00  0.00     0.300 C 
HETATM   41  C26 UNL     1       9.332  13.507  17.627  1.00  0.00     0.262 C 
HETATM   42  N8  UNL     1       9.906  13.092  16.364  1.00  0.00    -0.072 N 
HETATM   43  C27 UNL     1       9.627  14.049  15.308  1.00  0.00     0.262 C 
ATOM     44  H82 UNL     1      10.907  12.916  16.450  1.00  0.00     0.277 HD
ATOM     45  H81 UNL     1       9.600  12.154  16.106  1.00  0.00     0.277 HD
HETATM   46  C28 UNL     1      10.164  15.397  15.684  1.00  0.00     0.300 C 
ENDBRANCH  38  39
ENDBRANCH  37  38
ENDBRANCH   9  37
TORSDOF 11
ENDMDL
MODEL 5
REMARK VINA RESULT: -9.264350574      2.773     11.665
REMARK  11 active torsions:
REMARK  status: ('A' for Active; 'I' for Inactive)
REMARK    1  A    between atoms: C3_3  and  O1_4 
REMARK    2  A    between atoms: O1_4  and  C4_5 
REMARK       I    between atoms: N2_12  and  C9_14 
REMARK    3  A    between atoms: C9_14  and  C10_16 
REMARK    4  A    between atoms: C10_16  and  C11_17 
REMARK    5  A    between atoms: C11_17  and  C12_18 
REMARK    6  A    between atoms: C12_18  and  C13_19 
REMARK    7  A    between atoms: C13_19  and  N3_20 
REMARK    8  A    between atoms: C18_28  and  C19_29 
REMARK    9  A    between atoms: N6_35  and  C23_37 
REMARK   10  A    between atoms: C23_37  and  C24_38 
REMARK   11  A    between atoms: C24_38  and  N7_39 
ROOT
HETATM    1  C1  UNL     1      14.447  22.886  16.619  1.00  0.00     0.055 C 
HETATM    2  C2  UNL     1      14.247  21.570  17.227  1.00  0.00     0.016 A 
HETATM    3  C3  UNL     1      14.564  21.283  18.503  1.00  0.00     0.089 A 
HETATM    4  C17 UNL     1      14.280  19.980  18.979  1.00  0.00     0.063 A 
HETATM    5  C18 UNL     1      13.704  19.055  18.155  1.00  0.00     0.017 A 
HETATM    6  N5  UNL     1      13.392  19.345  16.880  1.00  0.00    -0.345 N 
ATOM      7  H5  UNL     1      12.962  18.648  16.273  1.00  0.00     0.167 HD
HETATM    8  C22 UNL     1      13.659  20.575  16.433  1.00  0.00     0.110 A 
HETATM    9  N6  UNL     1      13.368  20.869  15.216  1.00  0.00    -0.374 N 
ATOM     10  H6  UNL     1      13.581  21.813  14.894  1.00  0.00     0.161 HD
ENDROOT
BRANCH   3  11
HETATM   11  O1  UNL     1      15.140  22.153  19.385  1.00  0.00    -0.293 OA
BRANCH  11  12
HETATM   12  C4  UNL     1      16.431  22.567  19.372  1.00  0.00     0.149 A 
HETATM   13  C5  UNL     1      17.449  21.820  19.990  1.00  0.00     0.059 A 
HETATM   14  C6  UNL     1      18.755  22.189  20.006  1.00  0.00     0.037 A 
HETATM   15  C7  UNL     1      19.163  23.387  19.374  1.00  0.00     0.068 A 
HETATM   16  N1  UNL     1      20.383  23.873  19.305  1.00  0.00    -0.334 N 
HETATM   17  C16 UNL     1      18.158  24.095  18.779  1.00  0.00     0.106 A 
HETATM   18  C8  UNL     1      20.566  25.024  18.661  1.00  0.00     0.153 A 
ATOM     19  H1  UNL     1      21.168  23.381  19.732  1.00  0.00     0.168 HD
HETATM   20  N2  UNL     1      21.696  25.649  18.494  1.00  0.00    -0.307 N 
HETATM   21  S1  UNL     1      19.003  25.440  18.140  1.00  0.00    -0.034 SA
HETATM   22  C9  UNL     1      21.785  26.859  17.801  1.00  0.00     0.223 C 
ATOM     23  H2  UNL     1      22.547  25.240  18.882  1.00  0.00     0.171 HD
HETATM   24  O2  UNL     1      21.337  27.883  18.385  1.00  0.00    -0.273 OA
HETATM   25  N4  UNL     1      16.847  23.681  18.790  1.00  0.00    -0.329 N 
ATOM     26  H4  UNL     1      16.154  24.267  18.323  1.00  0.00     0.168 HD
BRANCH  22  27
HETATM   27  C10 UNL     1      22.357  27.012  16.458  1.00  0.00     0.103 C 
BRANCH  27  28
HETATM   28  C11 UNL     1      21.689  27.952  15.544  1.00  0.00     0.011 C 
BRANCH  28  29
HETATM   29  C12 UNL     1      20.902  27.454  14.410  1.00  0.00     0.031 C 
BRANCH  29  30
HETATM   30  C13 UNL     1      19.479  27.105  14.632  1.00  0.00     0.271 C 
BRANCH  30  31
HETATM   31  N3  UNL     1      19.155  25.801  14.050  1.00  0.00     0.080 N 
HETATM   32  C14 UNL     1      17.822  25.450  14.580  1.00  0.00     0.309 C 
HETATM   33  C15 UNL     1      20.059  24.812  14.631  1.00  0.00     0.309 C 
ENDBRANCH  30  31
ENDBRANCH  29  30
ENDBRANCH  28  29
ENDBRANCH  27  28
ENDBRANCH  22  27
ENDBRANCH  11  12
ENDBRANCH   3  11
BRANCH   5  34
HETATM   34  C19 UNL     1      13.415  17.685  18.696  1.00  0.00     0.036 A 
HETATM   35  C20 UNL     1      12.779  17.569  20.017  1.00  0.00     0.011 A 
HETATM   36  C21 UNL     1      11.948  17.327  18.822  1.00  0.00     0.011 A 
ENDBRANCH   5  34
BRANCH   9  37
HETATM   37  C23 UNL     1      12.768  19.970  14.282  1.00  0.00     0.151 C 
BRANCH  37  38
HETATM   38  C24 UNL     1      11.267  19.919  14.315  1.00  0.00     0.292 C 
BRANCH  38  39
HETATM   39  N7  UNL     1      10.761  18.596  14.027  1.00  0.00     0.093 N 
HETATM   40  C25 UNL     1      10.716  17.814  15.223  1.00  0.00     0.300 C 
HETATM   41  C26 UNL     1      10.403  16.353  14.989  1.00  0.00     0.262 C 
HETATM   42  N8  UNL     1      11.199  15.796  13.914  1.00  0.00    -0.072 N 
HETATM   43  C27 UNL     1      11.116  16.605  12.711  1.00  0.00     0.262 C 
ATOM     44  H82 UNL     1      12.168  15.657  14.202  1.00  0.00     0.277 HD
ATOM     45  H81 UNL     1      10.947  14.826  13.729  1.00  0.00     0.277 HD
HETATM   46  C28 UNL     1      11.573  18.003  13.002  1.00  0.00     0.300 C 
ENDBRANCH  38  39
ENDBRANCH  37  38
ENDBRANCH   9  37
TORSDOF 11
ENDMDL
