MODEL 1
REMARK VINA RESULT: -7.737944801      0.000      0.000
REMARK  12 active torsions:
REMARK  status: ('A' for Active; 'I' for Inactive)
REMARK    1  A    between atoms: C2_2  and  C3_3 
REMARK    2  A    between atoms: C3_3  and  C4_5 
REMARK       I    between atoms: N2_14  and  C11_16 
REMARK    3  A    between atoms: C11_16  and  C12_18 
REMARK    4  A    between atoms: N3_22  and  C16_23 
REMARK    5  A    between atoms: C16_23  and  C17_24 
REMARK    6  A    between atoms: C18_26  and  O4_27 
REMARK    7  A    between atoms: O4_27  and  C19_28 
REMARK    8  A    between atoms: C19_28  and  C20_29 
REMARK    9  A    between atoms: C20_29  and  C21_30 
REMARK   10  A    between atoms: C21_30  and  N4_31 
REMARK   11  A    between atoms: N4_31  and  C22_34 
REMARK   12  A    between atoms: C27_39  and  O5_40 
ROOT
HETATM    1  C12 UNL     1      25.302  25.177  18.521  1.00  0.00     0.314 C 
HETATM    2  C13 UNL     1      26.638  24.551  18.203  1.00  0.00     0.047 C 
HETATM    3  C14 UNL     1      26.986  25.177  16.890  1.00  0.00     0.033 C 
HETATM    4  C15 UNL     1      25.944  26.245  16.636  1.00  0.00     0.273 C 
HETATM    5  N3  UNL     1      25.484  26.556  18.001  1.00  0.00     0.104 N 
ENDROOT
BRANCH   1   6
HETATM    6  C11 UNL     1      25.071  25.182  19.992  1.00  0.00     0.257 C 
HETATM    7  N2  UNL     1      23.971  24.755  20.644  1.00  0.00    -0.305 N 
HETATM    8  C10 UNL     1      22.740  24.526  20.404  1.00  0.00     0.151 A 
ATOM      9  H2  UNL     1      24.188  24.556  21.621  1.00  0.00     0.171 HD
HETATM   10  N1  UNL     1      22.011  24.638  19.297  1.00  0.00    -0.339 N 
HETATM   11  S1  UNL     1      21.555  23.956  21.547  1.00  0.00    -0.056 SA
HETATM   12  C9  UNL     1      20.739  24.334  19.322  1.00  0.00     0.025 A 
ATOM     13  H1  UNL     1      22.442  24.959  18.431  1.00  0.00     0.168 HD
HETATM   14  C8  UNL     1      19.882  24.458  18.066  1.00  0.00     0.058 C 
HETATM   15  C28 UNL     1      20.209  23.905  20.511  1.00  0.00     0.020 A 
HETATM   16  C7  UNL     1      18.708  25.372  18.347  1.00  0.00     0.006 C 
HETATM   17  C6  UNL     1      17.601  24.516  18.930  1.00  0.00     0.001 C 
HETATM   18  C5  UNL     1      17.789  24.459  20.407  1.00  0.00     0.018 C 
HETATM   19  C4  UNL     1      18.812  23.486  20.873  1.00  0.00     0.097 C 
HETATM   20  O2  UNL     1      26.043  25.649  20.693  1.00  0.00    -0.271 OA
BRANCH  19  21
HETATM   21  C3  UNL     1      18.567  22.090  20.466  1.00  0.00     0.135 C 
HETATM   22  O1  UNL     1      19.494  21.307  20.496  1.00  0.00    -0.297 OA
BRANCH  21  23
HETATM   23  C2  UNL     1      17.240  21.614  20.024  1.00  0.00     0.074 C 
HETATM   24  C1  UNL     1      17.303  21.275  18.553  1.00  0.00     0.013 C 
ENDBRANCH  21  23
ENDBRANCH  19  21
ENDBRANCH   1   6
BRANCH   5  25
HETATM   25  C16 UNL     1      24.172  27.191  17.935  1.00  0.00     0.307 C 
BRANCH  25  26
HETATM   26  C17 UNL     1      23.533  26.905  16.613  1.00  0.00     0.181 C 
HETATM   27  O3  UNL     1      22.345  26.265  16.674  1.00  0.00    -0.352 OA
HETATM   28  C18 UNL     1      21.385  26.950  15.989  1.00  0.00     0.262 C 
HETATM   29  C26 UNL     1      21.869  28.388  15.873  1.00  0.00     0.095 C 
HETATM   30  C27 UNL     1      23.366  28.156  15.778  1.00  0.00     0.153 C 
BRANCH  28  31
HETATM   31  O4  UNL     1      21.159  26.383  14.759  1.00  0.00    -0.361 OA
BRANCH  31  32
HETATM   32  C19 UNL     1      20.061  25.572  14.657  1.00  0.00     0.172 C 
BRANCH  32  33
HETATM   33  C20 UNL     1      18.767  26.278  14.448  1.00  0.00     0.054 C 
BRANCH  33  34
HETATM   34  C21 UNL     1      17.580  25.565  15.009  1.00  0.00     0.235 C 
BRANCH  34  35
HETATM   35  N4  UNL     1      17.518  24.188  14.550  1.00  0.00    -0.071 N 
ATOM     36  H42 UNL     1      17.019  24.109  13.664  1.00  0.00     0.277 HD
ATOM     37  H41 UNL     1      18.431  23.852  14.245  1.00  0.00     0.277 HD
BRANCH  35  38
HETATM   38  C22 UNL     1      16.941  23.325  15.569  1.00  0.00     0.185 C 
HETATM   39  C23 UNL     1      16.241  22.121  14.979  1.00  0.00     0.033 C 
HETATM   40  C24 UNL     1      14.964  22.923  14.974  1.00  0.00     0.004 C 
HETATM   41  C25 UNL     1      15.587  23.793  16.066  1.00  0.00     0.033 C 
ENDBRANCH  35  38
ENDBRANCH  34  35
ENDBRANCH  33  34
ENDBRANCH  32  33
ENDBRANCH  31  32
ENDBRANCH  28  31
BRANCH  30  42
HETATM   42  O5  UNL     1      24.087  29.234  16.289  1.00  0.00    -0.393 OA
ATOM     43  H5  UNL     1      23.642  30.063  16.154  1.00  0.00     0.210 HD
ENDBRANCH  30  42
ENDBRANCH  25  26
ENDBRANCH   5  25
TORSDOF 12
ENDMDL
MODEL 2
REMARK VINA RESULT: -7.615739868      7.332     12.380
REMARK  12 active torsions:
REMARK  status: ('A' for Active; 'I' for Inactive)
REMARK    1  A    between atoms: C2_2  and  C3_3 
REMARK    2  A    between atoms: C3_3  and  C4_5 
REMARK       I    between atoms: N2_14  and  C11_16 
REMARK    3  A    between atoms: C11_16  and  C12_18 
REMARK    4  A    between atoms: N3_22  and  C16_23 
REMARK    5  A    between atoms: C16_23  and  C17_24 
REMARK    6  A    between atoms: C18_26  and  O4_27 
REMARK    7  A    between atoms: O4_27  and  C19_28 
REMARK    8  A    between atoms: C19_28  and  C20_29 
REMARK    9  A    between atoms: C20_29  and  C21_30 
REMARK   10  A    between atoms: C21_30  and  N4_31 
REMARK   11  A    between atoms: N4_31  and  C22_34 
REMARK   12  A    between atoms: C27_39  and  O5_40 
ROOT
HETATM    1  C12 UNL     1      11.777  19.842  15.627  1.00  0.00     0.314 C 
HETATM    2  C13 UNL     1      10.684  19.582  16.634  1.00  0.00     0.047 C 
HETATM    3  C14 UNL     1      11.441  19.492  17.920  1.00  0.00     0.033 C 
HETATM    4  C15 UNL     1      12.867  19.891  17.605  1.00  0.00     0.273 C 
HETATM    5  N3  UNL     1      12.695  20.718  16.399  1.00  0.00     0.104 N 
ENDROOT
BRANCH   1   6
HETATM    6  C11 UNL     1      11.227  20.552  14.439  1.00  0.00     0.257 C 
HETATM    7  N2  UNL     1      10.812  19.999  13.281  1.00  0.00    -0.305 N 
HETATM    8  C10 UNL     1      10.966  18.919  12.623  1.00  0.00     0.151 A 
ATOM      9  H2  UNL     1      10.188  20.635  12.783  1.00  0.00     0.171 HD
HETATM   10  N1  UNL     1      11.673  17.819  12.867  1.00  0.00    -0.339 N 
HETATM   11  S1  UNL     1      10.241  18.535  11.086  1.00  0.00    -0.056 SA
HETATM   12  C9  UNL     1      11.661  16.833  12.006  1.00  0.00     0.025 A 
ATOM     13  H1  UNL     1      12.223  17.743  13.722  1.00  0.00     0.168 HD
HETATM   14  C8  UNL     1      12.468  15.563  12.262  1.00  0.00     0.058 C 
HETATM   15  C28 UNL     1      10.905  16.985  10.874  1.00  0.00     0.020 A 
HETATM   16  C7  UNL     1      13.410  15.325  11.102  1.00  0.00     0.006 C 
HETATM   17  C6  UNL     1      12.645  14.541  10.055  1.00  0.00     0.001 C 
HETATM   18  C5  UNL     1      11.949  15.513   9.165  1.00  0.00     0.018 C 
HETATM   19  C4  UNL     1      10.678  16.063   9.709  1.00  0.00     0.097 C 
HETATM   20  O2  UNL     1      11.148  21.831  14.558  1.00  0.00    -0.271 OA
BRANCH  19  21
HETATM   21  C3  UNL     1       9.658  15.050  10.039  1.00  0.00     0.135 C 
HETATM   22  O1  UNL     1       9.351  14.239   9.191  1.00  0.00    -0.297 OA
BRANCH  21  23
HETATM   23  C2  UNL     1       8.998  14.991  11.361  1.00  0.00     0.074 C 
HETATM   24  C1  UNL     1       9.320  13.667  12.013  1.00  0.00     0.013 C 
ENDBRANCH  21  23
ENDBRANCH  19  21
ENDBRANCH   1   6
BRANCH   5  25
HETATM   25  C16 UNL     1      13.962  20.791  15.678  1.00  0.00     0.307 C 
BRANCH  25  26
HETATM   26  C17 UNL     1      14.513  22.180  15.757  1.00  0.00     0.181 C 
HETATM   27  O3  UNL     1      15.006  22.537  16.963  1.00  0.00    -0.352 OA
HETATM   28  C18 UNL     1      16.288  22.986  16.853  1.00  0.00     0.262 C 
HETATM   29  C26 UNL     1      16.838  22.433  15.547  1.00  0.00     0.095 C 
HETATM   30  C27 UNL     1      15.574  22.432  14.707  1.00  0.00     0.153 C 
BRANCH  28  31
HETATM   31  O4  UNL     1      16.334  24.358  16.890  1.00  0.00    -0.361 OA
BRANCH  31  32
HETATM   32  C19 UNL     1      16.665  24.921  18.093  1.00  0.00     0.172 C 
BRANCH  32  33
HETATM   33  C20 UNL     1      17.940  24.439  18.692  1.00  0.00     0.054 C 
BRANCH  33  34
HETATM   34  C21 UNL     1      19.168  24.895  17.973  1.00  0.00     0.235 C 
BRANCH  34  35
HETATM   35  N4  UNL     1      18.872  25.965  17.036  1.00  0.00    -0.071 N 
ATOM     36  H42 UNL     1      17.915  25.907  16.689  1.00  0.00     0.277 HD
ATOM     37  H41 UNL     1      18.812  26.869  17.505  1.00  0.00     0.277 HD
BRANCH  35  38
HETATM   38  C22 UNL     1      19.837  25.988  15.949  1.00  0.00     0.185 C 
HETATM   39  C23 UNL     1      19.282  26.625  14.694  1.00  0.00     0.033 C 
HETATM   40  C24 UNL     1      18.848  25.252  14.245  1.00  0.00     0.004 C 
HETATM   41  C25 UNL     1      19.917  24.684  15.180  1.00  0.00     0.033 C 
ENDBRANCH  35  38
ENDBRANCH  34  35
ENDBRANCH  33  34
ENDBRANCH  32  33
ENDBRANCH  31  32
ENDBRANCH  28  31
BRANCH  30  42
HETATM   42  O5  UNL     1      15.603  21.435  13.733  1.00  0.00    -0.393 OA
ATOM     43  H5  UNL     1      14.982  21.596  13.032  1.00  0.00     0.210 HD
ENDBRANCH  30  42
ENDBRANCH  25  26
ENDBRANCH   5  25
TORSDOF 12
ENDMDL
MODEL 3
REMARK VINA RESULT: -7.575804995      5.839     10.702
REMARK  12 active torsions:
REMARK  status: ('A' for Active; 'I' for Inactive)
REMARK    1  A    between atoms: C2_2  and  C3_3 
REMARK    2  A    between atoms: C3_3  and  C4_5 
REMARK       I    between atoms: N2_14  and  C11_16 
REMARK    3  A    between atoms: C11_16  and  C12_18 
REMARK    4  A    between atoms: N3_22  and  C16_23 
REMARK    5  A    between atoms: C16_23  and  C17_24 
REMARK    6  A    between atoms: C18_26  and  O4_27 
REMARK    7  A    between atoms: O4_27  and  C19_28 
REMARK    8  A    between atoms: C19_28  and  C20_29 
REMARK    9  A    between atoms: C20_29  and  C21_30 
REMARK   10  A    between atoms: C21_30  and  N4_31 
REMARK   11  A    between atoms: N4_31  and  C22_34 
REMARK   12  A    between atoms: C27_39  and  O5_40 
ROOT
HETATM    1  C12 UNL     1      14.301  21.787  14.750  1.00  0.00     0.314 C 
HETATM    2  C13 UNL     1      14.889  21.953  13.370  1.00  0.00     0.047 C 
HETATM    3  C14 UNL     1      14.616  20.626  12.739  1.00  0.00     0.033 C 
HETATM    4  C15 UNL     1      13.736  19.865  13.707  1.00  0.00     0.273 C 
HETATM    5  N3  UNL     1      13.104  20.955  14.469  1.00  0.00     0.104 N 
ENDROOT
BRANCH   1   6
HETATM    6  C11 UNL     1      13.916  23.112  15.311  1.00  0.00     0.257 C 
HETATM    7  N2  UNL     1      14.631  23.872  16.166  1.00  0.00    -0.305 N 
HETATM    8  C10 UNL     1      15.580  23.739  17.006  1.00  0.00     0.151 A 
ATOM      9  H2  UNL     1      14.319  24.843  16.130  1.00  0.00     0.171 HD
HETATM   10  N1  UNL     1      16.292  22.682  17.388  1.00  0.00    -0.339 N 
HETATM   11  S1  UNL     1      16.279  25.003  17.982  1.00  0.00    -0.056 SA
HETATM   12  C9  UNL     1      17.228  22.821  18.291  1.00  0.00     0.025 A 
ATOM     13  H1  UNL     1      16.109  21.767  16.979  1.00  0.00     0.168 HD
HETATM   14  C8  UNL     1      18.055  21.622  18.748  1.00  0.00     0.058 C 
HETATM   15  C28 UNL     1      17.436  24.073  18.809  1.00  0.00     0.020 A 
HETATM   16  C7  UNL     1      17.935  21.473  20.250  1.00  0.00     0.006 C 
HETATM   17  C6  UNL     1      18.997  22.353  20.876  1.00  0.00     0.001 C 
HETATM   18  C5  UNL     1      18.421  23.715  21.062  1.00  0.00     0.018 C 
HETATM   19  C4  UNL     1      18.412  24.563  19.840  1.00  0.00     0.097 C 
HETATM   20  O2  UNL     1      12.775  23.558  14.919  1.00  0.00    -0.271 OA
BRANCH  19  21
HETATM   21  C3  UNL     1      19.737  24.790  19.234  1.00  0.00     0.135 C 
HETATM   22  O1  UNL     1      19.932  24.396  18.104  1.00  0.00    -0.297 OA
BRANCH  21  23
HETATM   23  C2  UNL     1      20.832  25.474  19.954  1.00  0.00     0.074 C 
HETATM   24  C1  UNL     1      21.941  24.483  20.221  1.00  0.00     0.013 C 
ENDBRANCH  21  23
ENDBRANCH  19  21
ENDBRANCH   1   6
BRANCH   5  25
HETATM   25  C16 UNL     1      12.608  20.433  15.738  1.00  0.00     0.307 C 
BRANCH  25  26
HETATM   26  C17 UNL     1      11.321  19.702  15.520  1.00  0.00     0.181 C 
HETATM   27  O3  UNL     1      11.446  18.443  15.048  1.00  0.00    -0.352 OA
HETATM   28  C18 UNL     1      10.788  17.554  15.846  1.00  0.00     0.262 C 
HETATM   29  C26 UNL     1      10.620  18.221  17.203  1.00  0.00     0.095 C 
HETATM   30  C27 UNL     1      10.467  19.668  16.769  1.00  0.00     0.153 C 
BRANCH  28  31
HETATM   31  O4  UNL     1       9.581  17.199  15.296  1.00  0.00    -0.361 OA
BRANCH  31  32
HETATM   32  C19 UNL     1       9.435  15.881  14.956  1.00  0.00     0.172 C 
BRANCH  32  33
HETATM   33  C20 UNL     1      10.261  15.426  13.804  1.00  0.00     0.054 C 
BRANCH  33  34
HETATM   34  C21 UNL     1       9.799  15.935  12.477  1.00  0.00     0.235 C 
BRANCH  34  35
HETATM   35  N4  UNL     1       9.795  17.387  12.434  1.00  0.00    -0.071 N 
ATOM     36  H42 UNL     1       8.851  17.757  12.314  1.00  0.00     0.277 HD
ATOM     37  H41 UNL     1      10.003  17.791  13.347  1.00  0.00     0.277 HD
BRANCH  35  38
HETATM   38  C22 UNL     1      10.700  17.881  11.409  1.00  0.00     0.185 C 
HETATM   39  C23 UNL     1      10.836  19.388  11.433  1.00  0.00     0.033 C 
HETATM   40  C24 UNL     1       9.709  19.458  10.434  1.00  0.00     0.004 C 
HETATM   41  C25 UNL     1      10.056  18.021  10.045  1.00  0.00     0.033 C 
ENDBRANCH  35  38
ENDBRANCH  34  35
ENDBRANCH  33  34
ENDBRANCH  32  33
ENDBRANCH  31  32
ENDBRANCH  28  31
BRANCH  30  42
HETATM   42  O5  UNL     1      10.922  20.550  17.748  1.00  0.00    -0.393 OA
ATOM     43  H5  UNL     1      10.754  20.232  18.627  1.00  0.00     0.210 HD
ENDBRANCH  30  42
ENDBRANCH  25  26
ENDBRANCH   5  25
TORSDOF 12
ENDMDL
MODEL 4
REMARK VINA RESULT: -7.559594150      5.669     10.410
REMARK  12 active torsions:
REMARK  status: ('A' for Active; 'I' for Inactive)
REMARK    1  A    between atoms: C2_2  and  C3_3 
REMARK    2  A    between atoms: C3_3  and  C4_5 
REMARK       I    between atoms: N2_14  and  C11_16 
REMARK    3  A    between atoms: C11_16  and  C12_18 
REMARK    4  A    between atoms: N3_22  and  C16_23 
REMARK    5  A    between atoms: C16_23  and  C17_24 
REMARK    6  A    between atoms: C18_26  and  O4_27 
REMARK    7  A    between atoms: O4_27  and  C19_28 
REMARK    8  A    between atoms: C19_28  and  C20_29 
REMARK    9  A    between atoms: C20_29  and  C21_30 
REMARK   10  A    between atoms: C21_30  and  N4_31 
REMARK   11  A    between atoms: N4_31  and  C22_34 
REMARK   12  A    between atoms: C27_39  and  O5_40 
ROOT
HETATM    1  C12 UNL     1      14.670  22.068  14.686  1.00  0.00     0.314 C 
HETATM    2  C13 UNL     1      15.137  22.302  13.270  1.00  0.00     0.047 C 
HETATM    3  C14 UNL     1      14.897  20.974  12.626  1.00  0.00     0.033 C 
HETATM    4  C15 UNL     1      14.143  20.138  13.637  1.00  0.00     0.273 C 
HETATM    5  N3  UNL     1      13.507  21.170  14.474  1.00  0.00     0.104 N 
ENDROOT
BRANCH   1   6
HETATM    6  C11 UNL     1      14.251  23.354  15.310  1.00  0.00     0.257 C 
HETATM    7  N2  UNL     1      14.923  24.065  16.238  1.00  0.00    -0.305 N 
HETATM    8  C10 UNL     1      15.840  23.888  17.106  1.00  0.00     0.151 A 
ATOM      9  H2  UNL     1      14.603  25.034  16.248  1.00  0.00     0.171 HD
HETATM   10  N1  UNL     1      16.546  22.815  17.452  1.00  0.00    -0.339 N 
HETATM   11  S1  UNL     1      16.487  25.094  18.184  1.00  0.00    -0.056 SA
HETATM   12  C9  UNL     1      17.445  22.905  18.398  1.00  0.00     0.025 A 
ATOM     13  H1  UNL     1      16.388  21.925  16.980  1.00  0.00     0.168 HD
HETATM   14  C8  UNL     1      18.264  21.686  18.815  1.00  0.00     0.058 C 
HETATM   15  C28 UNL     1      17.619  24.124  18.999  1.00  0.00     0.020 A 
HETATM   16  C7  UNL     1      18.085  21.445  20.298  1.00  0.00     0.006 C 
HETATM   17  C6  UNL     1      19.114  22.293  21.019  1.00  0.00     0.001 C 
HETATM   18  C5  UNL     1      18.518  23.636  21.263  1.00  0.00     0.018 C 
HETATM   19  C4  UNL     1      18.548  24.558  20.096  1.00  0.00     0.097 C 
HETATM   20  O2  UNL     1      13.121  23.814  14.901  1.00  0.00    -0.271 OA
BRANCH  19  21
HETATM   21  C3  UNL     1      19.895  24.830  19.559  1.00  0.00     0.135 C 
HETATM   22  O1  UNL     1      20.092  24.657  18.375  1.00  0.00    -0.297 OA
BRANCH  21  23
HETATM   23  C2  UNL     1      21.008  25.302  20.410  1.00  0.00     0.074 C 
HETATM   24  C1  UNL     1      22.133  24.295  20.353  1.00  0.00     0.013 C 
ENDBRANCH  21  23
ENDBRANCH  19  21
ENDBRANCH   1   6
BRANCH   5  25
HETATM   25  C16 UNL     1      13.145  20.589  15.764  1.00  0.00     0.307 C 
BRANCH  25  26
HETATM   26  C17 UNL     1      11.968  19.679  15.600  1.00  0.00     0.181 C 
HETATM   27  O3  UNL     1      11.863  18.700  16.524  1.00  0.00    -0.352 OA
HETATM   28  C18 UNL     1      10.638  18.723  17.122  1.00  0.00     0.262 C 
HETATM   29  C26 UNL     1      10.071  20.118  16.912  1.00  0.00     0.095 C 
HETATM   30  C27 UNL     1      10.661  20.442  15.551  1.00  0.00     0.153 C 
BRANCH  28  31
HETATM   31  O4  UNL     1       9.819  17.751  16.602  1.00  0.00    -0.361 OA
BRANCH  31  32
HETATM   32  C19 UNL     1       9.946  16.499  17.140  1.00  0.00     0.172 C 
BRANCH  32  33
HETATM   33  C20 UNL     1      10.307  15.426  16.173  1.00  0.00     0.054 C 
BRANCH  33  34
HETATM   34  C21 UNL     1      10.094  15.792  14.740  1.00  0.00     0.235 C 
BRANCH  34  35
HETATM   35  N4  UNL     1      11.228  16.523  14.201  1.00  0.00    -0.071 N 
ATOM     36  H42 UNL     1      11.347  17.426  14.661  1.00  0.00     0.277 HD
ATOM     37  H41 UNL     1      12.114  16.095  14.470  1.00  0.00     0.277 HD
BRANCH  35  38
HETATM   38  C22 UNL     1      11.117  16.667  12.758  1.00  0.00     0.185 C 
HETATM   39  C23 UNL     1      10.956  15.338  12.054  1.00  0.00     0.033 C 
HETATM   40  C24 UNL     1      12.456  15.287  11.907  1.00  0.00     0.004 C 
HETATM   41  C25 UNL     1      12.453  16.808  12.056  1.00  0.00     0.033 C 
ENDBRANCH  35  38
ENDBRANCH  34  35
ENDBRANCH  33  34
ENDBRANCH  32  33
ENDBRANCH  31  32
ENDBRANCH  28  31
BRANCH  30  42
HETATM   42  O5  UNL     1      10.853  21.812  15.385  1.00  0.00    -0.393 OA
ATOM     43  H5  UNL     1      10.258  22.327  15.919  1.00  0.00     0.210 HD
ENDBRANCH  30  42
ENDBRANCH  25  26
ENDBRANCH   5  25
TORSDOF 12
ENDMDL
MODEL 5
REMARK VINA RESULT: -7.558065059      5.029      9.926
REMARK  12 active torsions:
REMARK  status: ('A' for Active; 'I' for Inactive)
REMARK    1  A    between atoms: C2_2  and  C3_3 
REMARK    2  A    between atoms: C3_3  and  C4_5 
REMARK       I    between atoms: N2_14  and  C11_16 
REMARK    3  A    between atoms: C11_16  and  C12_18 
REMARK    4  A    between atoms: N3_22  and  C16_23 
REMARK    5  A    between atoms: C16_23  and  C17_24 
REMARK    6  A    between atoms: C18_26  and  O4_27 
REMARK    7  A    between atoms: O4_27  and  C19_28 
REMARK    8  A    between atoms: C19_28  and  C20_29 
REMARK    9  A    between atoms: C20_29  and  C21_30 
REMARK   10  A    between atoms: C21_30  and  N4_31 
REMARK   11  A    between atoms: N4_31  and  C22_34 
REMARK   12  A    between atoms: C27_39  and  O5_40 
ROOT
HETATM    1  C12 UNL     1      14.633  22.070  14.864  1.00  0.00     0.314 C 
HETATM    2  C13 UNL     1      14.289  22.078  13.395  1.00  0.00     0.047 C 
HETATM    3  C14 UNL     1      14.141  20.622  13.088  1.00  0.00     0.033 C 
HETATM    4  C15 UNL     1      14.216  19.896  14.414  1.00  0.00     0.273 C 
HETATM    5  N3  UNL     1      13.802  20.945  15.362  1.00  0.00     0.104 N 
ENDROOT
BRANCH   1   6
HETATM    6  C11 UNL     1      14.231  23.358  15.496  1.00  0.00     0.257 C 
HETATM    7  N2  UNL     1      14.926  24.068  16.408  1.00  0.00    -0.305 N 
HETATM    8  C10 UNL     1      15.860  23.889  17.256  1.00  0.00     0.151 A 
ATOM      9  H2  UNL     1      14.609  25.038  16.424  1.00  0.00     0.171 HD
HETATM   10  N1  UNL     1      16.571  22.814  17.588  1.00  0.00    -0.339 N 
HETATM   11  S1  UNL     1      16.534  25.095  18.318  1.00  0.00    -0.056 SA
HETATM   12  C9  UNL     1      17.490  22.903  18.515  1.00  0.00     0.025 A 
ATOM     13  H1  UNL     1      16.400  21.924  17.121  1.00  0.00     0.168 HD
HETATM   14  C8  UNL     1      18.315  21.682  18.914  1.00  0.00     0.058 C 
HETATM   15  C28 UNL     1      17.681  24.122  19.110  1.00  0.00     0.020 A 
HETATM   16  C7  UNL     1      18.168  21.443  20.402  1.00  0.00     0.006 C 
HETATM   17  C6  UNL     1      19.214  22.288  21.099  1.00  0.00     0.001 C 
HETATM   18  C5  UNL     1      18.627  23.634  21.355  1.00  0.00     0.018 C 
HETATM   19  C4  UNL     1      18.635  24.554  20.186  1.00  0.00     0.097 C 
HETATM   20  O2  UNL     1      13.095  23.821  15.111  1.00  0.00    -0.271 OA
BRANCH  19  21
HETATM   21  C3  UNL     1      19.970  24.822  19.620  1.00  0.00     0.135 C 
HETATM   22  O1  UNL     1      20.147  24.626  18.436  1.00  0.00    -0.297 OA
BRANCH  21  23
HETATM   23  C2  UNL     1      21.096  25.317  20.441  1.00  0.00     0.074 C 
HETATM   24  C1  UNL     1      22.207  24.293  20.421  1.00  0.00     0.013 C 
ENDBRANCH  21  23
ENDBRANCH  19  21
ENDBRANCH   1   6
BRANCH   5  25
HETATM   25  C16 UNL     1      14.267  20.597  16.701  1.00  0.00     0.307 C 
BRANCH  25  26
HETATM   26  C17 UNL     1      13.111  20.165  17.546  1.00  0.00     0.181 C 
HETATM   27  O3  UNL     1      12.657  18.916  17.307  1.00  0.00    -0.352 OA
HETATM   28  C18 UNL     1      12.627  18.179  18.454  1.00  0.00     0.262 C 
HETATM   29  C26 UNL     1      13.582  18.847  19.432  1.00  0.00     0.095 C 
HETATM   30  C27 UNL     1      13.404  20.299  19.025  1.00  0.00     0.153 C 
BRANCH  28  31
HETATM   31  O4  UNL     1      11.350  18.101  18.955  1.00  0.00    -0.361 OA
BRANCH  31  32
HETATM   32  C19 UNL     1      10.414  17.523  18.142  1.00  0.00     0.172 C 
BRANCH  32  33
HETATM   33  C20 UNL     1      10.797  16.202  17.571  1.00  0.00     0.054 C 
BRANCH  33  34
HETATM   34  C21 UNL     1      10.443  16.029  16.129  1.00  0.00     0.235 C 
BRANCH  34  35
HETATM   35  N4  UNL     1      11.058  17.053  15.302  1.00  0.00    -0.071 N 
ATOM     36  H42 UNL     1      10.999  17.974  15.737  1.00  0.00     0.277 HD
ATOM     37  H41 UNL     1      12.073  16.958  15.278  1.00  0.00     0.277 HD
BRANCH  35  38
HETATM   38  C22 UNL     1      10.487  17.054  13.964  1.00  0.00     0.185 C 
HETATM   39  C23 UNL     1      11.264  16.182  13.002  1.00  0.00     0.033 C 
HETATM   40  C24 UNL     1      12.074  17.398  12.628  1.00  0.00     0.004 C 
HETATM   41  C25 UNL     1      10.904  18.246  13.126  1.00  0.00     0.033 C 
ENDBRANCH  35  38
ENDBRANCH  34  35
ENDBRANCH  33  34
ENDBRANCH  32  33
ENDBRANCH  31  32
ENDBRANCH  28  31
BRANCH  30  42
HETATM   42  O5  UNL     1      14.554  21.047  19.271  1.00  0.00    -0.393 OA
ATOM     43  H5  UNL     1      14.364  21.969  19.405  1.00  0.00     0.210 HD
ENDBRANCH  30  42
ENDBRANCH  25  26
ENDBRANCH   5  25
TORSDOF 12
ENDMDL
