MODEL 1
REMARK VINA RESULT: -8.436746759      0.000      0.000
REMARK  15 active torsions:
REMARK  status: ('A' for Active; 'I' for Inactive)
REMARK    1  A    between atoms: C2_2  and  C3_3 
REMARK       I    between atoms: C3_3  and  N1_5 
REMARK    2  A    between atoms: N1_5  and  C4_7 
REMARK    3  A    between atoms: C4_7  and  C5_8 
REMARK    4  A    between atoms: C4_7  and  C8_12 
REMARK    5  A    between atoms: C5_8  and  C6_9 
REMARK    6  A    between atoms: C6_9  and  S1_10 
REMARK    7  A    between atoms: C8_12  and  O2_13 
REMARK    8  A    between atoms: C8_12  and  N2_15 
REMARK    9  A    between atoms: C13_20  and  C14_21 
REMARK   10  A    between atoms: C14_21  and  C15_23 
REMARK   11  A    between atoms: C16_26  and  C17_27 
REMARK       I    between atoms: C17_27  and  N4_29 
REMARK   12  A    between atoms: N4_29  and  C18_31 
REMARK   13  A    between atoms: C23_37  and  O5_38 
REMARK   14  A    between atoms: C23_37  and  C24_40 
REMARK   15  A    between atoms: C24_40  and  C25_41 
ROOT
HETATM    1  N2  UNL     1      17.276  23.829  18.825  1.00  0.00    -0.348 N 
HETATM    2  C9  UNL     1      17.755  24.292  20.163  1.00  0.00     0.134 C 
HETATM    3  C10 UNL     1      17.991  22.985  20.888  1.00  0.00     0.045 A 
HETATM    4  C11 UNL     1      18.334  21.815  20.123  1.00  0.00     0.031 A 
HETATM    5  C12 UNL     1      18.656  21.923  18.672  1.00  0.00     0.041 C 
HETATM    6  C13 UNL     1      18.402  23.287  18.097  1.00  0.00     0.164 C 
HETATM    7  C23 UNL     1      19.269  22.370  21.183  1.00  0.00     0.068 A 
ENDROOT
BRANCH   6   8
HETATM    8  C14 UNL     1      18.400  23.355  16.666  1.00  0.00     0.205 C 
HETATM    9  O3  UNL     1      17.896  22.570  15.868  1.00  0.00    -0.288 OA
BRANCH   8  10
HETATM   10  C15 UNL     1      19.085  24.516  16.017  1.00  0.00     0.123 A 
HETATM   11  N3  UNL     1      20.137  25.170  16.471  1.00  0.00    -0.343 N 
HETATM   12  C16 UNL     1      20.643  26.143  15.786  1.00  0.00     0.108 A 
ATOM     13  H3  UNL     1      20.552  24.907  17.364  1.00  0.00     0.167 HD
HETATM   14  C22 UNL     1      20.036  26.449  14.589  1.00  0.00     0.087 A 
HETATM   15  S2  UNL     1      18.774  25.302  14.541  1.00  0.00    -0.078 SA
BRANCH  12  16
HETATM   16  C17 UNL     1      21.831  26.907  16.251  1.00  0.00     0.269 C 
HETATM   17  O4  UNL     1      21.613  27.997  16.837  1.00  0.00    -0.266 OA
HETATM   18  N4  UNL     1      23.123  26.397  16.028  1.00  0.00    -0.348 N 
ATOM     19  H4  UNL     1      23.255  25.507  15.549  1.00  0.00     0.163 HD
BRANCH  18  20
HETATM   20  C18 UNL     1      24.254  27.159  16.490  1.00  0.00     0.022 C 
HETATM   21  C19 UNL     1      24.357  27.087  18.004  1.00  0.00     0.037 C 
HETATM   22  C20 UNL     1      25.553  26.563  15.937  1.00  0.00     0.037 C 
HETATM   23  C21 UNL     1      24.185  28.609  16.078  1.00  0.00     0.037 C 
ENDBRANCH  18  20
ENDBRANCH  12  16
ENDBRANCH   8  10
ENDBRANCH   6   8
BRANCH   1  24
HETATM   24  C8  UNL     1      15.966  23.958  18.409  1.00  0.00     0.162 C 
BRANCH  24  25
HETATM   25  C4  UNL     1      14.891  23.058  18.002  1.00  0.00     0.064 C 
BRANCH  25  26
HETATM   26  N1  UNL     1      15.208  22.541  16.659  1.00  0.00    -0.323 N 
HETATM   27  C3  UNL     1      14.413  22.884  15.564  1.00  0.00     0.244 C 
HETATM   28  O1  UNL     1      13.392  23.653  15.691  1.00  0.00    -0.268 OA
ATOM     29  H1  UNL     1      16.014  21.928  16.529  1.00  0.00     0.169 HD
BRANCH  27  30
HETATM   30  C2  UNL     1      14.678  22.399  14.209  1.00  0.00     0.064 C 
HETATM   31  C1  UNL     1      14.646  21.108  13.944  1.00  0.00     0.017 C 
ENDBRANCH  27  30
ENDBRANCH  25  26
BRANCH  25  32
HETATM   32  C5  UNL     1      14.227  22.099  18.864  1.00  0.00     0.072 C 
BRANCH  32  33
HETATM   33  C6  UNL     1      14.881  20.766  18.974  1.00  0.00     0.079 C 
BRANCH  33  34
HETATM   34  S1  UNL     1      13.686  19.485  18.444  1.00  0.00    -0.173 SA
HETATM   35  C7  UNL     1      12.558  20.099  17.186  1.00  0.00     0.089 C 
ENDBRANCH  33  34
ENDBRANCH  32  33
ENDBRANCH  25  32
ENDBRANCH  24  25
BRANCH  24  36
HETATM   36  O2  UNL     1      15.509  25.225  18.333  1.00  0.00    -0.345 OA
ATOM     37  H2  UNL     1      15.992  25.676  17.651  1.00  0.00     0.219 HD
ENDBRANCH  24  36
ENDBRANCH   1  24
BRANCH   7  38
HETATM   38  O5  UNL     1      19.331  21.618  22.408  1.00  0.00    -0.389 OA
ATOM     39  H5  UNL     1      20.084  21.791  22.960  1.00  0.00     0.210 HD
ENDBRANCH   7  38
BRANCH   7  40
HETATM   40  C24 UNL     1      20.620  22.843  20.797  1.00  0.00     0.038 C 
BRANCH  40  41
HETATM   41  C25 UNL     1      21.055  23.999  21.727  1.00  0.00    -0.002 C 
HETATM   42  C26 UNL     1      22.561  24.143  21.719  1.00  0.00     0.005 C 
ENDBRANCH  40  41
ENDBRANCH   7  40
TORSDOF 15
ENDMDL
MODEL 2
REMARK VINA RESULT: -8.424440807      1.287      2.301
REMARK  15 active torsions:
REMARK  status: ('A' for Active; 'I' for Inactive)
REMARK    1  A    between atoms: C2_2  and  C3_3 
REMARK       I    between atoms: C3_3  and  N1_5 
REMARK    2  A    between atoms: N1_5  and  C4_7 
REMARK    3  A    between atoms: C4_7  and  C5_8 
REMARK    4  A    between atoms: C4_7  and  C8_12 
REMARK    5  A    between atoms: C5_8  and  C6_9 
REMARK    6  A    between atoms: C6_9  and  S1_10 
REMARK    7  A    between atoms: C8_12  and  O2_13 
REMARK    8  A    between atoms: C8_12  and  N2_15 
REMARK    9  A    between atoms: C13_20  and  C14_21 
REMARK   10  A    between atoms: C14_21  and  C15_23 
REMARK   11  A    between atoms: C16_26  and  C17_27 
REMARK       I    between atoms: C17_27  and  N4_29 
REMARK   12  A    between atoms: N4_29  and  C18_31 
REMARK   13  A    between atoms: C23_37  and  O5_38 
REMARK   14  A    between atoms: C23_37  and  C24_40 
REMARK   15  A    between atoms: C24_40  and  C25_41 
ROOT
HETATM    1  N2  UNL     1      16.830  23.671  18.375  1.00  0.00    -0.348 N 
HETATM    2  C9  UNL     1      17.244  24.077  19.753  1.00  0.00     0.134 C 
HETATM    3  C10 UNL     1      17.591  22.748  20.388  1.00  0.00     0.045 A 
HETATM    4  C11 UNL     1      18.053  21.673  19.549  1.00  0.00     0.031 A 
HETATM    5  C12 UNL     1      18.384  21.917  18.117  1.00  0.00     0.041 C 
HETATM    6  C13 UNL     1      18.012  23.289  17.635  1.00  0.00     0.164 C 
HETATM    7  C23 UNL     1      18.915  22.232  20.665  1.00  0.00     0.068 A 
ENDROOT
BRANCH   6   8
HETATM    8  C14 UNL     1      18.025  23.461  16.212  1.00  0.00     0.205 C 
HETATM    9  O3  UNL     1      17.503  22.754  15.357  1.00  0.00    -0.288 OA
BRANCH   8  10
HETATM   10  C15 UNL     1      18.752  24.644  15.655  1.00  0.00     0.123 A 
HETATM   11  N3  UNL     1      19.804  25.246  16.177  1.00  0.00    -0.343 N 
HETATM   12  C16 UNL     1      20.350  26.247  15.566  1.00  0.00     0.108 A 
ATOM     13  H3  UNL     1      20.188  24.920  17.064  1.00  0.00     0.167 HD
HETATM   14  C22 UNL     1      19.785  26.637  14.374  1.00  0.00     0.087 A 
HETATM   15  S2  UNL     1      18.501  25.524  14.221  1.00  0.00    -0.078 SA
BRANCH  12  16
HETATM   16  C17 UNL     1      21.539  26.954  16.110  1.00  0.00     0.269 C 
HETATM   17  O4  UNL     1      21.332  28.043  16.702  1.00  0.00    -0.266 OA
HETATM   18  N4  UNL     1      22.820  26.396  15.949  1.00  0.00    -0.348 N 
ATOM     19  H4  UNL     1      22.944  25.509  15.462  1.00  0.00     0.163 HD
BRANCH  18  20
HETATM   20  C18 UNL     1      23.953  27.104  16.486  1.00  0.00     0.022 C 
HETATM   21  C19 UNL     1      23.963  27.013  18.003  1.00  0.00     0.037 C 
HETATM   22  C20 UNL     1      25.256  26.459  16.003  1.00  0.00     0.037 C 
HETATM   23  C21 UNL     1      23.970  28.560  16.090  1.00  0.00     0.037 C 
ENDBRANCH  18  20
ENDBRANCH  12  16
ENDBRANCH   8  10
ENDBRANCH   6   8
BRANCH   1  24
HETATM   24  C8  UNL     1      15.520  23.709  17.942  1.00  0.00     0.162 C 
BRANCH  24  25
HETATM   25  C4  UNL     1      14.648  22.864  17.131  1.00  0.00     0.064 C 
BRANCH  25  26
HETATM   26  N1  UNL     1      13.815  22.059  18.041  1.00  0.00    -0.323 N 
HETATM   27  C3  UNL     1      14.197  20.760  18.388  1.00  0.00     0.244 C 
HETATM   28  O1  UNL     1      15.276  20.234  17.929  1.00  0.00    -0.268 OA
ATOM     29  H1  UNL     1      12.953  22.451  18.421  1.00  0.00     0.169 HD
BRANCH  27  30
HETATM   30  C2  UNL     1      13.409  19.915  19.284  1.00  0.00     0.064 C 
HETATM   31  C1  UNL     1      13.906  18.784  19.744  1.00  0.00     0.017 C 
ENDBRANCH  27  30
ENDBRANCH  25  26
BRANCH  25  32
HETATM   32  C5  UNL     1      13.972  23.275  15.917  1.00  0.00     0.072 C 
BRANCH  32  33
HETATM   33  C6  UNL     1      13.164  22.225  15.238  1.00  0.00     0.079 C 
BRANCH  33  34
HETATM   34  S1  UNL     1      14.302  20.981  14.526  1.00  0.00    -0.173 SA
HETATM   35  C7  UNL     1      15.023  21.541  12.977  1.00  0.00     0.089 C 
ENDBRANCH  33  34
ENDBRANCH  32  33
ENDBRANCH  25  32
ENDBRANCH  24  25
BRANCH  24  36
HETATM   36  O2  UNL     1      14.816  24.790  18.334  1.00  0.00    -0.345 OA
ATOM     37  H2  UNL     1      15.267  25.568  18.027  1.00  0.00     0.219 HD
ENDBRANCH  24  36
ENDBRANCH   1  24
BRANCH   7  38
HETATM   38  O5  UNL     1      19.029  21.402  21.835  1.00  0.00    -0.389 OA
ATOM     39  H5  UNL     1      19.559  21.754  22.540  1.00  0.00     0.210 HD
ENDBRANCH   7  38
BRANCH   7  40
HETATM   40  C24 UNL     1      20.223  22.855  20.343  1.00  0.00     0.038 C 
BRANCH  40  41
HETATM   41  C25 UNL     1      20.922  23.307  21.646  1.00  0.00    -0.002 C 
HETATM   42  C26 UNL     1      20.645  24.770  21.911  1.00  0.00     0.005 C 
ENDBRANCH  40  41
ENDBRANCH   7  40
TORSDOF 15
ENDMDL
MODEL 3
REMARK VINA RESULT: -8.399646351      2.464      5.083
REMARK  15 active torsions:
REMARK  status: ('A' for Active; 'I' for Inactive)
REMARK    1  A    between atoms: C2_2  and  C3_3 
REMARK       I    between atoms: C3_3  and  N1_5 
REMARK    2  A    between atoms: N1_5  and  C4_7 
REMARK    3  A    between atoms: C4_7  and  C5_8 
REMARK    4  A    between atoms: C4_7  and  C8_12 
REMARK    5  A    between atoms: C5_8  and  C6_9 
REMARK    6  A    between atoms: C6_9  and  S1_10 
REMARK    7  A    between atoms: C8_12  and  O2_13 
REMARK    8  A    between atoms: C8_12  and  N2_15 
REMARK    9  A    between atoms: C13_20  and  C14_21 
REMARK   10  A    between atoms: C14_21  and  C15_23 
REMARK   11  A    between atoms: C16_26  and  C17_27 
REMARK       I    between atoms: C17_27  and  N4_29 
REMARK   12  A    between atoms: N4_29  and  C18_31 
REMARK   13  A    between atoms: C23_37  and  O5_38 
REMARK   14  A    between atoms: C23_37  and  C24_40 
REMARK   15  A    between atoms: C24_40  and  C25_41 
ROOT
HETATM    1  N2  UNL     1      14.957  22.019  17.979  1.00  0.00    -0.348 N 
HETATM    2  C9  UNL     1      13.892  21.552  18.918  1.00  0.00     0.134 C 
HETATM    3  C10 UNL     1      13.162  20.520  18.087  1.00  0.00     0.045 A 
HETATM    4  C11 UNL     1      13.883  19.813  17.061  1.00  0.00     0.031 A 
HETATM    5  C12 UNL     1      15.364  19.937  16.952  1.00  0.00     0.041 C 
HETATM    6  C13 UNL     1      15.953  20.977  17.860  1.00  0.00     0.164 C 
HETATM    7  C23 UNL     1      13.235  19.080  18.221  1.00  0.00     0.068 A 
ENDROOT
BRANCH   6   8
HETATM    8  C14 UNL     1      17.308  21.342  17.572  1.00  0.00     0.205 C 
HETATM    9  O3  UNL     1      18.014  20.969  16.640  1.00  0.00    -0.288 OA
BRANCH   8  10
HETATM   10  C15 UNL     1      17.988  22.303  18.496  1.00  0.00     0.123 A 
HETATM   11  N3  UNL     1      18.824  23.267  18.161  1.00  0.00    -0.343 N 
HETATM   12  C16 UNL     1      19.317  24.045  19.069  1.00  0.00     0.108 A 
ATOM     13  H3  UNL     1      19.081  23.400  17.183  1.00  0.00     0.167 HD
HETATM   14  C22 UNL     1      18.930  23.814  20.369  1.00  0.00     0.087 A 
HETATM   15  S2  UNL     1      17.877  22.485  20.183  1.00  0.00    -0.078 SA
BRANCH  12  16
HETATM   16  C17 UNL     1      20.258  25.149  18.742  1.00  0.00     0.269 C 
HETATM   17  O4  UNL     1      20.629  25.881  19.694  1.00  0.00    -0.266 OA
HETATM   18  N4  UNL     1      20.690  25.331  17.416  1.00  0.00    -0.348 N 
ATOM     19  H4  UNL     1      20.364  24.713  16.673  1.00  0.00     0.163 HD
BRANCH  18  20
HETATM   20  C18 UNL     1      21.601  26.408  17.129  1.00  0.00     0.022 C 
HETATM   21  C19 UNL     1      22.043  26.354  15.676  1.00  0.00     0.037 C 
HETATM   22  C20 UNL     1      20.901  27.758  17.321  1.00  0.00     0.037 C 
HETATM   23  C21 UNL     1      22.828  26.381  18.008  1.00  0.00     0.037 C 
ENDBRANCH  18  20
ENDBRANCH  12  16
ENDBRANCH   8  10
ENDBRANCH   6   8
BRANCH   1  24
HETATM   24  C8  UNL     1      14.943  23.265  17.385  1.00  0.00     0.162 C 
BRANCH  24  25
HETATM   25  C4  UNL     1      14.764  23.792  16.036  1.00  0.00     0.064 C 
BRANCH  25  26
HETATM   26  N1  UNL     1      16.033  23.621  15.305  1.00  0.00    -0.323 N 
HETATM   27  C3  UNL     1      17.096  24.502  15.519  1.00  0.00     0.244 C 
HETATM   28  O1  UNL     1      17.002  25.477  16.350  1.00  0.00    -0.268 OA
ATOM     29  H1  UNL     1      16.136  22.856  14.639  1.00  0.00     0.169 HD
BRANCH  27  30
HETATM   30  C2  UNL     1      18.377  24.383  14.821  1.00  0.00     0.064 C 
HETATM   31  C1  UNL     1      18.824  25.372  14.074  1.00  0.00     0.017 C 
ENDBRANCH  27  30
ENDBRANCH  25  26
BRANCH  25  32
HETATM   32  C5  UNL     1      13.581  23.619  15.216  1.00  0.00     0.072 C 
BRANCH  32  33
HETATM   33  C6  UNL     1      13.465  22.310  14.515  1.00  0.00     0.079 C 
BRANCH  33  34
HETATM   34  S1  UNL     1      11.731  21.735  14.636  1.00  0.00    -0.173 SA
HETATM   35  C7  UNL     1      11.574  19.989  14.237  1.00  0.00     0.089 C 
ENDBRANCH  33  34
ENDBRANCH  32  33
ENDBRANCH  25  32
ENDBRANCH  24  25
BRANCH  24  36
HETATM   36  O2  UNL     1      15.147  24.303  18.222  1.00  0.00    -0.345 OA
ATOM     37  H2  UNL     1      15.442  23.960  19.057  1.00  0.00     0.219 HD
ENDBRANCH  24  36
ENDBRANCH   1  24
BRANCH   7  38
HETATM   38  O5  UNL     1      12.029  18.362  17.903  1.00  0.00    -0.389 OA
ATOM     39  H5  UNL     1      12.068  17.814  17.129  1.00  0.00     0.210 HD
ENDBRANCH   7  38
BRANCH   7  40
HETATM   40  C24 UNL     1      14.075  18.292  19.155  1.00  0.00     0.038 C 
BRANCH  40  41
HETATM   41  C25 UNL     1      13.594  18.516  20.608  1.00  0.00    -0.002 C 
HETATM   42  C26 UNL     1      12.367  17.679  20.891  1.00  0.00     0.005 C 
ENDBRANCH  40  41
ENDBRANCH   7  40
TORSDOF 15
ENDMDL
MODEL 4
REMARK VINA RESULT: -8.356393874      2.639      5.293
REMARK  15 active torsions:
REMARK  status: ('A' for Active; 'I' for Inactive)
REMARK    1  A    between atoms: C2_2  and  C3_3 
REMARK       I    between atoms: C3_3  and  N1_5 
REMARK    2  A    between atoms: N1_5  and  C4_7 
REMARK    3  A    between atoms: C4_7  and  C5_8 
REMARK    4  A    between atoms: C4_7  and  C8_12 
REMARK    5  A    between atoms: C5_8  and  C6_9 
REMARK    6  A    between atoms: C6_9  and  S1_10 
REMARK    7  A    between atoms: C8_12  and  O2_13 
REMARK    8  A    between atoms: C8_12  and  N2_15 
REMARK    9  A    between atoms: C13_20  and  C14_21 
REMARK   10  A    between atoms: C14_21  and  C15_23 
REMARK   11  A    between atoms: C16_26  and  C17_27 
REMARK       I    between atoms: C17_27  and  N4_29 
REMARK   12  A    between atoms: N4_29  and  C18_31 
REMARK   13  A    between atoms: C23_37  and  O5_38 
REMARK   14  A    between atoms: C23_37  and  C24_40 
REMARK   15  A    between atoms: C24_40  and  C25_41 
ROOT
HETATM    1  N2  UNL     1      18.202  23.353  16.414  1.00  0.00    -0.348 N 
HETATM    2  C9  UNL     1      19.195  23.786  15.384  1.00  0.00     0.134 C 
HETATM    3  C10 UNL     1      18.538  25.019  14.803  1.00  0.00     0.045 A 
HETATM    4  C11 UNL     1      17.649  25.792  15.631  1.00  0.00     0.031 A 
HETATM    5  C12 UNL     1      17.535  25.511  17.090  1.00  0.00     0.041 C 
HETATM    6  C13 UNL     1      18.265  24.274  17.527  1.00  0.00     0.164 C 
HETATM    7  C23 UNL     1      18.908  26.399  15.039  1.00  0.00     0.068 A 
ENDROOT
BRANCH   6   8
HETATM    8  C14 UNL     1      17.933  23.801  18.838  1.00  0.00     0.205 C 
HETATM    9  O3  UNL     1      16.819  23.640  19.328  1.00  0.00    -0.288 OA
BRANCH   8  10
HETATM   10  C15 UNL     1      19.055  23.441  19.760  1.00  0.00     0.123 A 
HETATM   11  N3  UNL     1      20.273  23.947  19.760  1.00  0.00    -0.343 N 
HETATM   12  C16 UNL     1      21.138  23.558  20.639  1.00  0.00     0.108 A 
ATOM     13  H3  UNL     1      20.533  24.647  19.066  1.00  0.00     0.167 HD
HETATM   14  C22 UNL     1      20.726  22.611  21.549  1.00  0.00     0.087 A 
HETATM   15  S2  UNL     1      19.111  22.352  21.065  1.00  0.00    -0.078 SA
BRANCH  12  16
HETATM   16  C17 UNL     1      22.521  24.102  20.685  1.00  0.00     0.269 C 
HETATM   17  O4  UNL     1      22.709  25.122  21.395  1.00  0.00    -0.266 OA
HETATM   18  N4  UNL     1      23.546  23.473  19.954  1.00  0.00    -0.348 N 
ATOM     19  H4  UNL     1      23.350  22.646  19.391  1.00  0.00     0.163 HD
BRANCH  18  20
HETATM   20  C18 UNL     1      24.875  24.022  20.018  1.00  0.00     0.022 C 
HETATM   21  C19 UNL     1      25.839  23.168  19.211  1.00  0.00     0.037 C 
HETATM   22  C20 UNL     1      24.901  25.419  19.390  1.00  0.00     0.037 C 
HETATM   23  C21 UNL     1      25.393  24.128  21.432  1.00  0.00     0.037 C 
ENDBRANCH  18  20
ENDBRANCH  12  16
ENDBRANCH   8  10
ENDBRANCH   6   8
BRANCH   1  24
HETATM   24  C8  UNL     1      17.411  22.231  16.271  1.00  0.00     0.162 C 
BRANCH  24  25
HETATM   25  C4  UNL     1      16.024  21.953  15.910  1.00  0.00     0.064 C 
BRANCH  25  26
HETATM   26  N1  UNL     1      15.213  21.995  17.140  1.00  0.00    -0.323 N 
HETATM   27  C3  UNL     1      14.930  20.820  17.841  1.00  0.00     0.244 C 
HETATM   28  O1  UNL     1      15.364  19.679  17.440  1.00  0.00    -0.268 OA
ATOM     29  H1  UNL     1      14.856  22.887  17.482  1.00  0.00     0.169 HD
BRANCH  27  30
HETATM   30  C2  UNL     1      14.129  20.801  19.066  1.00  0.00     0.064 C 
HETATM   31  C1  UNL     1      13.848  19.659  19.661  1.00  0.00     0.017 C 
ENDBRANCH  27  30
ENDBRANCH  25  26
BRANCH  25  32
HETATM   32  C5  UNL     1      15.343  22.460  14.735  1.00  0.00     0.072 C 
BRANCH  32  33
HETATM   33  C6  UNL     1      15.113  21.474  13.644  1.00  0.00     0.079 C 
BRANCH  33  34
HETATM   34  S1  UNL     1      13.603  20.515  14.032  1.00  0.00    -0.173 SA
HETATM   35  C7  UNL     1      12.349  21.531  14.824  1.00  0.00     0.089 C 
ENDBRANCH  33  34
ENDBRANCH  32  33
ENDBRANCH  25  32
ENDBRANCH  24  25
BRANCH  24  36
HETATM   36  O2  UNL     1      18.026  21.058  16.524  1.00  0.00    -0.345 OA
ATOM     37  H2  UNL     1      17.740  20.748  17.375  1.00  0.00     0.219 HD
ENDBRANCH  24  36
ENDBRANCH   1  24
BRANCH   7  38
HETATM   38  O5  UNL     1      18.702  27.298  13.935  1.00  0.00    -0.389 OA
ATOM     39  H5  UNL     1      18.494  28.195  14.168  1.00  0.00     0.210 HD
ENDBRANCH   7  38
BRANCH   7  40
HETATM   40  C24 UNL     1      19.967  26.918  15.939  1.00  0.00     0.038 C 
BRANCH  40  41
HETATM   41  C25 UNL     1      21.313  26.984  15.181  1.00  0.00    -0.002 C 
HETATM   42  C26 UNL     1      21.778  28.418  15.056  1.00  0.00     0.005 C 
ENDBRANCH  40  41
ENDBRANCH   7  40
TORSDOF 15
ENDMDL
MODEL 5
REMARK VINA RESULT: -8.243781559      1.035      1.329
REMARK  15 active torsions:
REMARK  status: ('A' for Active; 'I' for Inactive)
REMARK    1  A    between atoms: C2_2  and  C3_3 
REMARK       I    between atoms: C3_3  and  N1_5 
REMARK    2  A    between atoms: N1_5  and  C4_7 
REMARK    3  A    between atoms: C4_7  and  C5_8 
REMARK    4  A    between atoms: C4_7  and  C8_12 
REMARK    5  A    between atoms: C5_8  and  C6_9 
REMARK    6  A    between atoms: C6_9  and  S1_10 
REMARK    7  A    between atoms: C8_12  and  O2_13 
REMARK    8  A    between atoms: C8_12  and  N2_15 
REMARK    9  A    between atoms: C13_20  and  C14_21 
REMARK   10  A    between atoms: C14_21  and  C15_23 
REMARK   11  A    between atoms: C16_26  and  C17_27 
REMARK       I    between atoms: C17_27  and  N4_29 
REMARK   12  A    between atoms: N4_29  and  C18_31 
REMARK   13  A    between atoms: C23_37  and  O5_38 
REMARK   14  A    between atoms: C23_37  and  C24_40 
REMARK   15  A    between atoms: C24_40  and  C25_41 
ROOT
HETATM    1  N2  UNL     1      17.207  24.057  18.844  1.00  0.00    -0.348 N 
HETATM    2  C9  UNL     1      17.545  24.104  20.299  1.00  0.00     0.134 C 
HETATM    3  C10 UNL     1      17.957  22.675  20.579  1.00  0.00     0.045 A 
HETATM    4  C11 UNL     1      18.518  21.889  19.510  1.00  0.00     0.031 A 
HETATM    5  C12 UNL     1      18.881  22.523  18.212  1.00  0.00     0.041 C 
HETATM    6  C13 UNL     1      18.437  23.951  18.090  1.00  0.00     0.164 C 
HETATM    7  C23 UNL     1      19.303  22.177  20.777  1.00  0.00     0.068 A 
ENDROOT
BRANCH   6   8
HETATM    8  C14 UNL     1      18.487  24.496  16.766  1.00  0.00     0.205 C 
HETATM    9  O3  UNL     1      17.743  24.261  15.819  1.00  0.00    -0.288 OA
BRANCH   8  10
HETATM   10  C15 UNL     1      19.566  25.486  16.454  1.00  0.00     0.123 A 
HETATM   11  N3  UNL     1      20.757  25.562  17.016  1.00  0.00    -0.343 N 
HETATM   12  C16 UNL     1      21.604  26.457  16.625  1.00  0.00     0.108 A 
ATOM     13  H3  UNL     1      21.011  24.913  17.761  1.00  0.00     0.167 HD
HETATM   14  C22 UNL     1      21.202  27.303  15.616  1.00  0.00     0.087 A 
HETATM   15  S2  UNL     1      19.622  26.739  15.306  1.00  0.00    -0.078 SA
BRANCH  12  16
HETATM   16  C17 UNL     1      22.961  26.581  17.222  1.00  0.00     0.269 C 
HETATM   17  O4  UNL     1      23.021  26.883  18.440  1.00  0.00    -0.266 OA
HETATM   18  N4  UNL     1      24.099  26.359  16.425  1.00  0.00    -0.348 N 
ATOM     19  H4  UNL     1      24.005  26.114  15.440  1.00  0.00     0.163 HD
BRANCH  18  20
HETATM   20  C18 UNL     1      25.399  26.485  17.031  1.00  0.00     0.022 C 
HETATM   21  C19 UNL     1      26.486  26.398  15.972  1.00  0.00     0.037 C 
HETATM   22  C20 UNL     1      25.544  27.861  17.690  1.00  0.00     0.037 C 
HETATM   23  C21 UNL     1      25.659  25.429  18.077  1.00  0.00     0.037 C 
ENDBRANCH  18  20
ENDBRANCH  12  16
ENDBRANCH   8  10
ENDBRANCH   6   8
BRANCH   1  24
HETATM   24  C8  UNL     1      15.913  24.138  18.370  1.00  0.00     0.162 C 
BRANCH  24  25
HETATM   25  C4  UNL     1      14.921  23.209  17.837  1.00  0.00     0.064 C 
BRANCH  25  26
HETATM   26  N1  UNL     1      15.442  22.656  16.574  1.00  0.00    -0.323 N 
HETATM   27  C3  UNL     1      14.706  22.776  15.393  1.00  0.00     0.244 C 
HETATM   28  O1  UNL     1      13.565  23.365  15.371  1.00  0.00    -0.268 OA
ATOM     29  H1  UNL     1      16.346  22.183  16.562  1.00  0.00     0.169 HD
BRANCH  27  30
HETATM   30  C2  UNL     1      15.172  22.245  14.111  1.00  0.00     0.064 C 
HETATM   31  C1  UNL     1      14.654  21.137  13.620  1.00  0.00     0.017 C 
ENDBRANCH  27  30
ENDBRANCH  25  26
BRANCH  25  32
HETATM   32  C5  UNL     1      14.147  22.266  18.621  1.00  0.00     0.072 C 
BRANCH  32  33
HETATM   33  C6  UNL     1      14.855  21.019  19.019  1.00  0.00     0.079 C 
BRANCH  33  34
HETATM   34  S1  UNL     1      14.130  19.615  18.097  1.00  0.00    -0.173 SA
HETATM   35  C7  UNL     1      12.731  20.125  17.090  1.00  0.00     0.089 C 
ENDBRANCH  33  34
ENDBRANCH  32  33
ENDBRANCH  25  32
ENDBRANCH  24  25
BRANCH  24  36
HETATM   36  O2  UNL     1      15.377  25.376  18.370  1.00  0.00    -0.345 OA
ATOM     37  H2  UNL     1      15.765  25.868  19.083  1.00  0.00     0.219 HD
ENDBRANCH  24  36
ENDBRANCH   1  24
BRANCH   7  38
HETATM   38  O5  UNL     1      19.431  21.073  21.691  1.00  0.00    -0.389 OA
ATOM     39  H5  UNL     1      20.175  21.111  22.280  1.00  0.00     0.210 HD
ENDBRANCH   7  38
BRANCH   7  40
HETATM   40  C24 UNL     1      20.576  22.934  20.697  1.00  0.00     0.038 C 
BRANCH  40  41
HETATM   41  C25 UNL     1      20.674  23.920  21.883  1.00  0.00    -0.002 C 
HETATM   42  C26 UNL     1      20.787  25.341  21.378  1.00  0.00     0.005 C 
ENDBRANCH  40  41
ENDBRANCH   7  40
TORSDOF 15
ENDMDL
