MODEL 1
REMARK VINA RESULT: -6.473189080      0.000      0.000
REMARK  3 active torsions:
REMARK  status: ('A' for Active; 'I' for Inactive)
REMARK    1  A    between atoms: O1_2  and  C2_3 
REMARK    2  A    between atoms: C2_3  and  C3_8 
REMARK    3  A    between atoms: N1_4  and  O2_6 
ROOT
HETATM    1  C3  UNL     1      28.931  65.663   9.201  1.00  0.00     0.130 A 
HETATM    2  N2  UNL     1      29.462  66.180   8.093  1.00  0.00    -0.312 N 
ATOM      3  H2  UNL     1      28.822  66.528   7.379  1.00  0.00     0.169 HD
HETATM    4  C4  UNL     1      30.798  66.277   7.845  1.00  0.00     0.314 A 
HETATM    5  O3  UNL     1      31.231  66.785   6.761  1.00  0.00    -0.262 OA
HETATM    6  C5  UNL     1      31.649  65.805   8.815  1.00  0.00     0.315 A 
HETATM    7  O4  UNL     1      32.898  65.902   8.571  1.00  0.00    -0.262 OA
HETATM    8  N3  UNL     1      31.177  65.274   9.951  1.00  0.00    -0.305 N 
ATOM      9  H3  UNL     1      31.821  64.927  10.663  1.00  0.00     0.170 HD
HETATM   10  C6  UNL     1      29.833  65.202  10.146  1.00  0.00     0.150 A 
HETATM   11  N4  UNL     1      29.362  64.631  11.368  1.00  0.00    -0.080 NA
ENDROOT
BRANCH   1  12
HETATM   12  C2  UNL     1      27.521  65.560   9.464  1.00  0.00     0.192 C 
HETATM   13  N1  UNL     1      26.791  66.229  10.252  1.00  0.00    -0.245 N 
ATOM     14  H1  UNL     1      25.801  65.983  10.281  1.00  0.00     0.196 HD
BRANCH  12  15
HETATM   15  O1  UNL     1      26.819  64.569   8.745  1.00  0.00    -0.338 OA
HETATM   16  C1  UNL     1      25.451  64.699   8.426  1.00  0.00     0.211 C 
ENDBRANCH  12  15
BRANCH  13  17
HETATM   17  O2  UNL     1      27.186  67.219  11.047  1.00  0.00    -0.288 OA
ATOM     18  H2  UNL     1      26.639  67.720  11.640  1.00  0.00     0.244 HD
ENDBRANCH  13  17
ENDBRANCH   1  12
TORSDOF 3
ENDMDL
MODEL 2
REMARK VINA RESULT: -6.315760506      1.622      3.082
REMARK  3 active torsions:
REMARK  status: ('A' for Active; 'I' for Inactive)
REMARK    1  A    between atoms: O1_2  and  C2_3 
REMARK    2  A    between atoms: C2_3  and  C3_8 
REMARK    3  A    between atoms: N1_4  and  O2_6 
ROOT
HETATM    1  C3  UNL     1      29.576  65.250  10.113  1.00  0.00     0.130 A 
HETATM    2  N2  UNL     1      30.874  65.519   9.967  1.00  0.00    -0.312 N 
ATOM      3  H2  UNL     1      31.479  65.386  10.776  1.00  0.00     0.169 HD
HETATM    4  C4  UNL     1      31.449  65.959   8.813  1.00  0.00     0.314 A 
HETATM    5  O3  UNL     1      32.698  66.195   8.749  1.00  0.00    -0.262 OA
HETATM    6  C5  UNL     1      30.622  66.134   7.730  1.00  0.00     0.315 A 
HETATM    7  O4  UNL     1      31.174  66.546   6.655  1.00  0.00    -0.262 OA
HETATM    8  N3  UNL     1      29.310  65.881   7.813  1.00  0.00    -0.305 N 
ATOM      9  H3  UNL     1      28.707  66.015   7.001  1.00  0.00     0.170 HD
HETATM   10  C6  UNL     1      28.787  65.443   8.991  1.00  0.00     0.150 A 
HETATM   11  N4  UNL     1      27.384  65.182   9.047  1.00  0.00    -0.080 NA
ENDROOT
BRANCH   1  12
HETATM   12  C2  UNL     1      28.967  64.785  11.330  1.00  0.00     0.192 C 
HETATM   13  N1  UNL     1      28.429  63.671  11.595  1.00  0.00    -0.245 N 
ATOM     14  H1  UNL     1      28.055  63.554  12.537  1.00  0.00     0.196 HD
BRANCH  12  15
HETATM   15  O1  UNL     1      28.955  65.692  12.412  1.00  0.00    -0.338 OA
HETATM   16  C1  UNL     1      28.402  66.985  12.302  1.00  0.00     0.211 C 
ENDBRANCH  12  15
BRANCH  13  17
HETATM   17  O2  UNL     1      28.303  62.638  10.768  1.00  0.00    -0.288 OA
ATOM     18  H2  UNL     1      28.056  61.752  11.004  1.00  0.00     0.244 HD
ENDBRANCH  13  17
ENDBRANCH   1  12
TORSDOF 3
ENDMDL
MODEL 3
REMARK VINA RESULT: -6.232581240      1.656      2.659
REMARK  3 active torsions:
REMARK  status: ('A' for Active; 'I' for Inactive)
REMARK    1  A    between atoms: O1_2  and  C2_3 
REMARK    2  A    between atoms: C2_3  and  C3_8 
REMARK    3  A    between atoms: N1_4  and  O2_6 
ROOT
HETATM    1  C3  UNL     1      29.710  65.074   9.885  1.00  0.00     0.130 A 
HETATM    2  N2  UNL     1      31.010  65.337   9.753  1.00  0.00    -0.312 N 
ATOM      3  H2  UNL     1      31.623  65.098  10.532  1.00  0.00     0.169 HD
HETATM    4  C4  UNL     1      31.579  65.901   8.651  1.00  0.00     0.314 A 
HETATM    5  O3  UNL     1      32.832  66.122   8.598  1.00  0.00    -0.262 OA
HETATM    6  C5  UNL     1      30.743  66.218   7.608  1.00  0.00     0.315 A 
HETATM    7  O4  UNL     1      31.289  66.746   6.583  1.00  0.00    -0.262 OA
HETATM    8  N3  UNL     1      29.427  65.979   7.680  1.00  0.00    -0.305 N 
ATOM      9  H3  UNL     1      28.817  66.219   6.899  1.00  0.00     0.170 HD
HETATM   10  C6  UNL     1      28.911  65.413   8.805  1.00  0.00     0.150 A 
HETATM   11  N4  UNL     1      27.504  65.171   8.850  1.00  0.00    -0.080 NA
ENDROOT
BRANCH   1  12
HETATM   12  C2  UNL     1      29.107  64.478  11.047  1.00  0.00     0.192 C 
HETATM   13  N1  UNL     1      28.949  64.947  12.211  1.00  0.00    -0.245 N 
ATOM     14  H1  UNL     1      28.490  64.342  12.892  1.00  0.00     0.196 HD
BRANCH  12  15
HETATM   15  O1  UNL     1      28.607  63.168  10.891  1.00  0.00    -0.338 OA
HETATM   16  C1  UNL     1      27.494  62.697  11.620  1.00  0.00     0.211 C 
ENDBRANCH  12  15
BRANCH  13  17
HETATM   17  O2  UNL     1      29.323  66.151  12.636  1.00  0.00    -0.288 OA
ATOM     18  H2  UNL     1      29.938  66.337  13.335  1.00  0.00     0.244 HD
ENDBRANCH  13  17
ENDBRANCH   1  12
TORSDOF 3
ENDMDL
MODEL 4
REMARK VINA RESULT: -6.089584774      1.361      1.758
REMARK  3 active torsions:
REMARK  status: ('A' for Active; 'I' for Inactive)
REMARK    1  A    between atoms: O1_2  and  C2_3 
REMARK    2  A    between atoms: C2_3  and  C3_8 
REMARK    3  A    between atoms: N1_4  and  O2_6 
ROOT
HETATM    1  C3  UNL     1      28.413  65.314   9.874  1.00  0.00     0.130 A 
HETATM    2  N2  UNL     1      28.841  65.870   8.741  1.00  0.00    -0.312 N 
ATOM      3  H2  UNL     1      28.140  66.150   8.057  1.00  0.00     0.169 HD
HETATM    4  C4  UNL     1      30.149  66.090   8.432  1.00  0.00     0.314 A 
HETATM    5  O3  UNL     1      30.482  66.629   7.327  1.00  0.00    -0.262 OA
HETATM    6  C5  UNL     1      31.085  65.708   9.363  1.00  0.00     0.315 A 
HETATM    7  O4  UNL     1      32.307  65.921   9.060  1.00  0.00    -0.262 OA
HETATM    8  N3  UNL     1      30.718  65.144  10.521  1.00  0.00    -0.305 N 
ATOM      9  H3  UNL     1      31.423  64.864  11.203  1.00  0.00     0.170 HD
HETATM   10  C6  UNL     1      29.397  64.946  10.778  1.00  0.00     0.150 A 
HETATM   11  N4  UNL     1      29.038  64.343  12.023  1.00  0.00    -0.080 NA
ENDROOT
BRANCH   1  12
HETATM   12  C2  UNL     1      27.032  65.080  10.203  1.00  0.00     0.192 C 
HETATM   13  N1  UNL     1      26.422  63.994  10.421  1.00  0.00    -0.245 N 
ATOM     14  H1  UNL     1      25.428  64.061  10.640  1.00  0.00     0.196 HD
BRANCH  12  15
HETATM   15  O1  UNL     1      26.210  66.223  10.305  1.00  0.00    -0.338 OA
HETATM   16  C1  UNL     1      24.859  66.214   9.898  1.00  0.00     0.211 C 
ENDBRANCH  12  15
BRANCH  13  17
HETATM   17  O2  UNL     1      26.947  62.772  10.393  1.00  0.00    -0.288 OA
ATOM     18  H2  UNL     1      26.524  61.969  10.672  1.00  0.00     0.244 HD
ENDBRANCH  13  17
ENDBRANCH   1  12
TORSDOF 3
ENDMDL
MODEL 5
REMARK VINA RESULT: -6.047842661      1.616      2.482
REMARK  3 active torsions:
REMARK  status: ('A' for Active; 'I' for Inactive)
REMARK    1  A    between atoms: O1_2  and  C2_3 
REMARK    2  A    between atoms: C2_3  and  C3_8 
REMARK    3  A    between atoms: N1_4  and  O2_6 
ROOT
HETATM    1  C3  UNL     1      29.208  65.349   9.589  1.00  0.00     0.130 A 
HETATM    2  N2  UNL     1      30.516  65.585   9.686  1.00  0.00    -0.312 N 
ATOM      3  H2  UNL     1      30.953  65.464  10.599  1.00  0.00     0.169 HD
HETATM    4  C4  UNL     1      31.312  65.978   8.652  1.00  0.00     0.314 A 
HETATM    5  O3  UNL     1      32.556  66.184   8.822  1.00  0.00    -0.262 OA
HETATM    6  C5  UNL     1      30.711  66.137   7.427  1.00  0.00     0.315 A 
HETATM    7  O4  UNL     1      31.468  66.505   6.467  1.00  0.00    -0.262 OA
HETATM    8  N3  UNL     1      29.400  65.915   7.265  1.00  0.00    -0.305 N 
ATOM      9  H3  UNL     1      28.966  66.037   6.350  1.00  0.00     0.170 HD
HETATM   10  C6  UNL     1      28.652  65.525   8.333  1.00  0.00     0.150 A 
HETATM   11  N4  UNL     1      27.257  65.295   8.127  1.00  0.00    -0.080 NA
ENDROOT
BRANCH   1  12
HETATM   12  C2  UNL     1      28.366  64.934  10.680  1.00  0.00     0.192 C 
HETATM   13  N1  UNL     1      27.384  65.522  11.217  1.00  0.00    -0.245 N 
ATOM     14  H1  UNL     1      26.925  65.038  11.989  1.00  0.00     0.196 HD
BRANCH  12  15
HETATM   15  O1  UNL     1      28.661  63.680  11.257  1.00  0.00    -0.338 OA
HETATM   16  C1  UNL     1      27.654  62.745  11.576  1.00  0.00     0.211 C 
ENDBRANCH  12  15
BRANCH  13  17
HETATM   17  O2  UNL     1      26.890  66.709  10.875  1.00  0.00    -0.288 OA
ATOM     18  H2  UNL     1      26.609  66.975  10.008  1.00  0.00     0.244 HD
ENDBRANCH  13  17
ENDBRANCH   1  12
TORSDOF 3
ENDMDL
