MODEL 1
REMARK VINA RESULT: -7.356120850      0.000      0.000
REMARK  2 active torsions:
REMARK  status: ('A' for Active; 'I' for Inactive)
REMARK    1  A    between atoms: N1_1  and  C1_4 
REMARK    2  A    between atoms: C4_13  and  C5_14 
ROOT
HETATM    1  C1  UNL     1      31.268  65.177   9.731  1.00  0.00     0.120 A 
HETATM    2  N2  UNL     1      31.778  65.789   8.655  1.00  0.00    -0.294 N 
ATOM      3  H2  UNL     1      32.788  65.900   8.575  1.00  0.00     0.172 HD
HETATM    4  C2  UNL     1      30.979  66.263   7.668  1.00  0.00     0.327 A 
HETATM    5  O1  UNL     1      31.436  66.840   6.650  1.00  0.00    -0.247 OA
HETATM    6  N3  UNL     1      29.661  66.107   7.793  1.00  0.00    -0.296 N 
ATOM      7  H3  UNL     1      29.048  66.461   7.058  1.00  0.00     0.171 HD
HETATM    8  C3  UNL     1      29.108  65.491   8.875  1.00  0.00     0.138 A 
HETATM    9  N4  UNL     1      27.700  65.330   8.999  1.00  0.00    -0.081 NA
HETATM   10  C4  UNL     1      29.914  64.997   9.898  1.00  0.00     0.095 A 
ENDROOT
BRANCH  10  11
HETATM   11  C5  UNL     1      29.314  64.338  11.052  1.00  0.00     0.148 A 
HETATM   12  N5  UNL     1      28.556  63.221  11.014  1.00  0.00    -0.269 N 
HETATM   13  N6  UNL     1      28.186  62.913  12.246  1.00  0.00    -0.007 NA
ATOM     14  H5  UNL     1      28.309  62.701  10.173  1.00  0.00     0.185 HD
HETATM   15  N7  UNL     1      28.683  63.798  13.090  1.00  0.00    -0.007 NA
HETATM   16  N8  UNL     1      29.367  64.659  12.358  1.00  0.00    -0.269 N 
ATOM     17  H8  UNL     1      29.869  65.464  12.733  1.00  0.00     0.185 HD
ENDBRANCH  10  11
BRANCH   1  18
HETATM   18  N1  UNL     1      32.054  64.738  10.649  1.00  0.00    -0.384 N 
ATOM     19  H12 UNL     1      32.466  63.813  10.527  1.00  0.00     0.157 HD
ATOM     20  H11 UNL     1      32.249  65.313  11.467  1.00  0.00     0.157 HD
ENDBRANCH   1  18
TORSDOF 2
ENDMDL
MODEL 2
REMARK VINA RESULT: -6.755105078      3.795      5.573
REMARK  2 active torsions:
REMARK  status: ('A' for Active; 'I' for Inactive)
REMARK    1  A    between atoms: N1_1  and  C1_4 
REMARK    2  A    between atoms: C4_13  and  C5_14 
ROOT
HETATM    1  C1  UNL     1      26.756  63.036  13.473  1.00  0.00     0.120 A 
HETATM    2  N2  UNL     1      27.365  63.789  14.398  1.00  0.00    -0.294 N 
ATOM      3  H2  UNL     1      26.978  63.832  15.340  1.00  0.00     0.172 HD
HETATM    4  C2  UNL     1      28.485  64.495  14.109  1.00  0.00     0.327 A 
HETATM    5  O1  UNL     1      29.072  65.207  14.962  1.00  0.00    -0.247 OA
HETATM    6  N3  UNL     1      28.974  64.424  12.870  1.00  0.00    -0.296 N 
ATOM      7  H3  UNL     1      29.816  64.951  12.640  1.00  0.00     0.171 HD
HETATM    8  C3  UNL     1      28.381  63.670  11.904  1.00  0.00     0.138 A 
HETATM    9  N4  UNL     1      28.910  63.601  10.585  1.00  0.00    -0.081 NA
HETATM   10  C4  UNL     1      27.229  62.937  12.184  1.00  0.00     0.095 A 
ENDROOT
BRANCH  10  11
HETATM   11  C5  UNL     1      26.600  62.131  11.144  1.00  0.00     0.148 A 
HETATM   12  N5  UNL     1      27.004  60.906  10.747  1.00  0.00    -0.269 N 
HETATM   13  N6  UNL     1      26.200  60.480   9.787  1.00  0.00    -0.007 NA
ATOM     14  H5  UNL     1      27.800  60.392  11.126  1.00  0.00     0.185 HD
HETATM   15  N7  UNL     1      25.280  61.395   9.545  1.00  0.00    -0.007 NA
HETATM   16  N8  UNL     1      25.530  62.393  10.373  1.00  0.00    -0.269 N 
ATOM     17  H8  UNL     1      24.981  63.252  10.422  1.00  0.00     0.185 HD
ENDBRANCH  10  11
BRANCH   1  18
HETATM   18  N1  UNL     1      25.696  62.379  13.780  1.00  0.00    -0.384 N 
ATOM     19  H12 UNL     1      25.220  62.614  14.651  1.00  0.00     0.157 HD
ATOM     20  H11 UNL     1      25.355  61.646  13.159  1.00  0.00     0.157 HD
ENDBRANCH   1  18
TORSDOF 2
ENDMDL
MODEL 3
REMARK VINA RESULT: -6.536766121      0.422      2.391
REMARK  2 active torsions:
REMARK  status: ('A' for Active; 'I' for Inactive)
REMARK    1  A    between atoms: N1_1  and  C1_4 
REMARK    2  A    between atoms: C4_13  and  C5_14 
ROOT
HETATM    1  C1  UNL     1      29.078  65.776   8.715  1.00  0.00     0.120 A 
HETATM    2  N2  UNL     1      29.629  66.278   7.602  1.00  0.00    -0.294 N 
ATOM      3  H2  UNL     1      29.024  66.631   6.861  1.00  0.00     0.172 HD
HETATM    4  C2  UNL     1      30.973  66.326   7.440  1.00  0.00     0.327 A 
HETATM    5  O1  UNL     1      31.511  66.793   6.405  1.00  0.00    -0.247 OA
HETATM    6  N3  UNL     1      31.745  65.858   8.422  1.00  0.00    -0.296 N 
ATOM      7  H3  UNL     1      32.759  65.888   8.312  1.00  0.00     0.171 HD
HETATM    8  C3  UNL     1      31.219  65.341   9.566  1.00  0.00     0.138 A 
HETATM    9  N4  UNL     1      32.051  64.843  10.608  1.00  0.00    -0.081 NA
HETATM   10  C4  UNL     1      29.840  65.284   9.751  1.00  0.00     0.095 A 
ENDROOT
BRANCH  10  11
HETATM   11  C5  UNL     1      29.284  64.728  10.979  1.00  0.00     0.148 A 
HETATM   12  N5  UNL     1      29.235  65.356  12.173  1.00  0.00    -0.269 N 
HETATM   13  N6  UNL     1      28.666  64.552  13.056  1.00  0.00    -0.007 NA
ATOM     14  H5  UNL     1      29.580  66.296  12.363  1.00  0.00     0.185 HD
HETATM   15  N7  UNL     1      28.341  63.414  12.471  1.00  0.00    -0.007 NA
HETATM   16  N8  UNL     1      28.719  63.529  11.211  1.00  0.00    -0.269 N 
ATOM     17  H8  UNL     1      28.599  62.803  10.504  1.00  0.00     0.185 HD
ENDBRANCH  10  11
BRANCH   1  18
HETATM   18  N1  UNL     1      27.799  65.746   8.837  1.00  0.00    -0.384 N 
ATOM     19  H12 UNL     1      27.364  64.870   9.127  1.00  0.00     0.157 HD
ATOM     20  H11 UNL     1      27.251  66.584   8.644  1.00  0.00     0.157 HD
ENDBRANCH   1  18
TORSDOF 2
ENDMDL
MODEL 4
REMARK VINA RESULT: -6.331050728      1.595      3.185
REMARK  2 active torsions:
REMARK  status: ('A' for Active; 'I' for Inactive)
REMARK    1  A    between atoms: N1_1  and  C1_4 
REMARK    2  A    between atoms: C4_13  and  C5_14 
ROOT
HETATM    1  C1  UNL     1      29.501  66.191   8.099  1.00  0.00     0.120 A 
HETATM    2  N2  UNL     1      30.808  66.267   7.815  1.00  0.00    -0.294 N 
ATOM      3  H2  UNL     1      31.103  66.663   6.922  1.00  0.00     0.172 HD
HETATM    4  C2  UNL     1      31.747  65.829   8.687  1.00  0.00     0.327 A 
HETATM    5  O1  UNL     1      32.978  65.892   8.441  1.00  0.00    -0.247 OA
HETATM    6  N3  UNL     1      31.339  65.314   9.848  1.00  0.00    -0.296 N 
ATOM      7  H3  UNL     1      32.036  64.980  10.513  1.00  0.00     0.171 HD
HETATM    8  C3  UNL     1      30.020  65.220  10.170  1.00  0.00     0.138 A 
HETATM    9  N4  UNL     1      29.594  64.669  11.410  1.00  0.00    -0.081 NA
HETATM   10  C4  UNL     1      29.041  65.666   9.285  1.00  0.00     0.095 A 
ENDROOT
BRANCH  10  11
HETATM   11  C5  UNL     1      27.629  65.562   9.637  1.00  0.00     0.148 A 
HETATM   12  N5  UNL     1      26.920  66.485  10.321  1.00  0.00    -0.269 N 
HETATM   13  N6  UNL     1      25.676  66.056  10.456  1.00  0.00    -0.007 NA
ATOM     14  H5  UNL     1      27.284  67.369  10.676  1.00  0.00     0.185 HD
HETATM   15  N7  UNL     1      25.552  64.876   9.877  1.00  0.00    -0.007 NA
HETATM   16  N8  UNL     1      26.742  64.584   9.382  1.00  0.00    -0.269 N 
ATOM     17  H8  UNL     1      26.960  63.727   8.873  1.00  0.00     0.185 HD
ENDBRANCH  10  11
BRANCH   1  18
HETATM   18  N1  UNL     1      28.637  66.616   7.248  1.00  0.00    -0.384 N 
ATOM     19  H12 UNL     1      27.789  66.066   7.109  1.00  0.00     0.157 HD
ATOM     20  H11 UNL     1      28.811  67.481   6.737  1.00  0.00     0.157 HD
ENDBRANCH   1  18
TORSDOF 2
ENDMDL
MODEL 5
REMARK VINA RESULT: -6.312201852      3.762      5.349
REMARK  2 active torsions:
REMARK  status: ('A' for Active; 'I' for Inactive)
REMARK    1  A    between atoms: N1_1  and  C1_4 
REMARK    2  A    between atoms: C4_13  and  C5_14 
ROOT
HETATM    1  C1  UNL     1      28.480  63.824  11.915  1.00  0.00     0.120 A 
HETATM    2  N2  UNL     1      29.071  64.536  12.883  1.00  0.00    -0.294 N 
ATOM      3  H2  UNL     1      29.924  65.053  12.673  1.00  0.00     0.172 HD
HETATM    4  C2  UNL     1      28.560  64.584  14.137  1.00  0.00     0.327 A 
HETATM    5  O1  UNL     1      29.099  65.246  15.059  1.00  0.00    -0.247 OA
HETATM    6  N3  UNL     1      27.444  63.900  14.391  1.00  0.00    -0.296 N 
ATOM      7  H3  UNL     1      27.049  63.927  15.331  1.00  0.00     0.171 HD
HETATM    8  C3  UNL     1      26.816  63.165  13.431  1.00  0.00     0.138 A 
HETATM    9  N4  UNL     1      25.626  62.438  13.711  1.00  0.00    -0.081 NA
HETATM   10  C4  UNL     1      27.327  63.104  12.137  1.00  0.00     0.095 A 
ENDROOT
BRANCH  10  11
HETATM   11  C5  UNL     1      26.650  62.315  11.115  1.00  0.00     0.148 A 
HETATM   12  N5  UNL     1      26.930  61.034  10.797  1.00  0.00    -0.269 N 
HETATM   13  N6  UNL     1      26.118  60.646   9.828  1.00  0.00    -0.007 NA
ATOM     14  H5  UNL     1      27.651  60.459  11.233  1.00  0.00     0.185 HD
HETATM   15  N7  UNL     1      25.312  61.640   9.504  1.00  0.00    -0.007 NA
HETATM   16  N8  UNL     1      25.641  62.649  10.289  1.00  0.00    -0.269 N 
ATOM     17  H8  UNL     1      25.189  63.564  10.273  1.00  0.00     0.185 HD
ENDBRANCH  10  11
BRANCH   1  18
HETATM   18  N1  UNL     1      28.991  63.800  10.736  1.00  0.00    -0.384 N 
ATOM     19  H12 UNL     1      29.980  64.027  10.637  1.00  0.00     0.157 HD
ATOM     20  H11 UNL     1      28.408  63.560   9.936  1.00  0.00     0.157 HD
ENDBRANCH   1  18
TORSDOF 2
ENDMDL
