MODEL 1
REMARK VINA RESULT: -7.887690994      0.000      0.000
REMARK  3 active torsions:
REMARK  status: ('A' for Active; 'I' for Inactive)
REMARK    1  A    between atoms: N1_1  and  C1_4 
REMARK    2  A    between atoms: C2_10  and  C3_11 
REMARK       I    between atoms: C3_11  and  N4_13 
REMARK    3  A    between atoms: N4_13  and  C4_15 
ROOT
HETATM    1  C3  UNL     1      30.967  65.276  10.202  1.00  0.00     0.292 C 
HETATM    2  O2  UNL     1      32.018  64.691  10.544  1.00  0.00    -0.265 OA
HETATM    3  N4  UNL     1      29.849  65.432  11.045  1.00  0.00    -0.152 N 
ATOM      4  H4  UNL     1      29.500  66.378  11.203  1.00  0.00     0.188 HD
ENDROOT
BRANCH   1   5
HETATM    5  C2  UNL     1      30.900  65.827   8.855  1.00  0.00     0.170 A 
HETATM    6  C1  UNL     1      31.933  66.151   8.010  1.00  0.00     0.155 A 
HETATM    7  N2  UNL     1      31.374  66.627   6.871  1.00  0.00    -0.224 N 
HETATM    8  O1  UNL     1      30.105  66.589   7.028  1.00  0.00    -0.155 OA
ATOM      9  H2  UNL     1      31.872  66.955   6.042  1.00  0.00     0.198 HD
HETATM   10  N3  UNL     1      29.781  66.127   8.176  1.00  0.00    -0.233 N 
ATOM     11  H3  UNL     1      28.829  66.006   8.519  1.00  0.00     0.197 HD
BRANCH   6  12
HETATM   12  N1  UNL     1      33.196  66.051   8.193  1.00  0.00    -0.382 N 
ATOM     13  H12 UNL     1      33.963  66.433   7.640  1.00  0.00     0.157 HD
ATOM     14  H11 UNL     1      33.617  65.540   8.969  1.00  0.00     0.157 HD
ENDBRANCH   6  12
ENDBRANCH   1   5
BRANCH   3  15
HETATM   15  C4  UNL     1      29.240  64.468  11.626  1.00  0.00     0.713 A 
HETATM   16  N5  UNL     1      29.234  64.202  12.942  1.00  0.00    -0.113 N 
HETATM   17  N6  UNL     1      28.479  63.113  13.098  1.00  0.00     0.009 NA
ATOM     18  H5  UNL     1      29.711  64.727  13.676  1.00  0.00     0.203 HD
HETATM   19  N7  UNL     1      28.019  62.700  11.927  1.00  0.00    -0.212 N 
HETATM   20  N8  UNL     1      28.488  63.534  11.021  1.00  0.00    -0.118 N 
ATOM     21  H7  UNL     1      27.418  61.894  11.760  1.00  0.00     0.206 HD
ATOM     22  H8  UNL     1      28.309  63.478  10.018  1.00  0.00     0.207 HD
ENDBRANCH   3  15
TORSDOF 3
ENDMDL
MODEL 2
REMARK VINA RESULT: -7.508743727      2.390      2.851
REMARK  3 active torsions:
REMARK  status: ('A' for Active; 'I' for Inactive)
REMARK    1  A    between atoms: N1_1  and  C1_4 
REMARK    2  A    between atoms: C2_10  and  C3_11 
REMARK       I    between atoms: C3_11  and  N4_13 
REMARK    3  A    between atoms: N4_13  and  C4_15 
ROOT
HETATM    1  C3  UNL     1      29.492  65.312   9.514  1.00  0.00     0.292 C 
HETATM    2  O2  UNL     1      29.780  64.341  10.248  1.00  0.00    -0.265 OA
HETATM    3  N4  UNL     1      28.221  65.920   9.482  1.00  0.00    -0.152 N 
ATOM      4  H4  UNL     1      28.170  66.925   9.652  1.00  0.00     0.188 HD
ENDROOT
BRANCH   1   5
HETATM    5  C2  UNL     1      30.534  65.843   8.644  1.00  0.00     0.170 A 
HETATM    6  C1  UNL     1      31.890  65.882   8.857  1.00  0.00     0.155 A 
HETATM    7  N2  UNL     1      32.442  66.467   7.767  1.00  0.00    -0.224 N 
HETATM    8  O1  UNL     1      31.486  66.754   6.966  1.00  0.00    -0.155 OA
ATOM      9  H2  UNL     1      33.435  66.646   7.613  1.00  0.00     0.198 HD
HETATM   10  N3  UNL     1      30.350  66.406   7.438  1.00  0.00    -0.233 N 
ATOM     11  H3  UNL     1      29.450  66.535   6.975  1.00  0.00     0.197 HD
BRANCH   6  12
HETATM   12  N1  UNL     1      32.567  65.468   9.861  1.00  0.00    -0.382 N 
ATOM     13  H12 UNL     1      33.360  65.904  10.331  1.00  0.00     0.157 HD
ATOM     14  H11 UNL     1      32.383  64.589  10.345  1.00  0.00     0.157 HD
ENDBRANCH   6  12
ENDBRANCH   1   5
BRANCH   3  15
HETATM   15  C4  UNL     1      27.126  65.297   9.255  1.00  0.00     0.713 A 
HETATM   16  N5  UNL     1      26.619  64.282   9.973  1.00  0.00    -0.113 N 
HETATM   17  N6  UNL     1      25.474  63.943   9.379  1.00  0.00     0.009 NA
ATOM     18  H5  UNL     1      27.026  63.856  10.806  1.00  0.00     0.203 HD
HETATM   19  N7  UNL     1      25.257  64.712   8.324  1.00  0.00    -0.212 N 
HETATM   20  N8  UNL     1      26.274  65.545   8.247  1.00  0.00    -0.118 N 
ATOM     21  H7  UNL     1      24.457  64.668   7.693  1.00  0.00     0.206 HD
ATOM     22  H8  UNL     1      26.396  66.265   7.534  1.00  0.00     0.207 HD
ENDBRANCH   3  15
TORSDOF 3
ENDMDL
MODEL 3
REMARK VINA RESULT: -7.289054675      1.447      1.828
REMARK  3 active torsions:
REMARK  status: ('A' for Active; 'I' for Inactive)
REMARK    1  A    between atoms: N1_1  and  C1_4 
REMARK    2  A    between atoms: C2_10  and  C3_11 
REMARK       I    between atoms: C3_11  and  N4_13 
REMARK    3  A    between atoms: N4_13  and  C4_15 
ROOT
HETATM    1  C3  UNL     1      29.246  65.729   9.784  1.00  0.00     0.292 C 
HETATM    2  O2  UNL     1      28.649  66.726  10.248  1.00  0.00    -0.265 OA
HETATM    3  N4  UNL     1      28.901  64.398  10.089  1.00  0.00    -0.152 N 
ATOM      4  H4  UNL     1      28.697  63.769   9.312  1.00  0.00     0.188 HD
ENDROOT
BRANCH   1   5
HETATM    5  C2  UNL     1      30.360  65.964   8.874  1.00  0.00     0.170 A 
HETATM    6  C1  UNL     1      31.702  65.776   9.097  1.00  0.00     0.155 A 
HETATM    7  N2  UNL     1      32.343  66.131   7.957  1.00  0.00    -0.224 N 
HETATM    8  O1  UNL     1      31.448  66.503   7.120  1.00  0.00    -0.155 OA
ATOM      9  H2  UNL     1      33.350  66.107   7.795  1.00  0.00     0.198 HD
HETATM   10  N3  UNL     1      30.272  66.422   7.614  1.00  0.00    -0.233 N 
ATOM     11  H3  UNL     1      29.407  66.665   7.131  1.00  0.00     0.197 HD
BRANCH   6  12
HETATM   12  N1  UNL     1      32.300  65.352  10.146  1.00  0.00    -0.382 N 
ATOM     13  H12 UNL     1      32.472  65.830  11.030  1.00  0.00     0.157 HD
ATOM     14  H11 UNL     1      32.707  64.420  10.229  1.00  0.00     0.157 HD
ENDBRANCH   6  12
ENDBRANCH   1   5
BRANCH   3  15
HETATM   15  C4  UNL     1      28.826  63.923  11.275  1.00  0.00     0.713 A 
HETATM   16  N5  UNL     1      28.111  62.855  11.667  1.00  0.00    -0.113 N 
HETATM   17  N6  UNL     1      28.325  62.726  12.977  1.00  0.00     0.009 NA
ATOM     18  H5  UNL     1      27.524  62.262  11.080  1.00  0.00     0.203 HD
HETATM   19  N7  UNL     1      29.144  63.673  13.406  1.00  0.00    -0.212 N 
HETATM   20  N8  UNL     1      29.452  64.410  12.359  1.00  0.00    -0.118 N 
ATOM     21  H7  UNL     1      29.474  63.806  14.362  1.00  0.00     0.206 HD
ATOM     22  H8  UNL     1      30.069  65.223  12.369  1.00  0.00     0.207 HD
ENDBRANCH   3  15
TORSDOF 3
ENDMDL
MODEL 4
REMARK VINA RESULT: -7.180480054      4.095      6.195
REMARK  3 active torsions:
REMARK  status: ('A' for Active; 'I' for Inactive)
REMARK    1  A    between atoms: N1_1  and  C1_4 
REMARK    2  A    between atoms: C2_10  and  C3_11 
REMARK       I    between atoms: C3_11  and  N4_13 
REMARK    3  A    between atoms: N4_13  and  C4_15 
ROOT
HETATM    1  C3  UNL     1      26.847  61.715  11.120  1.00  0.00     0.292 C 
HETATM    2  O2  UNL     1      27.303  60.656  10.635  1.00  0.00    -0.265 OA
HETATM    3  N4  UNL     1      25.482  62.063  11.095  1.00  0.00    -0.152 N 
ATOM      4  H4  UNL     1      25.030  62.278  11.984  1.00  0.00     0.188 HD
ENDROOT
BRANCH   1   5
HETATM    5  C2  UNL     1      27.785  62.637  11.747  1.00  0.00     0.170 A 
HETATM    6  C1  UNL     1      28.115  62.753  13.075  1.00  0.00     0.155 A 
HETATM    7  N2  UNL     1      29.028  63.750  13.167  1.00  0.00    -0.224 N 
HETATM    8  O1  UNL     1      29.226  64.192  11.983  1.00  0.00    -0.155 OA
ATOM      9  H2  UNL     1      29.475  64.085  14.021  1.00  0.00     0.198 HD
HETATM   10  N3  UNL     1      28.519  63.570  11.118  1.00  0.00    -0.233 N 
ATOM     11  H3  UNL     1      28.513  63.752  10.115  1.00  0.00     0.197 HD
BRANCH   6  12
HETATM   12  N1  UNL     1      27.685  62.088  14.081  1.00  0.00    -0.382 N 
ATOM     13  H12 UNL     1      27.027  62.367  14.808  1.00  0.00     0.157 HD
ATOM     14  H11 UNL     1      27.969  61.131  14.290  1.00  0.00     0.157 HD
ENDBRANCH   6  12
ENDBRANCH   1   5
BRANCH   3  15
HETATM   15  C4  UNL     1      24.770  62.126  10.033  1.00  0.00     0.713 A 
HETATM   16  N5  UNL     1      24.431  61.102   9.234  1.00  0.00    -0.113 N 
HETATM   17  N6  UNL     1      23.692  61.625   8.254  1.00  0.00     0.009 NA
ATOM     18  H5  UNL     1      24.687  60.121   9.352  1.00  0.00     0.203 HD
HETATM   19  N7  UNL     1      23.563  62.931   8.421  1.00  0.00    -0.212 N 
HETATM   20  N8  UNL     1      24.227  63.241   9.516  1.00  0.00    -0.118 N 
ATOM     21  H7  UNL     1      23.048  63.574   7.819  1.00  0.00     0.206 HD
ATOM     22  H8  UNL     1      24.315  64.178   9.909  1.00  0.00     0.207 HD
ENDBRANCH   3  15
TORSDOF 3
ENDMDL
MODEL 5
REMARK VINA RESULT: -7.131635712      1.530      2.296
REMARK  3 active torsions:
REMARK  status: ('A' for Active; 'I' for Inactive)
REMARK    1  A    between atoms: N1_1  and  C1_4 
REMARK    2  A    between atoms: C2_10  and  C3_11 
REMARK       I    between atoms: C3_11  and  N4_13 
REMARK    3  A    between atoms: N4_13  and  C4_15 
ROOT
HETATM    1  C3  UNL     1      29.634  65.472   9.882  1.00  0.00     0.292 C 
HETATM    2  O2  UNL     1      28.655  66.189   9.581  1.00  0.00    -0.265 OA
HETATM    3  N4  UNL     1      29.600  64.480  10.881  1.00  0.00    -0.152 N 
ATOM      4  H4  UNL     1      29.869  63.531  10.620  1.00  0.00     0.188 HD
ENDROOT
BRANCH   1   5
HETATM    5  C2  UNL     1      30.879  65.677   9.153  1.00  0.00     0.170 A 
HETATM    6  C1  UNL     1      31.054  66.004   7.830  1.00  0.00     0.155 A 
HETATM    7  N2  UNL     1      32.390  66.084   7.619  1.00  0.00    -0.224 N 
HETATM    8  O1  UNL     1      32.965  65.824   8.732  1.00  0.00    -0.155 OA
ATOM      9  H2  UNL     1      32.851  66.310   6.737  1.00  0.00     0.198 HD
HETATM   10  N3  UNL     1      32.119  65.579   9.659  1.00  0.00    -0.233 N 
ATOM     11  H3  UNL     1      32.349  65.348  10.625  1.00  0.00     0.197 HD
BRANCH   6  12
HETATM   12  N1  UNL     1      30.177  66.207   6.920  1.00  0.00    -0.382 N 
ATOM     13  H12 UNL     1      30.306  66.370   5.922  1.00  0.00     0.157 HD
ATOM     14  H11 UNL     1      29.173  66.234   7.097  1.00  0.00     0.157 HD
ENDBRANCH   6  12
ENDBRANCH   1   5
BRANCH   3  15
HETATM   15  C4  UNL     1      29.254  64.688  12.096  1.00  0.00     0.713 A 
HETATM   16  N5  UNL     1      28.908  65.866  12.640  1.00  0.00    -0.113 N 
HETATM   17  N6  UNL     1      28.628  65.616  13.919  1.00  0.00     0.009 NA
ATOM     18  H5  UNL     1      28.869  66.770  12.169  1.00  0.00     0.203 HD
HETATM   19  N7  UNL     1      28.786  64.329  14.183  1.00  0.00    -0.212 N 
HETATM   20  N8  UNL     1      29.172  63.757  13.061  1.00  0.00    -0.118 N 
ATOM     21  H7  UNL     1      28.637  63.869  15.081  1.00  0.00     0.206 HD
ATOM     22  H8  UNL     1      29.376  62.764  12.943  1.00  0.00     0.207 HD
ENDBRANCH   3  15
TORSDOF 3
ENDMDL
