MODEL 1
REMARK VINA RESULT: -7.221833666      0.000      0.000
REMARK  2 active torsions:
REMARK  status: ('A' for Active; 'I' for Inactive)
REMARK       I    between atoms: N1_1  and  C1_4 
REMARK       I    between atoms: C1_4  and  N3_6 
REMARK    1  A    between atoms: N3_6  and  C2_8 
REMARK    2  A    between atoms: C3_13  and  C4_14 
ROOT
HETATM    1  C2  UNL     1      28.274  63.725  11.293  1.00  0.00     0.247 A 
HETATM    2  N4  UNL     1      29.149  64.247  12.170  1.00  0.00    -0.263 N 
ATOM      3  H4  UNL     1      29.153  64.125  13.182  1.00  0.00     0.190 HD
HETATM    4  N5  UNL     1      30.004  64.950  11.448  1.00  0.00    -0.273 N 
ATOM      5  H5  UNL     1      30.795  65.472  11.825  1.00  0.00     0.189 HD
HETATM    6  C3  UNL     1      29.679  64.878  10.144  1.00  0.00     0.212 A 
HETATM    7  O1  UNL     1      28.612  64.116  10.098  1.00  0.00    -0.256 OA
ENDROOT
BRANCH   1   8
HETATM    8  N3  UNL     1      27.266  62.959  11.637  1.00  0.00    -0.295 N 
HETATM    9  C1  UNL     1      26.342  62.497  10.677  1.00  0.00     0.189 C 
HETATM   10  N1  UNL     1      25.515  63.314  10.156  1.00  0.00    -0.373 N 
HETATM   11  N2  UNL     1      26.350  61.137  10.311  1.00  0.00    -0.064 NA
ATOM     12  H12 UNL     1      24.847  62.980   9.462  1.00  0.00     0.158 HD
ATOM     13  H11 UNL     1      25.509  64.299  10.422  1.00  0.00     0.158 HD
ATOM     14  H3  UNL     1      27.150  62.693  12.615  1.00  0.00     0.172 HD
ENDBRANCH   1   8
BRANCH   6  15
HETATM   15  C4  UNL     1      30.369  65.513   9.018  1.00  0.00     0.185 A 
HETATM   16  N6  UNL     1      29.789  65.975   7.908  1.00  0.00    -0.267 N 
HETATM   17  N7  UNL     1      30.739  66.480   7.121  1.00  0.00    -0.007 NA
ATOM     18  H6  UNL     1      28.791  65.947   7.699  1.00  0.00     0.185 HD
HETATM   19  N8  UNL     1      31.907  66.334   7.733  1.00  0.00    -0.007 NA
HETATM   20  N9  UNL     1      31.685  65.733   8.913  1.00  0.00    -0.267 N 
ATOM     21  H9  UNL     1      32.393  65.489   9.606  1.00  0.00     0.185 HD
ENDBRANCH   6  15
TORSDOF 2
ENDMDL
MODEL 2
REMARK VINA RESULT: -7.040962140      1.451      5.583
REMARK  2 active torsions:
REMARK  status: ('A' for Active; 'I' for Inactive)
REMARK       I    between atoms: N1_1  and  C1_4 
REMARK       I    between atoms: C1_4  and  N3_6 
REMARK    1  A    between atoms: N3_6  and  C2_8 
REMARK    2  A    between atoms: C3_13  and  C4_14 
ROOT
HETATM    1  C2  UNL     1      29.854  64.641   9.642  1.00  0.00     0.247 A 
HETATM    2  N4  UNL     1      30.345  65.411  10.627  1.00  0.00    -0.263 N 
ATOM      3  H4  UNL     1      31.041  66.151  10.541  1.00  0.00     0.190 HD
HETATM    4  N5  UNL     1      29.739  65.011  11.731  1.00  0.00    -0.273 N 
ATOM      5  H5  UNL     1      29.897  65.405  12.659  1.00  0.00     0.189 HD
HETATM    6  C3  UNL     1      28.884  64.010  11.454  1.00  0.00     0.212 A 
HETATM    7  O1  UNL     1      28.988  63.818  10.161  1.00  0.00    -0.256 OA
ENDROOT
BRANCH   1   8
HETATM    8  N3  UNL     1      30.219  64.741   8.386  1.00  0.00    -0.295 N 
HETATM    9  C1  UNL     1      30.279  65.994   7.742  1.00  0.00     0.189 C 
HETATM   10  N1  UNL     1      29.199  66.606   7.455  1.00  0.00    -0.373 N 
HETATM   11  N2  UNL     1      31.535  66.549   7.430  1.00  0.00    -0.064 NA
ATOM     12  H12 UNL     1      29.242  67.512   6.989  1.00  0.00     0.158 HD
ATOM     13  H11 UNL     1      28.290  66.203   7.681  1.00  0.00     0.158 HD
ATOM     14  H3  UNL     1      30.464  63.898   7.867  1.00  0.00     0.172 HD
ENDBRANCH   1   8
BRANCH   6  15
HETATM   15  C4  UNL     1      28.020  63.290  12.395  1.00  0.00     0.185 A 
HETATM   16  N6  UNL     1      28.416  62.713  13.531  1.00  0.00    -0.267 N 
HETATM   17  N7  UNL     1      27.350  62.161  14.111  1.00  0.00    -0.007 NA
ATOM     18  H6  UNL     1      29.369  62.696  13.893  1.00  0.00     0.185 HD
HETATM   19  N8  UNL     1      26.293  62.391  13.343  1.00  0.00    -0.007 NA
HETATM   20  N9  UNL     1      26.702  63.093  12.274  1.00  0.00    -0.267 N 
ATOM     21  H9  UNL     1      26.113  63.419  11.507  1.00  0.00     0.185 HD
ENDBRANCH   6  15
TORSDOF 2
ENDMDL
MODEL 3
REMARK VINA RESULT: -6.943603870      0.937      1.469
REMARK  2 active torsions:
REMARK  status: ('A' for Active; 'I' for Inactive)
REMARK       I    between atoms: N1_1  and  C1_4 
REMARK       I    between atoms: C1_4  and  N3_6 
REMARK    1  A    between atoms: N3_6  and  C2_8 
REMARK    2  A    between atoms: C3_13  and  C4_14 
ROOT
HETATM    1  C2  UNL     1      27.890  62.953  11.640  1.00  0.00     0.247 A 
HETATM    2  N4  UNL     1      28.436  63.505  12.737  1.00  0.00    -0.263 N 
ATOM      3  H4  UNL     1      28.161  63.350  13.706  1.00  0.00     0.190 HD
HETATM    4  N5  UNL     1      29.404  64.291  12.299  1.00  0.00    -0.273 N 
ATOM      5  H5  UNL     1      30.013  64.855  12.893  1.00  0.00     0.189 HD
HETATM    6  C3  UNL     1      29.471  64.240  10.955  1.00  0.00     0.212 A 
HETATM    7  O1  UNL     1      28.523  63.407  10.597  1.00  0.00    -0.256 OA
ENDROOT
BRANCH   1   8
HETATM    8  N3  UNL     1      26.888  62.106  11.671  1.00  0.00    -0.295 N 
HETATM    9  C1  UNL     1      26.092  61.877  10.530  1.00  0.00     0.189 C 
HETATM   10  N1  UNL     1      25.289  62.781  10.131  1.00  0.00    -0.373 N 
HETATM   11  N2  UNL     1      26.202  60.650   9.848  1.00  0.00    -0.064 NA
ATOM     12  H12 UNL     1      24.713  62.616   9.306  1.00  0.00     0.158 HD
ATOM     13  H11 UNL     1      25.209  63.670  10.626  1.00  0.00     0.158 HD
ATOM     14  H3  UNL     1      26.682  61.606  12.536  1.00  0.00     0.172 HD
ENDBRANCH   1   8
BRANCH   6  15
HETATM   15  C4  UNL     1      30.402  64.959  10.082  1.00  0.00     0.185 A 
HETATM   16  N6  UNL     1      31.722  65.055  10.259  1.00  0.00    -0.267 N 
HETATM   17  N7  UNL     1      32.224  65.784   9.263  1.00  0.00    -0.007 NA
ATOM     18  H6  UNL     1      32.254  64.640  11.024  1.00  0.00     0.185 HD
HETATM   19  N8  UNL     1      31.225  66.146   8.467  1.00  0.00    -0.007 NA
HETATM   20  N9  UNL     1      30.089  65.635   8.970  1.00  0.00    -0.267 N 
ATOM     21  H9  UNL     1      29.155  65.744   8.575  1.00  0.00     0.185 HD
ENDBRANCH   6  15
TORSDOF 2
ENDMDL
MODEL 4
REMARK VINA RESULT: -6.934782066      1.506      2.287
REMARK  2 active torsions:
REMARK  status: ('A' for Active; 'I' for Inactive)
REMARK       I    between atoms: N1_1  and  C1_4 
REMARK       I    between atoms: C1_4  and  N3_6 
REMARK    1  A    between atoms: N3_6  and  C2_8 
REMARK    2  A    between atoms: C3_13  and  C4_14 
ROOT
HETATM    1  C2  UNL     1      28.317  63.697  10.952  1.00  0.00     0.247 A 
HETATM    2  N4  UNL     1      27.491  64.750  10.818  1.00  0.00    -0.263 N 
ATOM      3  H4  UNL     1      26.584  64.882  11.264  1.00  0.00     0.190 HD
HETATM    4  N5  UNL     1      28.100  65.579   9.988  1.00  0.00    -0.273 N 
ATOM      5  H5  UNL     1      27.727  66.478   9.683  1.00  0.00     0.189 HD
HETATM    6  C3  UNL     1      29.283  65.065   9.603  1.00  0.00     0.212 A 
HETATM    7  O1  UNL     1      29.372  63.911  10.220  1.00  0.00    -0.256 OA
ENDROOT
BRANCH   1   8
HETATM    8  N3  UNL     1      28.054  62.656  11.705  1.00  0.00    -0.295 N 
HETATM    9  C1  UNL     1      27.901  62.785  13.101  1.00  0.00     0.189 C 
HETATM   10  N1  UNL     1      28.921  63.026  13.826  1.00  0.00    -0.373 N 
HETATM   11  N2  UNL     1      26.621  62.649  13.670  1.00  0.00    -0.064 NA
ATOM     12  H12 UNL     1      28.811  63.120  14.835  1.00  0.00     0.158 HD
ATOM     13  H11 UNL     1      29.849  63.125  13.413  1.00  0.00     0.158 HD
ATOM     14  H3  UNL     1      27.959  61.736  11.273  1.00  0.00     0.172 HD
ENDBRANCH   1   8
BRANCH   6  15
HETATM   15  C4  UNL     1      30.261  65.666   8.692  1.00  0.00     0.185 A 
HETATM   16  N6  UNL     1      31.581  65.712   8.885  1.00  0.00    -0.267 N 
HETATM   17  N7  UNL     1      32.132  66.334   7.843  1.00  0.00    -0.007 NA
ATOM     18  H6  UNL     1      32.081  65.336   9.690  1.00  0.00     0.185 HD
HETATM   19  N8  UNL     1      31.164  66.677   7.003  1.00  0.00    -0.007 NA
HETATM   20  N9  UNL     1      29.997  66.264   7.524  1.00  0.00    -0.267 N 
ATOM     21  H9  UNL     1      29.076  66.385   7.104  1.00  0.00     0.185 HD
ENDBRANCH   6  15
TORSDOF 2
ENDMDL
MODEL 5
REMARK VINA RESULT: -6.848338714      1.048      5.467
REMARK  2 active torsions:
REMARK  status: ('A' for Active; 'I' for Inactive)
REMARK       I    between atoms: N1_1  and  C1_4 
REMARK       I    between atoms: C1_4  and  N3_6 
REMARK    1  A    between atoms: N3_6  and  C2_8 
REMARK    2  A    between atoms: C3_13  and  C4_14 
ROOT
HETATM    1  C2  UNL     1      29.398  64.743  11.216  1.00  0.00     0.247 A 
HETATM    2  N4  UNL     1      29.300  64.168  12.427  1.00  0.00    -0.263 N 
ATOM      3  H4  UNL     1      29.852  64.383  13.257  1.00  0.00     0.190 HD
HETATM    4  N5  UNL     1      28.340  63.265  12.319  1.00  0.00    -0.273 N 
ATOM      5  H5  UNL     1      28.024  62.656  13.075  1.00  0.00     0.189 HD
HETATM    6  C3  UNL     1      27.841  63.266  11.070  1.00  0.00     0.212 A 
HETATM    7  O1  UNL     1      28.520  64.188  10.430  1.00  0.00    -0.256 OA
ENDROOT
BRANCH   1   8
HETATM    8  N3  UNL     1      30.251  65.696  10.927  1.00  0.00    -0.295 N 
HETATM    9  C1  UNL     1      31.339  65.463  10.062  1.00  0.00     0.189 C 
HETATM   10  N1  UNL     1      32.312  64.739  10.454  1.00  0.00    -0.373 N 
HETATM   11  N2  UNL     1      31.330  66.033   8.774  1.00  0.00    -0.064 NA
ATOM     12  H12 UNL     1      33.099  64.571   9.828  1.00  0.00     0.158 HD
ATOM     13  H11 UNL     1      32.318  64.326  11.387  1.00  0.00     0.158 HD
ATOM     14  H3  UNL     1      30.125  66.622  11.337  1.00  0.00     0.172 HD
ENDBRANCH   1   8
BRANCH   6  15
HETATM   15  C4  UNL     1      26.769  62.420  10.538  1.00  0.00     0.185 A 
HETATM   16  N6  UNL     1      26.807  61.090  10.427  1.00  0.00    -0.267 N 
HETATM   17  N7  UNL     1      25.652  60.682   9.904  1.00  0.00    -0.007 NA
ATOM     18  H6  UNL     1      27.587  60.490  10.697  1.00  0.00     0.185 HD
HETATM   19  N8  UNL     1      24.894  61.750   9.687  1.00  0.00    -0.007 NA
HETATM   20  N9  UNL     1      25.582  62.834  10.080  1.00  0.00    -0.267 N 
ATOM     21  H9  UNL     1      25.257  63.800  10.036  1.00  0.00     0.185 HD
ENDBRANCH   6  15
TORSDOF 2
ENDMDL
