MODEL 1
REMARK VINA RESULT: -6.541713046      0.000      0.000
REMARK  3 active torsions:
REMARK  status: ('A' for Active; 'I' for Inactive)
REMARK    1  A    between atoms: C2_3  and  C3_4 
REMARK    2  A    between atoms: C3_4  and  O1_5 
REMARK    3  A    between atoms: C3_4  and  N2_7 
REMARK       I    between atoms: N2_7  and  C4_8 
ROOT
HETATM    1  C3  UNL     1      29.053  64.787  10.973  1.00  0.00     0.249 C 
ENDROOT
BRANCH   1   2
HETATM    2  C2  UNL     1      29.363  65.284   9.643  1.00  0.00     0.153 A 
HETATM    3  N1  UNL     1      30.517  65.662   9.109  1.00  0.00    -0.289 N 
HETATM    4  C1  UNL     1      31.838  65.690   9.708  1.00  0.00     0.162 C 
HETATM    5  C6  UNL     1      30.243  66.070   7.831  1.00  0.00     0.373 A 
HETATM    6  O2  UNL     1      28.957  65.943   7.601  1.00  0.00    -0.243 OA
HETATM    7  O3  UNL     1      31.129  66.494   7.044  1.00  0.00    -0.237 OA
HETATM    8  C5  UNL     1      28.359  65.468   8.661  1.00  0.00     0.195 A 
HETATM    9  N5  UNL     1      26.974  65.182   8.828  1.00  0.00    -0.072 NA
ENDBRANCH   1   2
BRANCH   1  10
HETATM   10  O1  UNL     1      29.462  65.576  11.935  1.00  0.00    -0.334 OA
ATOM     11  H1  UNL     1      30.405  65.587  12.041  1.00  0.00     0.220 HD
ENDBRANCH   1  10
BRANCH   1  12
HETATM   12  N2  UNL     1      28.403  63.633  11.318  1.00  0.00    -0.346 NA
HETATM   13  C4  UNL     1      27.764  62.500  11.658  1.00  0.00     0.263 C 
HETATM   14  N3  UNL     1      27.617  62.044  12.877  1.00  0.00    -0.362 N 
HETATM   15  N4  UNL     1      27.137  61.610  10.683  1.00  0.00    -0.049 NA
ATOM     16  H32 UNL     1      28.054  62.665  13.557  1.00  0.00     0.159 HD
ATOM     17  H31 UNL     1      27.132  61.184  13.135  1.00  0.00     0.159 HD
ENDBRANCH   1  12
TORSDOF 3
ENDMDL
MODEL 2
REMARK VINA RESULT: -6.485527439      3.143      5.146
REMARK  3 active torsions:
REMARK  status: ('A' for Active; 'I' for Inactive)
REMARK    1  A    between atoms: C2_3  and  C3_4 
REMARK    2  A    between atoms: C3_4  and  O1_5 
REMARK    3  A    between atoms: C3_4  and  N2_7 
REMARK       I    between atoms: N2_7  and  C4_8 
ROOT
HETATM    1  C3  UNL     1      27.942  63.316  11.347  1.00  0.00     0.249 C 
ENDROOT
BRANCH   1   2
HETATM    2  C2  UNL     1      26.511  63.326  11.097  1.00  0.00     0.153 A 
HETATM    3  N1  UNL     1      25.607  64.280  11.282  1.00  0.00    -0.289 N 
HETATM    4  C1  UNL     1      25.788  65.624  11.796  1.00  0.00     0.162 C 
HETATM    5  C6  UNL     1      24.400  63.754  10.908  1.00  0.00     0.373 A 
HETATM    6  O2  UNL     1      24.570  62.515  10.511  1.00  0.00    -0.243 OA
HETATM    7  O3  UNL     1      23.324  64.406  10.960  1.00  0.00    -0.237 OA
HETATM    8  C5  UNL     1      25.832  62.188  10.598  1.00  0.00     0.195 A 
HETATM    9  N5  UNL     1      26.436  60.941  10.266  1.00  0.00    -0.072 NA
ENDBRANCH   1   2
BRANCH   1  10
HETATM   10  O1  UNL     1      28.280  62.658  12.428  1.00  0.00    -0.334 OA
ATOM     11  H1  UNL     1      28.060  63.112  13.233  1.00  0.00     0.220 HD
ENDBRANCH   1  10
BRANCH   1  12
HETATM   12  N2  UNL     1      28.938  63.892  10.607  1.00  0.00    -0.346 NA
HETATM   13  C4  UNL     1      29.917  64.458   9.878  1.00  0.00     0.263 C 
HETATM   14  N3  UNL     1      31.138  64.688  10.291  1.00  0.00    -0.362 N 
HETATM   15  N4  UNL     1      29.735  64.900   8.497  1.00  0.00    -0.049 NA
ATOM     16  H32 UNL     1      31.265  64.379  11.255  1.00  0.00     0.159 HD
ATOM     17  H31 UNL     1      31.881  65.117   9.739  1.00  0.00     0.159 HD
ENDBRANCH   1  12
TORSDOF 3
ENDMDL
MODEL 3
REMARK VINA RESULT: -6.417213799      2.692      4.658
REMARK  3 active torsions:
REMARK  status: ('A' for Active; 'I' for Inactive)
REMARK    1  A    between atoms: C2_3  and  C3_4 
REMARK    2  A    between atoms: C3_4  and  O1_5 
REMARK    3  A    between atoms: C3_4  and  N2_7 
REMARK       I    between atoms: N2_7  and  C4_8 
ROOT
HETATM    1  C3  UNL     1      29.606  64.907   9.579  1.00  0.00     0.249 C 
ENDROOT
BRANCH   1   2
HETATM    2  C2  UNL     1      28.391  65.507  10.103  1.00  0.00     0.153 A 
HETATM    3  N1  UNL     1      28.162  66.140  11.246  1.00  0.00    -0.289 N 
HETATM    4  C1  UNL     1      29.079  66.427  12.332  1.00  0.00     0.162 C 
HETATM    5  C6  UNL     1      26.836  66.479  11.248  1.00  0.00     0.373 A 
HETATM    6  O2  UNL     1      26.278  66.060  10.136  1.00  0.00    -0.243 OA
HETATM    7  O3  UNL     1      26.289  67.097  12.199  1.00  0.00    -0.237 OA
HETATM    8  C5  UNL     1      27.167  65.460   9.390  1.00  0.00     0.195 A 
HETATM    9  N5  UNL     1      26.975  64.865   8.110  1.00  0.00    -0.072 NA
ENDBRANCH   1   2
BRANCH   1  10
HETATM   10  O1  UNL     1      29.705  63.624   9.826  1.00  0.00    -0.334 OA
ATOM     11  H1  UNL     1      29.915  63.105   9.058  1.00  0.00     0.220 HD
ENDBRANCH   1  10
BRANCH   1  12
HETATM   12  N2  UNL     1      30.618  65.508   8.881  1.00  0.00    -0.346 NA
HETATM   13  C4  UNL     1      31.612  66.098   8.194  1.00  0.00     0.263 C 
HETATM   14  N3  UNL     1      32.879  66.086   8.525  1.00  0.00    -0.362 N 
HETATM   15  N4  UNL     1      31.398  66.849   6.959  1.00  0.00    -0.049 NA
ATOM     16  H32 UNL     1      33.029  65.562   9.388  1.00  0.00     0.159 HD
ATOM     17  H31 UNL     1      33.634  66.534   8.005  1.00  0.00     0.159 HD
ENDBRANCH   1  12
TORSDOF 3
ENDMDL
MODEL 4
REMARK VINA RESULT: -6.387224763      2.358      5.313
REMARK  3 active torsions:
REMARK  status: ('A' for Active; 'I' for Inactive)
REMARK    1  A    between atoms: C2_3  and  C3_4 
REMARK    2  A    between atoms: C3_4  and  O1_5 
REMARK    3  A    between atoms: C3_4  and  N2_7 
REMARK       I    between atoms: N2_7  and  C4_8 
ROOT
HETATM    1  C3  UNL     1      28.545  64.288  10.622  1.00  0.00     0.249 C 
ENDROOT
BRANCH   1   2
HETATM    2  C2  UNL     1      28.043  63.713  11.858  1.00  0.00     0.153 A 
HETATM    3  N1  UNL     1      28.016  64.201  13.092  1.00  0.00    -0.289 N 
HETATM    4  C1  UNL     1      28.488  65.483  13.579  1.00  0.00     0.162 C 
HETATM    5  C6  UNL     1      27.458  63.234  13.884  1.00  0.00     0.373 A 
HETATM    6  O2  UNL     1      27.159  62.189  13.149  1.00  0.00    -0.243 OA
HETATM    7  O3  UNL     1      27.286  63.381  15.123  1.00  0.00    -0.237 OA
HETATM    8  C5  UNL     1      27.486  62.411  11.904  1.00  0.00     0.195 A 
HETATM    9  N5  UNL     1      27.328  61.537  10.791  1.00  0.00    -0.072 NA
ENDBRANCH   1   2
BRANCH   1  10
HETATM   10  O1  UNL     1      27.622  64.443   9.705  1.00  0.00    -0.334 OA
ATOM     11  H1  UNL     1      27.639  65.298   9.291  1.00  0.00     0.220 HD
ENDBRANCH   1  10
BRANCH   1  12
HETATM   12  N2  UNL     1      29.822  64.675  10.323  1.00  0.00    -0.346 NA
HETATM   13  C4  UNL     1      31.078  65.056  10.027  1.00  0.00     0.263 C 
HETATM   14  N3  UNL     1      32.163  64.639  10.633  1.00  0.00    -0.362 N 
HETATM   15  N4  UNL     1      31.399  66.007   8.966  1.00  0.00    -0.049 NA
ATOM     16  H32 UNL     1      31.939  63.975  11.374  1.00  0.00     0.159 HD
ATOM     17  H31 UNL     1      33.115  64.927  10.409  1.00  0.00     0.159 HD
ENDBRANCH   1  12
TORSDOF 3
ENDMDL
MODEL 5
REMARK VINA RESULT: -6.319954810      2.758      4.888
REMARK  3 active torsions:
REMARK  status: ('A' for Active; 'I' for Inactive)
REMARK    1  A    between atoms: C2_3  and  C3_4 
REMARK    2  A    between atoms: C3_4  and  O1_5 
REMARK    3  A    between atoms: C3_4  and  N2_7 
REMARK       I    between atoms: N2_7  and  C4_8 
ROOT
HETATM    1  C3  UNL     1      28.855  64.451  11.751  1.00  0.00     0.249 C 
ENDROOT
BRANCH   1   2
HETATM    2  C2  UNL     1      27.615  63.783  11.394  1.00  0.00     0.153 A 
HETATM    3  N1  UNL     1      26.715  64.070  10.462  1.00  0.00    -0.289 N 
HETATM    4  C1  UNL     1      26.706  65.158   9.503  1.00  0.00     0.162 C 
HETATM    5  C6  UNL     1      25.725  63.132  10.572  1.00  0.00     0.373 A 
HETATM    6  O2  UNL     1      26.017  62.302  11.545  1.00  0.00    -0.243 OA
HETATM    7  O3  UNL     1      24.710  63.118   9.825  1.00  0.00    -0.237 OA
HETATM    8  C5  UNL     1      27.156  62.638  12.090  1.00  0.00     0.195 A 
HETATM    9  N5  UNL     1      27.829  62.000  13.171  1.00  0.00    -0.072 NA
ENDBRANCH   1   2
BRANCH   1  10
HETATM   10  O1  UNL     1      28.941  64.747  13.025  1.00  0.00    -0.334 OA
ATOM     11  H1  UNL     1      29.791  64.553  13.402  1.00  0.00     0.220 HD
ENDBRANCH   1  10
BRANCH   1  12
HETATM   12  N2  UNL     1      29.902  64.789  10.939  1.00  0.00    -0.346 NA
HETATM   13  C4  UNL     1      30.932  65.121  10.140  1.00  0.00     0.263 C 
HETATM   14  N3  UNL     1      32.192  64.844  10.367  1.00  0.00    -0.362 N 
HETATM   15  N4  UNL     1      30.770  65.853   8.886  1.00  0.00    -0.049 NA
ATOM     16  H32 UNL     1      32.305  64.334  11.242  1.00  0.00     0.159 HD
ATOM     17  H31 UNL     1      32.974  65.096   9.761  1.00  0.00     0.159 HD
ENDBRANCH   1  12
TORSDOF 3
ENDMDL
