MODEL 1
REMARK VINA RESULT: -6.572834277      0.000      0.000
REMARK  2 active torsions:
REMARK  status: ('A' for Active; 'I' for Inactive)
REMARK    1  A    between atoms: O1_3  and  C2_4 
REMARK    2  A    between atoms: C2_4  and  C3_6 
ROOT
HETATM    1  N1  UNL     1      26.276  62.580  11.491  1.00  0.00    -0.163 NA
HETATM    2  C1  UNL     1      27.284  62.944  11.057  1.00  0.00     0.237 C 
HETATM    3  O1  UNL     1      28.471  63.391  10.561  1.00  0.00    -0.200 OA
ENDROOT
BRANCH   3   4
HETATM    4  C2  UNL     1      28.913  64.681  10.642  1.00  0.00     0.317 C 
HETATM    5  O2  UNL     1      28.817  65.293  11.733  1.00  0.00    -0.258 OA
BRANCH   4   6
HETATM    6  C3  UNL     1      29.491  65.359   9.490  1.00  0.00     0.149 A 
HETATM    7  C4  UNL     1      28.711  66.008   8.557  1.00  0.00     0.142 A 
HETATM    8  N2  UNL     1      27.302  66.019   8.718  1.00  0.00    -0.081 NA
HETATM    9  N3  UNL     1      29.257  66.644   7.478  1.00  0.00    -0.296 N 
HETATM   10  C5  UNL     1      30.591  66.633   7.327  1.00  0.00     0.328 A 
ATOM     11  H3  UNL     1      28.662  67.118   6.799  1.00  0.00     0.171 HD
HETATM   12  O3  UNL     1      31.109  67.222   6.324  1.00  0.00    -0.247 OA
HETATM   13  N4  UNL     1      31.365  66.004   8.227  1.00  0.00    -0.275 N 
HETATM   14  C6  UNL     1      30.851  65.375   9.292  1.00  0.00     0.269 A 
ATOM     15  H4  UNL     1      32.377  66.006   8.096  1.00  0.00     0.173 HD
HETATM   16  O4  UNL     1      31.632  64.807  10.096  1.00  0.00    -0.267 OA
ENDBRANCH   4   6
ENDBRANCH   3   4
TORSDOF 2
ENDMDL
MODEL 2
REMARK VINA RESULT: -6.448701002      1.116      2.177
REMARK  2 active torsions:
REMARK  status: ('A' for Active; 'I' for Inactive)
REMARK    1  A    between atoms: O1_3  and  C2_4 
REMARK    2  A    between atoms: C2_4  and  C3_6 
ROOT
HETATM    1  N1  UNL     1      26.363  62.635  11.511  1.00  0.00    -0.163 NA
HETATM    2  C1  UNL     1      27.346  63.016  11.035  1.00  0.00     0.237 C 
HETATM    3  O1  UNL     1      28.503  63.483  10.489  1.00  0.00    -0.200 OA
ENDROOT
BRANCH   3   4
HETATM    4  C2  UNL     1      28.919  64.783  10.539  1.00  0.00     0.317 C 
HETATM    5  O2  UNL     1      28.788  65.426  11.608  1.00  0.00    -0.258 OA
BRANCH   4   6
HETATM    6  C3  UNL     1      29.509  65.436   9.379  1.00  0.00     0.149 A 
HETATM    7  C4  UNL     1      30.871  65.479   9.179  1.00  0.00     0.142 A 
HETATM    8  N2  UNL     1      31.731  64.869  10.128  1.00  0.00    -0.081 NA
HETATM    9  N3  UNL     1      31.422  66.093   8.089  1.00  0.00    -0.296 N 
HETATM   10  C5  UNL     1      30.607  66.669   7.191  1.00  0.00     0.328 A 
ATOM     11  H3  UNL     1      32.434  66.113   7.960  1.00  0.00     0.171 HD
HETATM   12  O3  UNL     1      31.111  67.244   6.173  1.00  0.00    -0.247 OA
HETATM   13  N4  UNL     1      29.276  66.636   7.371  1.00  0.00    -0.275 N 
HETATM   14  C6  UNL     1      28.716  66.040   8.432  1.00  0.00     0.269 A 
ATOM     15  H4  UNL     1      28.673  67.080   6.678  1.00  0.00     0.173 HD
HETATM   16  O4  UNL     1      27.464  66.046   8.539  1.00  0.00    -0.267 OA
ENDBRANCH   4   6
ENDBRANCH   3   4
TORSDOF 2
ENDMDL
MODEL 3
REMARK VINA RESULT: -6.172138153      1.252      1.566
REMARK  2 active torsions:
REMARK  status: ('A' for Active; 'I' for Inactive)
REMARK    1  A    between atoms: O1_3  and  C2_4 
REMARK    2  A    between atoms: C2_4  and  C3_6 
ROOT
HETATM    1  N1  UNL     1      28.471  64.614  13.852  1.00  0.00    -0.163 NA
HETATM    2  C1  UNL     1      28.454  65.031  12.773  1.00  0.00     0.237 C 
HETATM    3  O1  UNL     1      28.432  65.499  11.494  1.00  0.00    -0.200 OA
ENDROOT
BRANCH   3   4
HETATM    4  C2  UNL     1      28.819  64.785  10.397  1.00  0.00     0.317 C 
HETATM    5  O2  UNL     1      28.612  63.547  10.367  1.00  0.00    -0.258 OA
BRANCH   4   6
HETATM    6  C3  UNL     1      29.468  65.428   9.263  1.00  0.00     0.149 A 
HETATM    7  C4  UNL     1      28.748  65.957   8.214  1.00  0.00     0.142 A 
HETATM    8  N2  UNL     1      27.332  65.877   8.233  1.00  0.00    -0.081 NA
HETATM    9  N3  UNL     1      29.360  66.561   7.151  1.00  0.00    -0.296 N 
HETATM   10  C5  UNL     1      30.700  66.637   7.133  1.00  0.00     0.328 A 
ATOM     11  H3  UNL     1      28.808  66.947   6.384  1.00  0.00     0.171 HD
HETATM   12  O3  UNL     1      31.279  67.197   6.147  1.00  0.00    -0.247 OA
HETATM   13  N4  UNL     1      31.417  66.125   8.148  1.00  0.00    -0.275 N 
HETATM   14  C6  UNL     1      30.837  65.530   9.200  1.00  0.00     0.269 A 
ATOM     15  H4  UNL     1      32.434  66.192   8.118  1.00  0.00     0.173 HD
HETATM   16  O4  UNL     1      31.567  65.073  10.115  1.00  0.00    -0.267 OA
ENDBRANCH   4   6
ENDBRANCH   3   4
TORSDOF 2
ENDMDL
MODEL 4
REMARK VINA RESULT: -6.093452195      1.677      2.657
REMARK  2 active torsions:
REMARK  status: ('A' for Active; 'I' for Inactive)
REMARK    1  A    between atoms: O1_3  and  C2_4 
REMARK    2  A    between atoms: C2_4  and  C3_6 
ROOT
HETATM    1  N1  UNL     1      28.353  64.495  13.710  1.00  0.00    -0.163 NA
HETATM    2  C1  UNL     1      28.514  64.977  12.671  1.00  0.00     0.237 C 
HETATM    3  O1  UNL     1      28.699  65.523  11.437  1.00  0.00    -0.200 OA
ENDROOT
BRANCH   3   4
HETATM    4  C2  UNL     1      29.010  64.816  10.311  1.00  0.00     0.317 C 
HETATM    5  O2  UNL     1      28.734  63.593  10.261  1.00  0.00    -0.258 OA
BRANCH   4   6
HETATM    6  C3  UNL     1      29.654  65.451   9.170  1.00  0.00     0.149 A 
HETATM    7  C4  UNL     1      31.024  65.575   9.080  1.00  0.00     0.142 A 
HETATM    8  N2  UNL     1      31.836  65.071  10.127  1.00  0.00    -0.081 NA
HETATM    9  N3  UNL     1      31.625  66.171   8.007  1.00  0.00    -0.296 N 
HETATM   10  C5  UNL     1      30.855  66.648   7.016  1.00  0.00     0.328 A 
ATOM     11  H3  UNL     1      32.641  66.252   7.960  1.00  0.00     0.171 HD
HETATM   12  O3  UNL     1      31.407  67.205   6.012  1.00  0.00    -0.247 OA
HETATM   13  N4  UNL     1      29.519  66.535   7.088  1.00  0.00    -0.275 N 
HETATM   14  C6  UNL     1      28.909  65.954   8.131  1.00  0.00     0.269 A 
ATOM     15  H4  UNL     1      28.950  66.903   6.325  1.00  0.00     0.173 HD
HETATM   16  O4  UNL     1      27.654  65.882   8.135  1.00  0.00    -0.267 OA
ENDBRANCH   4   6
ENDBRANCH   3   4
TORSDOF 2
ENDMDL
MODEL 5
REMARK VINA RESULT: -5.946187392      1.823      2.479
REMARK  2 active torsions:
REMARK  status: ('A' for Active; 'I' for Inactive)
REMARK    1  A    between atoms: O1_3  and  C2_4 
REMARK    2  A    between atoms: C2_4  and  C3_6 
ROOT
HETATM    1  N1  UNL     1      27.374  62.255  11.966  1.00  0.00    -0.163 NA
HETATM    2  C1  UNL     1      27.178  62.925  11.044  1.00  0.00     0.237 C 
HETATM    3  O1  UNL     1      26.963  63.729   9.966  1.00  0.00    -0.200 OA
ENDROOT
BRANCH   3   4
HETATM    4  C2  UNL     1      27.226  65.069   9.928  1.00  0.00     0.317 C 
HETATM    5  O2  UNL     1      26.603  65.836  10.701  1.00  0.00    -0.258 OA
BRANCH   4   6
HETATM    6  C3  UNL     1      28.211  65.623   9.011  1.00  0.00     0.149 A 
HETATM    7  C4  UNL     1      29.544  65.724   9.345  1.00  0.00     0.142 A 
HETATM    8  N2  UNL     1      29.976  65.276  10.619  1.00  0.00    -0.081 NA
HETATM    9  N3  UNL     1      30.467  66.245   8.481  1.00  0.00    -0.296 N 
HETATM   10  C5  UNL     1      30.057  66.669   7.274  1.00  0.00     0.328 A 
ATOM     11  H3  UNL     1      31.449  66.311   8.748  1.00  0.00     0.171 HD
HETATM   12  O3  UNL     1      30.909  67.156   6.463  1.00  0.00    -0.247 OA
HETATM   13  N4  UNL     1      28.761  66.577   6.934  1.00  0.00    -0.275 N 
HETATM   14  C6  UNL     1      27.840  66.070   7.765  1.00  0.00     0.269 A 
ATOM     15  H4  UNL     1      28.468  66.904   6.012  1.00  0.00     0.173 HD
HETATM   16  O4  UNL     1      26.645  66.014   7.383  1.00  0.00    -0.267 OA
ENDBRANCH   4   6
ENDBRANCH   3   4
TORSDOF 2
ENDMDL
