MODEL 1
REMARK VINA RESULT: -6.571814281      0.000      0.000
REMARK  2 active torsions:
REMARK  status: ('A' for Active; 'I' for Inactive)
REMARK    1  A    between atoms: N1_2  and  C3_4 
REMARK    2  A    between atoms: C5_11  and  N4_12 
ROOT
HETATM    1  C3  UNL     1      27.737  65.991   8.595  1.00  0.00     0.143 A 
HETATM    2  N2  UNL     1      27.382  66.198   7.313  1.00  0.00    -0.242 N 
ATOM      3  H2  UNL     1      26.422  66.215   6.967  1.00  0.00     0.196 HD
HETATM    4  O1  UNL     1      28.445  66.376   6.574  1.00  0.00    -0.216 OA
HETATM    5  C4  UNL     1      29.538  66.303   7.276  1.00  0.00     0.204 A 
HETATM    6  N3  UNL     1      30.834  66.419   6.949  1.00  0.00    -0.167 N 
ATOM      7  H3  UNL     1      31.116  66.600   5.986  1.00  0.00     0.186 HD
HETATM    8  C5  UNL     1      31.754  66.290   7.926  1.00  0.00     0.680 A 
HETATM    9  N5  UNL     1      31.379  66.050   9.205  1.00  0.00    -0.155 N 
ATOM     10  H5  UNL     1      32.090  65.956   9.931  1.00  0.00     0.187 HD
HETATM   11  C6  UNL     1      30.080  65.935   9.528  1.00  0.00     0.278 A 
HETATM   12  O2  UNL     1      29.721  65.711  10.721  1.00  0.00    -0.266 OA
HETATM   13  C7  UNL     1      29.117  66.057   8.579  1.00  0.00     0.132 A 
ENDROOT
BRANCH   1  14
HETATM   14  N1  UNL     1      26.860  65.763   9.689  1.00  0.00    -0.374 N 
HETATM   15  C1  UNL     1      26.406  64.424  10.082  1.00  0.00     0.150 C 
HETATM   16  C2  UNL     1      26.343  66.852  10.511  1.00  0.00     0.150 C 
ENDBRANCH   1  14
BRANCH   8  17
HETATM   17  N4  UNL     1      33.019  66.394   7.659  1.00  0.00    -0.234 N 
ATOM     18  H42 UNL     1      33.321  67.107   6.995  1.00  0.00     0.174 HD
ATOM     19  H41 UNL     1      33.696  65.774   8.104  1.00  0.00     0.174 HD
ENDBRANCH   8  17
TORSDOF 2
ENDMDL
MODEL 2
REMARK VINA RESULT: -6.456654132      1.437      1.813
REMARK  2 active torsions:
REMARK  status: ('A' for Active; 'I' for Inactive)
REMARK    1  A    between atoms: N1_2  and  C3_4 
REMARK    2  A    between atoms: C5_11  and  N4_12 
ROOT
HETATM    1  C3  UNL     1      27.422  65.931   8.192  1.00  0.00     0.143 A 
HETATM    2  N2  UNL     1      27.815  66.428   7.004  1.00  0.00    -0.242 N 
ATOM      3  H2  UNL     1      27.185  66.738   6.263  1.00  0.00     0.196 HD
HETATM    4  O1  UNL     1      29.119  66.458   6.937  1.00  0.00    -0.216 OA
HETATM    5  C4  UNL     1      29.669  66.004   8.025  1.00  0.00     0.204 A 
HETATM    6  N3  UNL     1      30.949  65.849   8.397  1.00  0.00    -0.167 N 
ATOM      7  H3  UNL     1      31.711  66.112   7.771  1.00  0.00     0.186 HD
HETATM    8  C5  UNL     1      31.202  65.339   9.618  1.00  0.00     0.680 A 
HETATM    9  N5  UNL     1      30.191  64.990  10.449  1.00  0.00    -0.155 N 
ATOM     10  H5  UNL     1      30.402  64.605  11.369  1.00  0.00     0.187 HD
HETATM   11  C6  UNL     1      28.910  65.146  10.071  1.00  0.00     0.278 A 
HETATM   12  O2  UNL     1      27.959  64.823  10.841  1.00  0.00    -0.266 OA
HETATM   13  C7  UNL     1      28.605  65.657   8.851  1.00  0.00     0.132 A 
ENDROOT
BRANCH   1  14
HETATM   14  N1  UNL     1      26.084  65.748   8.632  1.00  0.00    -0.374 N 
HETATM   15  C1  UNL     1      25.427  66.652   9.583  1.00  0.00     0.150 C 
HETATM   16  C2  UNL     1      25.257  64.640   8.167  1.00  0.00     0.150 C 
ENDBRANCH   1  14
BRANCH   8  17
HETATM   17  N4  UNL     1      32.424  65.171  10.023  1.00  0.00    -0.234 N 
ATOM     18  H42 UNL     1      32.690  64.265  10.410  1.00  0.00     0.174 HD
ATOM     19  H41 UNL     1      33.101  65.930   9.954  1.00  0.00     0.174 HD
ENDBRANCH   8  17
TORSDOF 2
ENDMDL
MODEL 3
REMARK VINA RESULT: -6.269790246      1.410      2.775
REMARK  2 active torsions:
REMARK  status: ('A' for Active; 'I' for Inactive)
REMARK    1  A    between atoms: N1_2  and  C3_4 
REMARK    2  A    between atoms: C5_11  and  N4_12 
ROOT
HETATM    1  C3  UNL     1      28.571  65.095  10.310  1.00  0.00     0.143 A 
HETATM    2  N2  UNL     1      29.628  65.005  11.139  1.00  0.00    -0.242 N 
ATOM      3  H2  UNL     1      29.589  64.662  12.100  1.00  0.00     0.196 HD
HETATM    4  O1  UNL     1      30.710  65.420  10.537  1.00  0.00    -0.216 OA
HETATM    5  C4  UNL     1      30.468  65.801   9.317  1.00  0.00     0.204 A 
HETATM    6  N3  UNL     1      31.256  66.289   8.347  1.00  0.00    -0.167 N 
ATOM      7  H3  UNL     1      32.255  66.424   8.503  1.00  0.00     0.186 HD
HETATM    8  C5  UNL     1      30.693  66.597   7.161  1.00  0.00     0.680 A 
HETATM    9  N5  UNL     1      29.367  66.418   6.954  1.00  0.00    -0.155 N 
ATOM     10  H5  UNL     1      28.960  66.657   6.050  1.00  0.00     0.187 HD
HETATM   11  C6  UNL     1      28.582  65.929   7.929  1.00  0.00     0.278 A 
HETATM   12  O2  UNL     1      27.342  65.759   7.744  1.00  0.00    -0.266 OA
HETATM   13  C7  UNL     1      29.102  65.604   9.140  1.00  0.00     0.132 A 
ENDROOT
BRANCH   1  14
HETATM   14  N1  UNL     1      27.229  64.734  10.605  1.00  0.00    -0.374 N 
HETATM   15  C1  UNL     1      26.201  65.716  10.967  1.00  0.00     0.150 C 
HETATM   16  C2  UNL     1      26.771  63.350  10.570  1.00  0.00     0.150 C 
ENDBRANCH   1  14
BRANCH   8  17
HETATM   17  N4  UNL     1      31.415  67.073   6.193  1.00  0.00    -0.234 N 
ATOM     18  H42 UNL     1      32.049  66.443   5.701  1.00  0.00     0.174 HD
ATOM     19  H41 UNL     1      31.348  68.056   5.931  1.00  0.00     0.174 HD
ENDBRANCH   8  17
TORSDOF 2
ENDMDL
MODEL 4
REMARK VINA RESULT: -6.179585254      1.433      1.563
REMARK  2 active torsions:
REMARK  status: ('A' for Active; 'I' for Inactive)
REMARK    1  A    between atoms: N1_2  and  C3_4 
REMARK    2  A    between atoms: C5_11  and  N4_12 
ROOT
HETATM    1  C3  UNL     1      27.070  65.863   9.001  1.00  0.00     0.143 A 
HETATM    2  N2  UNL     1      27.193  65.989   7.666  1.00  0.00    -0.242 N 
ATOM      3  H2  UNL     1      26.419  66.153   7.021  1.00  0.00     0.196 HD
HETATM    4  O1  UNL     1      28.445  65.870   7.315  1.00  0.00    -0.216 OA
HETATM    5  C4  UNL     1      29.217  65.666   8.343  1.00  0.00     0.204 A 
HETATM    6  N3  UNL     1      30.542  65.489   8.459  1.00  0.00    -0.167 N 
ATOM      7  H3  UNL     1      31.146  65.501   7.637  1.00  0.00     0.186 HD
HETATM    8  C5  UNL     1      31.055  65.296   9.691  1.00  0.00     0.680 A 
HETATM    9  N5  UNL     1      30.253  65.280  10.782  1.00  0.00    -0.155 N 
ATOM     10  H5  UNL     1      30.660  65.132  11.706  1.00  0.00     0.187 HD
HETATM   11  C6  UNL     1      28.926  65.458  10.660  1.00  0.00     0.278 A 
HETATM   12  O2  UNL     1      28.170  65.444  11.675  1.00  0.00    -0.266 OA
HETATM   13  C7  UNL     1      28.363  65.656   9.441  1.00  0.00     0.132 A 
ENDROOT
BRANCH   1  14
HETATM   14  N1  UNL     1      25.866  65.936   9.751  1.00  0.00    -0.374 N 
HETATM   15  C1  UNL     1      25.038  64.761  10.046  1.00  0.00     0.150 C 
HETATM   16  C2  UNL     1      25.360  67.194  10.289  1.00  0.00     0.150 C 
ENDBRANCH   1  14
BRANCH   8  17
HETATM   17  N4  UNL     1      32.330  65.120   9.854  1.00  0.00    -0.234 N 
ATOM     18  H42 UNL     1      32.923  65.048   9.028  1.00  0.00     0.174 HD
ATOM     19  H41 UNL     1      32.729  65.055  10.791  1.00  0.00     0.174 HD
ENDBRANCH   8  17
TORSDOF 2
ENDMDL
MODEL 5
REMARK VINA RESULT: -6.166240762      0.947      2.400
REMARK  2 active torsions:
REMARK  status: ('A' for Active; 'I' for Inactive)
REMARK    1  A    between atoms: N1_2  and  C3_4 
REMARK    2  A    between atoms: C5_11  and  N4_12 
ROOT
HETATM    1  C3  UNL     1      28.046  65.553   9.528  1.00  0.00     0.143 A 
HETATM    2  N2  UNL     1      28.460  64.954  10.661  1.00  0.00    -0.242 N 
ATOM      3  H2  UNL     1      27.844  64.603  11.394  1.00  0.00     0.196 HD
HETATM    4  O1  UNL     1      29.764  64.887  10.684  1.00  0.00    -0.216 OA
HETATM    5  C4  UNL     1      30.294  65.413   9.618  1.00  0.00     0.204 A 
HETATM    6  N3  UNL     1      31.566  65.564   9.220  1.00  0.00    -0.167 N 
ATOM      7  H3  UNL     1      32.339  65.235   9.799  1.00  0.00     0.186 HD
HETATM    8  C5  UNL     1      31.797  66.164   8.035  1.00  0.00     0.680 A 
HETATM    9  N5  UNL     1      30.772  66.602   7.266  1.00  0.00    -0.155 N 
ATOM     10  H5  UNL     1      30.967  67.053   6.373  1.00  0.00     0.187 HD
HETATM   11  C6  UNL     1      29.499  66.448   7.670  1.00  0.00     0.278 A 
HETATM   12  O2  UNL     1      28.536  66.854   6.958  1.00  0.00    -0.266 OA
HETATM   13  C7  UNL     1      29.216  65.850   8.855  1.00  0.00     0.132 A 
ENDROOT
BRANCH   1  14
HETATM   14  N1  UNL     1      26.701  65.803   9.145  1.00  0.00    -0.374 N 
HETATM   15  C1  UNL     1      26.059  65.137   8.007  1.00  0.00     0.150 C 
HETATM   16  C2  UNL     1      25.852  66.748   9.862  1.00  0.00     0.150 C 
ENDBRANCH   1  14
BRANCH   8  17
HETATM   17  N4  UNL     1      33.011  66.333   7.607  1.00  0.00    -0.234 N 
ATOM     18  H42 UNL     1      33.701  65.605   7.793  1.00  0.00     0.174 HD
ATOM     19  H41 UNL     1      33.267  67.178   7.096  1.00  0.00     0.174 HD
ENDBRANCH   8  17
TORSDOF 2
ENDMDL
