MODEL 1
REMARK VINA RESULT: -6.731938412      0.000      0.000
REMARK  3 active torsions:
REMARK  status: ('A' for Active; 'I' for Inactive)
REMARK    1  A    between atoms: O1_2  and  N1_3 
REMARK    2  A    between atoms: C2_4  and  N2_5 
REMARK    3  A    between atoms: C6_16  and  N5_17 
ROOT
HETATM    1  N1  UNL     1      27.895  65.245   9.796  1.00  0.00    -0.031 N 
HETATM    2  C2  UNL     1      27.110  65.667   8.796  1.00  0.00     0.707 A 
HETATM    3  N3  UNL     1      27.606  66.226   7.669  1.00  0.00    -0.152 N 
ATOM      4  H3  UNL     1      26.967  66.531   6.934  1.00  0.00     0.187 HD
HETATM    5  C3  UNL     1      28.937  66.385   7.506  1.00  0.00     0.291 A 
HETATM    6  O2  UNL     1      29.462  66.896   6.486  1.00  0.00    -0.265 OA
HETATM    7  C4  UNL     1      29.742  65.955   8.526  1.00  0.00     0.167 A 
HETATM    8  C5  UNL     1      29.228  65.380   9.682  1.00  0.00     0.200 A 
HETATM    9  N4  UNL     1      30.267  65.068  10.481  1.00  0.00    -0.171 N 
ATOM     10  H4  UNL     1      30.201  64.632  11.401  1.00  0.00     0.186 HD
HETATM   11  C6  UNL     1      31.413  65.432   9.856  1.00  0.00     0.680 A 
HETATM   12  N6  UNL     1      31.082  65.970   8.669  1.00  0.00    -0.178 N 
HETATM   13  C7  UNL     1      32.008  66.474   7.716  1.00  0.00     0.176 C 
ENDROOT
BRANCH   2  14
HETATM   14  N2  UNL     1      25.820  65.531   8.915  1.00  0.00    -0.232 N 
ATOM     15  H22 UNL     1      25.333  66.067   9.633  1.00  0.00     0.174 HD
ATOM     16  H21 UNL     1      25.335  64.892   8.284  1.00  0.00     0.174 HD
ENDBRANCH   2  14
BRANCH   1  17
HETATM   17  O1  UNL     1      27.304  64.688  10.904  1.00  0.00    -0.263 OA
HETATM   18  C1  UNL     1      27.366  63.274  11.093  1.00  0.00     0.239 C 
ENDBRANCH   1  17
BRANCH  11  19
HETATM   19  N5  UNL     1      32.586  65.266  10.363  1.00  0.00    -0.234 N 
ATOM     20  H52 UNL     1      32.867  65.309  11.342  1.00  0.00     0.174 HD
ATOM     21  H51 UNL     1      33.417  65.059   9.808  1.00  0.00     0.174 HD
ENDBRANCH  11  19
TORSDOF 3
ENDMDL
MODEL 2
REMARK VINA RESULT: -6.131439338      1.201      4.970
REMARK  3 active torsions:
REMARK  status: ('A' for Active; 'I' for Inactive)
REMARK    1  A    between atoms: O1_2  and  N1_3 
REMARK    2  A    between atoms: C2_4  and  N2_5 
REMARK    3  A    between atoms: C6_16  and  N5_17 
ROOT
HETATM    1  N1  UNL     1      30.054  66.250   8.687  1.00  0.00    -0.031 N 
HETATM    2  C2  UNL     1      30.899  65.815   9.632  1.00  0.00     0.707 A 
HETATM    3  N3  UNL     1      30.482  65.125  10.718  1.00  0.00    -0.152 N 
ATOM      4  H3  UNL     1      31.164  64.814  11.410  1.00  0.00     0.187 HD
HETATM    5  C3  UNL     1      29.173  64.845  10.897  1.00  0.00     0.291 A 
HETATM    6  O2  UNL     1      28.720  64.210  11.881  1.00  0.00    -0.265 OA
HETATM    7  C4  UNL     1      28.307  65.288   9.934  1.00  0.00     0.167 A 
HETATM    8  C5  UNL     1      28.740  65.996   8.818  1.00  0.00     0.200 A 
HETATM    9  N4  UNL     1      27.658  66.284   8.071  1.00  0.00    -0.171 N 
ATOM     10  H4  UNL     1      27.661  66.798   7.190  1.00  0.00     0.186 HD
HETATM   11  C6  UNL     1      26.562  65.777   8.688  1.00  0.00     0.680 A 
HETATM   12  N6  UNL     1      26.970  65.174   9.819  1.00  0.00    -0.178 N 
HETATM   13  C7  UNL     1      26.114  64.518  10.746  1.00  0.00     0.176 C 
ENDROOT
BRANCH   2  14
HETATM   14  N2  UNL     1      32.170  66.065   9.496  1.00  0.00    -0.232 N 
ATOM     15  H22 UNL     1      32.459  66.818   8.872  1.00  0.00     0.174 HD
ATOM     16  H21 UNL     1      32.838  65.499  10.020  1.00  0.00     0.174 HD
ENDBRANCH   2  14
BRANCH   1  17
HETATM   17  O1  UNL     1      30.567  66.942   7.618  1.00  0.00    -0.263 OA
HETATM   18  C1  UNL     1      30.777  66.261   6.381  1.00  0.00     0.239 C 
ENDBRANCH   1  17
BRANCH  11  19
HETATM   19  N5  UNL     1      25.366  65.886   8.222  1.00  0.00    -0.234 N 
ATOM     20  H52 UNL     1      25.070  66.206   7.301  1.00  0.00     0.174 HD
ATOM     21  H51 UNL     1      24.529  65.650   8.754  1.00  0.00     0.174 HD
ENDBRANCH  11  19
TORSDOF 3
ENDMDL
MODEL 3
REMARK VINA RESULT: -6.013755913      3.282      5.173
REMARK  3 active torsions:
REMARK  status: ('A' for Active; 'I' for Inactive)
REMARK    1  A    between atoms: O1_2  and  N1_3 
REMARK    2  A    between atoms: C2_4  and  N2_5 
REMARK    3  A    between atoms: C6_16  and  N5_17 
ROOT
HETATM    1  N1  UNL     1      25.753  63.993   9.299  1.00  0.00    -0.031 N 
HETATM    2  C2  UNL     1      24.514  63.497   9.426  1.00  0.00     0.707 A 
HETATM    3  N3  UNL     1      24.044  63.007  10.595  1.00  0.00    -0.152 N 
ATOM      4  H3  UNL     1      23.093  62.640  10.642  1.00  0.00     0.187 HD
HETATM    5  C3  UNL     1      24.819  62.997  11.701  1.00  0.00     0.291 A 
HETATM    6  O2  UNL     1      24.444  62.557  12.816  1.00  0.00    -0.265 OA
HETATM    7  C4  UNL     1      26.085  63.503  11.575  1.00  0.00     0.167 A 
HETATM    8  C5  UNL     1      26.564  64.007  10.371  1.00  0.00     0.200 A 
HETATM    9  N4  UNL     1      27.828  64.423  10.576  1.00  0.00    -0.171 N 
ATOM     10  H4  UNL     1      28.439  64.840   9.874  1.00  0.00     0.186 HD
HETATM   11  C6  UNL     1      28.151  64.194  11.872  1.00  0.00     0.680 A 
HETATM   12  N6  UNL     1      27.084  63.634  12.469  1.00  0.00    -0.178 N 
HETATM   13  C7  UNL     1      27.026  63.245  13.835  1.00  0.00     0.176 C 
ENDROOT
BRANCH   2  14
HETATM   14  N2  UNL     1      23.735  63.489   8.382  1.00  0.00    -0.232 N 
ATOM     15  H22 UNL     1      23.830  64.232   7.691  1.00  0.00     0.174 HD
ATOM     16  H21 UNL     1      23.051  62.736   8.288  1.00  0.00     0.174 HD
ENDBRANCH   2  14
BRANCH   1  17
HETATM   17  O1  UNL     1      26.145  64.470   8.073  1.00  0.00    -0.263 OA
HETATM   18  C1  UNL     1      26.245  65.880   7.871  1.00  0.00     0.239 C 
ENDBRANCH   1  17
BRANCH  11  19
HETATM   19  N5  UNL     1      29.297  64.483  12.384  1.00  0.00    -0.234 N 
ATOM     20  H52 UNL     1      30.053  65.035  11.979  1.00  0.00     0.174 HD
ATOM     21  H51 UNL     1      29.597  64.175  13.309  1.00  0.00     0.174 HD
ENDBRANCH  11  19
TORSDOF 3
ENDMDL
MODEL 4
REMARK VINA RESULT: -5.887551940      1.645      1.816
REMARK  3 active torsions:
REMARK  status: ('A' for Active; 'I' for Inactive)
REMARK    1  A    between atoms: O1_2  and  N1_3 
REMARK    2  A    between atoms: C2_4  and  N2_5 
REMARK    3  A    between atoms: C6_16  and  N5_17 
ROOT
HETATM    1  N1  UNL     1      28.132  65.535  11.343  1.00  0.00    -0.031 N 
HETATM    2  C2  UNL     1      26.886  65.608  10.855  1.00  0.00     0.707 A 
HETATM    3  N3  UNL     1      26.628  65.697   9.531  1.00  0.00    -0.152 N 
ATOM      4  H3  UNL     1      25.661  65.749   9.208  1.00  0.00     0.187 HD
HETATM    5  C3  UNL     1      27.635  65.717   8.631  1.00  0.00     0.291 A 
HETATM    6  O2  UNL     1      27.464  65.798   7.390  1.00  0.00    -0.265 OA
HETATM    7  C4  UNL     1      28.909  65.643   9.126  1.00  0.00     0.167 A 
HETATM    8  C5  UNL     1      29.170  65.551  10.488  1.00  0.00     0.200 A 
HETATM    9  N4  UNL     1      30.506  65.495  10.646  1.00  0.00    -0.171 N 
ATOM     10  H4  UNL     1      30.998  65.424  11.536  1.00  0.00     0.186 HD
HETATM   11  C6  UNL     1      31.086  65.549   9.422  1.00  0.00     0.680 A 
HETATM   12  N6  UNL     1      30.105  65.639   8.506  1.00  0.00    -0.178 N 
HETATM   13  C7  UNL     1      30.307  65.717   7.101  1.00  0.00     0.176 C 
ENDROOT
BRANCH   2  14
HETATM   14  N2  UNL     1      25.886  65.591  11.690  1.00  0.00    -0.232 N 
ATOM     15  H22 UNL     1      26.042  65.901  12.650  1.00  0.00     0.174 HD
ATOM     16  H21 UNL     1      24.977  65.270  11.358  1.00  0.00     0.174 HD
ENDBRANCH   2  14
BRANCH   1  17
HETATM   17  O1  UNL     1      28.300  65.447  12.703  1.00  0.00    -0.263 OA
HETATM   18  C1  UNL     1      28.640  64.188  13.285  1.00  0.00     0.239 C 
ENDBRANCH   1  17
BRANCH  11  19
HETATM   19  N5  UNL     1      32.360  65.516   9.234  1.00  0.00    -0.234 N 
ATOM     20  H52 UNL     1      32.924  64.767   8.833  1.00  0.00     0.174 HD
ATOM     21  H51 UNL     1      32.987  66.283   9.478  1.00  0.00     0.174 HD
ENDBRANCH  11  19
TORSDOF 3
ENDMDL
MODEL 5
REMARK VINA RESULT: -5.864062460      1.710      3.858
REMARK  3 active torsions:
REMARK  status: ('A' for Active; 'I' for Inactive)
REMARK    1  A    between atoms: O1_2  and  N1_3 
REMARK    2  A    between atoms: C2_4  and  N2_5 
REMARK    3  A    between atoms: C6_16  and  N5_17 
ROOT
HETATM    1  N1  UNL     1      29.498  65.545   8.430  1.00  0.00    -0.031 N 
HETATM    2  C2  UNL     1      28.597  65.967   7.531  1.00  0.00     0.707 A 
HETATM    3  N3  UNL     1      27.291  66.138   7.837  1.00  0.00    -0.152 N 
ATOM      4  H3  UNL     1      26.643  66.461   7.118  1.00  0.00     0.187 HD
HETATM    5  C3  UNL     1      26.834  65.885   9.083  1.00  0.00     0.291 A 
HETATM    6  O2  UNL     1      25.636  66.022   9.431  1.00  0.00    -0.265 OA
HETATM    7  C4  UNL     1      27.752  65.454  10.003  1.00  0.00     0.167 A 
HETATM    8  C5  UNL     1      29.094  65.281   9.685  1.00  0.00     0.200 A 
HETATM    9  N4  UNL     1      29.726  64.854  10.795  1.00  0.00    -0.171 N 
ATOM     10  H4  UNL     1      30.720  64.640  10.870  1.00  0.00     0.186 HD
HETATM   11  C6  UNL     1      28.817  64.756  11.796  1.00  0.00     0.680 A 
HETATM   12  N6  UNL     1      27.621  65.123  11.302  1.00  0.00    -0.178 N 
HETATM   13  C7  UNL     1      26.409  65.157  12.045  1.00  0.00     0.176 C 
ENDROOT
BRANCH   2  14
HETATM   14  N2  UNL     1      28.997  66.222   6.318  1.00  0.00    -0.232 N 
ATOM     15  H22 UNL     1      29.512  65.503   5.809  1.00  0.00     0.174 HD
ATOM     16  H21 UNL     1      28.782  67.134   5.914  1.00  0.00     0.174 HD
ENDBRANCH   2  14
BRANCH   1  17
HETATM   17  O1  UNL     1      30.803  65.401   8.031  1.00  0.00    -0.263 OA
HETATM   18  C1  UNL     1      31.768  66.375   8.429  1.00  0.00     0.239 C 
ENDBRANCH   1  17
BRANCH  11  19
HETATM   19  N5  UNL     1      29.109  64.372  12.990  1.00  0.00    -0.234 N 
ATOM     20  H52 UNL     1      29.113  63.426  13.371  1.00  0.00     0.174 HD
ATOM     21  H51 UNL     1      29.387  65.010  13.737  1.00  0.00     0.174 HD
ENDBRANCH  11  19
TORSDOF 3
ENDMDL
