MODEL 1
REMARK VINA RESULT: -6.909286424      0.000      0.000
REMARK  5 active torsions:
REMARK  status: ('A' for Active; 'I' for Inactive)
REMARK    1  A    between atoms: C2_2  and  O2_4 
REMARK    2  A    between atoms: O2_4  and  C3_5 
REMARK    3  A    between atoms: C4_6  and  N1_7 
REMARK    4  A    between atoms: N1_7  and  O3_9 
REMARK    5  A    between atoms: C5_13  and  N3_14 
ROOT
HETATM    1  C3  UNL     1      29.617  65.227   9.117  1.00  0.00     0.193 A 
HETATM    2  C4  UNL     1      30.978  65.401   9.119  1.00  0.00     0.180 A 
HETATM    3  N2  UNL     1      31.592  66.101   8.120  1.00  0.00    -0.172 N 
ATOM      4  H2  UNL     1      32.605  66.222   8.136  1.00  0.00     0.186 HD
HETATM    5  C5  UNL     1      30.876  66.631   7.118  1.00  0.00     0.680 A 
HETATM    6  N4  UNL     1      29.546  66.464   7.110  1.00  0.00    -0.154 N 
ATOM      7  H4  UNL     1      29.003  66.869   6.347  1.00  0.00     0.187 HD
HETATM    8  C6  UNL     1      28.892  65.772   8.088  1.00  0.00     0.297 A 
HETATM    9  O4  UNL     1      27.632  65.640   8.039  1.00  0.00    -0.264 OA
ENDROOT
BRANCH   1  10
HETATM   10  O2  UNL     1      29.017  64.517  10.136  1.00  0.00    -0.269 OA
BRANCH  10  11
HETATM   11  C2  UNL     1      28.764  65.035  11.389  1.00  0.00     0.260 C 
HETATM   12  C1  UNL     1      28.383  66.443  11.625  1.00  0.00     0.126 C 
HETATM   13  O1  UNL     1      28.864  64.262  12.376  1.00  0.00    -0.265 OA
ENDBRANCH  10  11
ENDBRANCH   1  10
BRANCH   2  14
HETATM   14  N1  UNL     1      31.816  64.867  10.153  1.00  0.00    -0.250 N 
ATOM     15  H1  UNL     1      31.467  64.723  11.101  1.00  0.00     0.196 HD
BRANCH  14  16
HETATM   16  O3  UNL     1      32.979  64.590   9.843  1.00  0.00    -0.288 OA
ATOM     17  H3  UNL     1      33.513  64.169  10.507  1.00  0.00     0.244 HD
ENDBRANCH  14  16
ENDBRANCH   2  14
BRANCH   5  18
HETATM   18  N3  UNL     1      31.430  67.308   6.144  1.00  0.00    -0.234 N 
ATOM     19  H32 UNL     1      32.404  67.595   6.240  1.00  0.00     0.174 HD
ATOM     20  H31 UNL     1      30.922  67.557   5.296  1.00  0.00     0.174 HD
ENDBRANCH   5  18
TORSDOF 5
ENDMDL
MODEL 2
REMARK VINA RESULT: -6.748568693      1.814      2.421
REMARK  5 active torsions:
REMARK  status: ('A' for Active; 'I' for Inactive)
REMARK    1  A    between atoms: C2_2  and  O2_4 
REMARK    2  A    between atoms: O2_4  and  C3_5 
REMARK    3  A    between atoms: C4_6  and  N1_7 
REMARK    4  A    between atoms: N1_7  and  O3_9 
REMARK    5  A    between atoms: C5_13  and  N3_14 
ROOT
HETATM    1  C3  UNL     1      29.162  66.314   8.750  1.00  0.00     0.193 A 
HETATM    2  C4  UNL     1      30.166  66.130   9.666  1.00  0.00     0.180 A 
HETATM    3  N2  UNL     1      31.473  66.098   9.270  1.00  0.00    -0.172 N 
ATOM      4  H2  UNL     1      32.208  65.960   9.964  1.00  0.00     0.186 HD
HETATM    5  C5  UNL     1      31.798  66.246   7.978  1.00  0.00     0.680 A 
HETATM    6  N4  UNL     1      30.821  66.427   7.078  1.00  0.00    -0.154 N 
ATOM      7  H4  UNL     1      31.071  66.540   6.095  1.00  0.00     0.187 HD
HETATM    8  C6  UNL     1      29.503  66.465   7.430  1.00  0.00     0.297 A 
HETATM    9  O4  UNL     1      28.613  66.639   6.545  1.00  0.00    -0.264 OA
ENDROOT
BRANCH   1  10
HETATM   10  O2  UNL     1      27.848  66.344   9.172  1.00  0.00    -0.269 OA
BRANCH  10  11
HETATM   11  C2  UNL     1      26.993  65.264   9.099  1.00  0.00     0.260 C 
HETATM   12  C1  UNL     1      25.818  65.215   8.204  1.00  0.00     0.126 C 
HETATM   13  O1  UNL     1      27.233  64.273   9.835  1.00  0.00    -0.265 OA
ENDBRANCH  10  11
ENDBRANCH   1  10
BRANCH   2  14
HETATM   14  N1  UNL     1      29.904  65.963  11.066  1.00  0.00    -0.250 N 
ATOM     15  H1  UNL     1      30.011  66.735  11.724  1.00  0.00     0.196 HD
BRANCH  14  16
HETATM   16  O3  UNL     1      29.542  64.841  11.438  1.00  0.00    -0.288 OA
ATOM     17  H3  UNL     1      28.677  64.775  11.825  1.00  0.00     0.244 HD
ENDBRANCH  14  16
ENDBRANCH   2  14
BRANCH   5  18
HETATM   18  N3  UNL     1      33.039  66.221   7.562  1.00  0.00    -0.234 N 
ATOM     19  H32 UNL     1      33.749  65.806   8.164  1.00  0.00     0.174 HD
ATOM     20  H31 UNL     1      33.318  66.602   6.658  1.00  0.00     0.174 HD
ENDBRANCH   5  18
TORSDOF 5
ENDMDL
MODEL 3
REMARK VINA RESULT: -6.553704109      0.998      1.080
REMARK  5 active torsions:
REMARK  status: ('A' for Active; 'I' for Inactive)
REMARK    1  A    between atoms: C2_2  and  O2_4 
REMARK    2  A    between atoms: O2_4  and  C3_5 
REMARK    3  A    between atoms: C4_6  and  N1_7 
REMARK    4  A    between atoms: N1_7  and  O3_9 
REMARK    5  A    between atoms: C5_13  and  N3_14 
ROOT
HETATM    1  C3  UNL     1      29.800  65.813   9.625  1.00  0.00     0.193 A 
HETATM    2  C4  UNL     1      31.149  65.749   9.383  1.00  0.00     0.180 A 
HETATM    3  N2  UNL     1      31.666  66.188   8.198  1.00  0.00    -0.172 N 
ATOM      4  H2  UNL     1      32.671  66.134   8.034  1.00  0.00     0.186 HD
HETATM    5  C5  UNL     1      30.864  66.690   7.247  1.00  0.00     0.680 A 
HETATM    6  N4  UNL     1      29.545  66.756   7.478  1.00  0.00    -0.154 N 
ATOM      7  H4  UNL     1      28.937  67.138   6.753  1.00  0.00     0.187 HD
HETATM    8  C6  UNL     1      28.987  66.328   8.647  1.00  0.00     0.297 A 
HETATM    9  O4  UNL     1      27.733  66.409   8.821  1.00  0.00    -0.264 OA
ENDROOT
BRANCH   1  10
HETATM   10  O2  UNL     1      29.299  65.364  10.829  1.00  0.00    -0.269 OA
BRANCH  10  11
HETATM   11  C2  UNL     1      28.363  64.357  10.945  1.00  0.00     0.260 C 
HETATM   12  C1  UNL     1      27.186  64.438  11.835  1.00  0.00     0.126 C 
HETATM   13  O1  UNL     1      28.528  63.320  10.254  1.00  0.00    -0.265 OA
ENDBRANCH  10  11
ENDBRANCH   1  10
BRANCH   2  14
HETATM   14  N1  UNL     1      32.074  65.226  10.346  1.00  0.00    -0.250 N 
ATOM     15  H1  UNL     1      31.982  65.433  11.341  1.00  0.00     0.196 HD
BRANCH  14  16
HETATM   16  O3  UNL     1      32.987  64.515   9.914  1.00  0.00    -0.288 OA
ATOM     17  H3  UNL     1      33.788  64.485  10.426  1.00  0.00     0.244 HD
ENDBRANCH  14  16
ENDBRANCH   2  14
BRANCH   5  18
HETATM   18  N3  UNL     1      31.324  67.121   6.100  1.00  0.00    -0.234 N 
ATOM     19  H32 UNL     1      31.939  67.934   6.093  1.00  0.00     0.174 HD
ATOM     20  H31 UNL     1      31.088  66.672   5.215  1.00  0.00     0.174 HD
ENDBRANCH   5  18
TORSDOF 5
ENDMDL
MODEL 4
REMARK VINA RESULT: -6.506746093      1.935      3.702
REMARK  5 active torsions:
REMARK  status: ('A' for Active; 'I' for Inactive)
REMARK    1  A    between atoms: C2_2  and  O2_4 
REMARK    2  A    between atoms: O2_4  and  C3_5 
REMARK    3  A    between atoms: C4_6  and  N1_7 
REMARK    4  A    between atoms: N1_7  and  O3_9 
REMARK    5  A    between atoms: C5_13  and  N3_14 
ROOT
HETATM    1  C3  UNL     1      28.498  66.024   9.324  1.00  0.00     0.193 A 
HETATM    2  C4  UNL     1      29.450  66.407   8.413  1.00  0.00     0.180 A 
HETATM    3  N2  UNL     1      30.766  66.100   8.611  1.00  0.00    -0.172 N 
ATOM      4  H2  UNL     1      31.462  66.392   7.925  1.00  0.00     0.186 HD
HETATM    5  C5  UNL     1      31.152  65.419   9.700  1.00  0.00     0.680 A 
HETATM    6  N4  UNL     1      30.226  65.043  10.594  1.00  0.00    -0.154 N 
ATOM      7  H4  UNL     1      30.522  64.525  11.421  1.00  0.00     0.187 HD
HETATM    8  C6  UNL     1      28.901  65.328  10.435  1.00  0.00     0.297 A 
HETATM    9  O4  UNL     1      28.061  64.952  11.306  1.00  0.00    -0.264 OA
ENDROOT
BRANCH   1  10
HETATM   10  O2  UNL     1      27.174  66.344   9.104  1.00  0.00    -0.269 OA
BRANCH  10  11
HETATM   11  C2  UNL     1      26.204  65.420   8.778  1.00  0.00     0.260 C 
HETATM   12  C1  UNL     1      24.975  65.215   9.574  1.00  0.00     0.126 C 
HETATM   13  O1  UNL     1      26.380  64.720   7.749  1.00  0.00    -0.265 OA
ENDBRANCH  10  11
ENDBRANCH   1  10
BRANCH   2  14
HETATM   14  N1  UNL     1      29.122  67.137   7.224  1.00  0.00    -0.250 N 
ATOM     15  H1  UNL     1      29.581  68.019   6.996  1.00  0.00     0.196 HD
BRANCH  14  16
HETATM   16  O3  UNL     1      28.258  66.649   6.488  1.00  0.00    -0.288 OA
ATOM     17  H3  UNL     1      28.489  65.855   6.020  1.00  0.00     0.244 HD
ENDBRANCH  14  16
ENDBRANCH   2  14
BRANCH   5  18
HETATM   18  N3  UNL     1      32.404  65.108   9.923  1.00  0.00    -0.234 N 
ATOM     19  H32 UNL     1      32.719  64.163   9.706  1.00  0.00     0.174 HD
ATOM     20  H31 UNL     1      33.072  65.777  10.304  1.00  0.00     0.174 HD
ENDBRANCH   5  18
TORSDOF 5
ENDMDL
MODEL 5
REMARK VINA RESULT: -6.471462674      1.400      2.920
REMARK  5 active torsions:
REMARK  status: ('A' for Active; 'I' for Inactive)
REMARK    1  A    between atoms: C2_2  and  O2_4 
REMARK    2  A    between atoms: O2_4  and  C3_5 
REMARK    3  A    between atoms: C4_6  and  N1_7 
REMARK    4  A    between atoms: N1_7  and  O3_9 
REMARK    5  A    between atoms: C5_13  and  N3_14 
ROOT
HETATM    1  C3  UNL     1      30.014  65.685   9.797  1.00  0.00     0.193 A 
HETATM    2  C4  UNL     1      29.174  66.384   8.967  1.00  0.00     0.180 A 
HETATM    3  N2  UNL     1      29.617  66.861   7.767  1.00  0.00    -0.172 N 
ATOM      4  H2  UNL     1      28.980  67.378   7.162  1.00  0.00     0.186 HD
HETATM    5  C5  UNL     1      30.884  66.655   7.377  1.00  0.00     0.680 A 
HETATM    6  N4  UNL     1      31.710  65.973   8.183  1.00  0.00    -0.154 N 
ATOM      7  H4  UNL     1      32.673  65.818   7.883  1.00  0.00     0.187 HD
HETATM    8  C6  UNL     1      31.308  65.479   9.390  1.00  0.00     0.297 A 
HETATM    9  O4  UNL     1      32.125  64.840  10.119  1.00  0.00    -0.264 OA
ENDROOT
BRANCH   1  10
HETATM   10  O2  UNL     1      29.545  65.212  11.005  1.00  0.00    -0.269 OA
BRANCH  10  11
HETATM   11  C2  UNL     1      28.533  64.284  11.126  1.00  0.00     0.260 C 
HETATM   12  C1  UNL     1      27.564  64.277  12.242  1.00  0.00     0.126 C 
HETATM   13  O1  UNL     1      28.435  63.401  10.236  1.00  0.00    -0.265 OA
ENDBRANCH  10  11
ENDBRANCH   1  10
BRANCH   2  14
HETATM   14  N1  UNL     1      27.806  66.647   9.310  1.00  0.00    -0.250 N 
ATOM     15  H1  UNL     1      27.037  66.177   8.831  1.00  0.00     0.196 HD
BRANCH  14  16
HETATM   16  O3  UNL     1      27.603  67.468  10.210  1.00  0.00    -0.288 OA
ATOM     17  H3  UNL     1      27.319  68.335   9.946  1.00  0.00     0.244 HD
ENDBRANCH  14  16
ENDBRANCH   2  14
BRANCH   5  18
HETATM   18  N3  UNL     1      31.344  67.097   6.234  1.00  0.00    -0.234 N 
ATOM     19  H32 UNL     1      30.925  66.751   5.371  1.00  0.00     0.174 HD
ATOM     20  H31 UNL     1      32.104  67.774   6.178  1.00  0.00     0.174 HD
ENDBRANCH   5  18
TORSDOF 5
ENDMDL
