MODEL 1
REMARK VINA RESULT: -7.283945333      0.000      0.000
REMARK  4 active torsions:
REMARK  status: ('A' for Active; 'I' for Inactive)
REMARK    1  A    between atoms: N1_2  and  N2_3 
REMARK    2  A    between atoms: N1_2  and  N3_6 
REMARK    3  A    between atoms: N4_8  and  C2_10 
REMARK    4  A    between atoms: C3_11  and  O1_12 
ROOT
HETATM    1  C2  UNL     1      30.172  65.723   9.872  1.00  0.00     0.169 A 
HETATM    2  C3  UNL     1      31.434  65.605   9.342  1.00  0.00     0.178 A 
HETATM    3  N5  UNL     1      31.769  66.055   8.126  1.00  0.00    -0.287 N 
ATOM      4  H5  UNL     1      32.718  65.948   7.767  1.00  0.00     0.172 HD
HETATM    5  C4  UNL     1      30.809  66.655   7.393  1.00  0.00     0.329 A 
HETATM    6  O2  UNL     1      31.118  67.079   6.255  1.00  0.00    -0.247 OA
HETATM    7  N6  UNL     1      29.547  66.794   7.878  1.00  0.00    -0.273 N 
ATOM      8  H6  UNL     1      28.841  67.251   7.301  1.00  0.00     0.173 HD
HETATM    9  C5  UNL     1      29.201  66.340   9.106  1.00  0.00     0.281 A 
HETATM   10  O3  UNL     1      28.025  66.469   9.557  1.00  0.00    -0.265 OA
ENDROOT
BRANCH   1  11
HETATM   11  N4  UNL     1      29.808  65.247  11.162  1.00  0.00    -0.276 N 
HETATM   12  N3  UNL     1      28.889  64.385  11.220  1.00  0.00    -0.226 N 
ATOM     13  H3  UNL     1      28.472  64.091  10.337  1.00  0.00     0.210 HD
ATOM     14  H4  UNL     1      30.272  65.588  12.004  1.00  0.00     0.189 HD
BRANCH  12  15
HETATM   15  N1  UNL     1      28.398  63.806  12.367  1.00  0.00    -0.231 N 
HETATM   16  C1  UNL     1      27.063  63.241  12.363  1.00  0.00     0.201 C 
BRANCH  15  17
HETATM   17  N2  UNL     1      29.176  63.764  13.511  1.00  0.00    -0.328 N 
ATOM     18  H22 UNL     1      29.601  62.886  13.807  1.00  0.00     0.178 HD
ATOM     19  H21 UNL     1      29.330  64.607  14.065  1.00  0.00     0.178 HD
ENDBRANCH  15  17
ENDBRANCH  12  15
ENDBRANCH   1  11
BRANCH   2  20
HETATM   20  O1  UNL     1      32.407  64.985  10.111  1.00  0.00    -0.344 OA
ATOM     21  H1  UNL     1      33.060  65.534  10.531  1.00  0.00     0.219 HD
ENDBRANCH   2  20
TORSDOF 4
ENDMDL
MODEL 2
REMARK VINA RESULT: -7.100306175      0.116      2.167
REMARK  4 active torsions:
REMARK  status: ('A' for Active; 'I' for Inactive)
REMARK    1  A    between atoms: N1_2  and  N2_3 
REMARK    2  A    between atoms: N1_2  and  N3_6 
REMARK    3  A    between atoms: N4_8  and  C2_10 
REMARK    4  A    between atoms: C3_11  and  O1_12 
ROOT
HETATM    1  C2  UNL     1      30.108  65.749   9.796  1.00  0.00     0.169 A 
HETATM    2  C3  UNL     1      29.226  66.403   8.971  1.00  0.00     0.178 A 
HETATM    3  N5  UNL     1      29.553  66.859   7.755  1.00  0.00    -0.287 N 
ATOM      4  H5  UNL     1      28.870  67.342   7.171  1.00  0.00     0.172 HD
HETATM    5  C4  UNL     1      30.817  66.659   7.329  1.00  0.00     0.329 A 
HETATM    6  O2  UNL     1      31.128  67.083   6.192  1.00  0.00    -0.247 OA
HETATM    7  N6  UNL     1      31.723  66.016   8.113  1.00  0.00    -0.273 N 
ATOM      8  H6  UNL     1      32.672  65.879   7.765  1.00  0.00     0.173 HD
HETATM    9  C5  UNL     1      31.398  65.553   9.343  1.00  0.00     0.281 A 
HETATM   10  O3  UNL     1      32.242  64.954  10.073  1.00  0.00    -0.265 OA
ENDROOT
BRANCH   1  11
HETATM   11  N4  UNL     1      29.768  65.262  11.089  1.00  0.00    -0.276 N 
HETATM   12  N3  UNL     1      28.814  64.441  11.163  1.00  0.00    -0.226 N 
ATOM     13  H3  UNL     1      28.354  64.184  10.290  1.00  0.00     0.210 HD
ATOM     14  H4  UNL     1      30.275  65.565  11.921  1.00  0.00     0.189 HD
BRANCH  12  15
HETATM   15  N1  UNL     1      28.336  63.860  12.315  1.00  0.00    -0.231 N 
HETATM   16  C1  UNL     1      26.989  63.324  12.336  1.00  0.00     0.201 C 
BRANCH  15  17
HETATM   17  N2  UNL     1      29.139  63.790  13.440  1.00  0.00    -0.328 N 
ATOM     18  H22 UNL     1      29.640  62.928  13.656  1.00  0.00     0.178 HD
ATOM     19  H21 UNL     1      29.236  64.594  14.059  1.00  0.00     0.178 HD
ENDBRANCH  15  17
ENDBRANCH  12  15
ENDBRANCH   1  11
BRANCH   2  20
HETATM   20  O1  UNL     1      27.932  66.599   9.427  1.00  0.00    -0.344 OA
ATOM     21  H1  UNL     1      27.611  67.492   9.489  1.00  0.00     0.219 HD
ENDBRANCH   2  20
TORSDOF 4
ENDMDL
MODEL 3
REMARK VINA RESULT: -6.802221400      1.127      1.159
REMARK  4 active torsions:
REMARK  status: ('A' for Active; 'I' for Inactive)
REMARK    1  A    between atoms: N1_2  and  N2_3 
REMARK    2  A    between atoms: N1_2  and  N3_6 
REMARK    3  A    between atoms: N4_8  and  C2_10 
REMARK    4  A    between atoms: C3_11  and  O1_12 
ROOT
HETATM    1  C2  UNL     1      30.073  65.484   9.875  1.00  0.00     0.169 A 
HETATM    2  C3  UNL     1      31.381  65.570   9.463  1.00  0.00     0.178 A 
HETATM    3  N5  UNL     1      31.756  66.150   8.316  1.00  0.00    -0.287 N 
ATOM      4  H5  UNL     1      32.738  66.193   8.043  1.00  0.00     0.172 HD
HETATM    5  C4  UNL     1      30.791  66.674   7.533  1.00  0.00     0.329 A 
HETATM    6  O2  UNL     1      31.137  67.219   6.460  1.00  0.00    -0.247 OA
HETATM    7  N6  UNL     1      29.484  66.613   7.903  1.00  0.00    -0.273 N 
ATOM      8  H6  UNL     1      28.775  67.018   7.291  1.00  0.00     0.173 HD
HETATM    9  C5  UNL     1      29.098  66.027   9.061  1.00  0.00     0.281 A 
HETATM   10  O3  UNL     1      27.881  65.969   9.404  1.00  0.00    -0.265 OA
ENDROOT
BRANCH   1  11
HETATM   11  N4  UNL     1      29.666  64.869  11.092  1.00  0.00    -0.276 N 
HETATM   12  N3  UNL     1      29.107  65.604  11.950  1.00  0.00    -0.226 N 
ATOM     13  H3  UNL     1      28.985  66.587  11.710  1.00  0.00     0.210 HD
ATOM     14  H4  UNL     1      29.822  63.875  11.263  1.00  0.00     0.189 HD
BRANCH  12  15
HETATM   15  N1  UNL     1      28.645  65.199  13.182  1.00  0.00    -0.231 N 
HETATM   16  C1  UNL     1      28.149  66.190  14.116  1.00  0.00     0.201 C 
BRANCH  15  17
HETATM   17  N2  UNL     1      28.656  63.858  13.519  1.00  0.00    -0.328 N 
ATOM     18  H22 UNL     1      27.956  63.487  14.161  1.00  0.00     0.178 HD
ATOM     19  H21 UNL     1      29.362  63.231  13.131  1.00  0.00     0.178 HD
ENDBRANCH  15  17
ENDBRANCH  12  15
ENDBRANCH   1  11
BRANCH   2  20
HETATM   20  O1  UNL     1      32.357  65.024  10.281  1.00  0.00    -0.344 OA
ATOM     21  H1  UNL     1      33.246  64.982   9.948  1.00  0.00     0.219 HD
ENDBRANCH   2  20
TORSDOF 4
ENDMDL
MODEL 4
REMARK VINA RESULT: -6.499822753      2.517      5.272
REMARK  4 active torsions:
REMARK  status: ('A' for Active; 'I' for Inactive)
REMARK    1  A    between atoms: N1_2  and  N2_3 
REMARK    2  A    between atoms: N1_2  and  N3_6 
REMARK    3  A    between atoms: N4_8  and  C2_10 
REMARK    4  A    between atoms: C3_11  and  O1_12 
ROOT
HETATM    1  C2  UNL     1      28.328  64.516  11.390  1.00  0.00     0.169 A 
HETATM    2  C3  UNL     1      28.188  63.827  12.571  1.00  0.00     0.178 A 
HETATM    3  N5  UNL     1      27.068  63.182  12.921  1.00  0.00    -0.287 N 
ATOM      4  H5  UNL     1      27.003  62.682  13.808  1.00  0.00     0.172 HD
HETATM    5  C4  UNL     1      26.030  63.216  12.061  1.00  0.00     0.329 A 
HETATM    6  O2  UNL     1      24.981  62.613  12.383  1.00  0.00    -0.247 OA
HETATM    7  N6  UNL     1      26.125  63.884  10.880  1.00  0.00    -0.273 N 
ATOM      8  H6  UNL     1      25.323  63.893  10.249  1.00  0.00     0.173 HD
HETATM    9  C5  UNL     1      27.254  64.539  10.521  1.00  0.00     0.281 A 
HETATM   10  O3  UNL     1      27.341  65.162   9.422  1.00  0.00    -0.265 OA
ENDROOT
BRANCH   1  11
HETATM   11  N4  UNL     1      29.514  65.204  11.012  1.00  0.00    -0.276 N 
HETATM   12  N3  UNL     1      30.077  64.838   9.945  1.00  0.00    -0.226 N 
ATOM     13  H3  UNL     1      29.642  64.074   9.429  1.00  0.00     0.210 HD
ATOM     14  H4  UNL     1      29.892  65.962  11.580  1.00  0.00     0.189 HD
BRANCH  12  15
HETATM   15  N1  UNL     1      31.227  65.375   9.413  1.00  0.00    -0.231 N 
HETATM   16  C1  UNL     1      31.134  66.274   8.279  1.00  0.00     0.201 C 
BRANCH  15  17
HETATM   17  N2  UNL     1      32.457  65.058   9.960  1.00  0.00    -0.328 N 
ATOM     18  H22 UNL     1      33.265  64.920   9.354  1.00  0.00     0.178 HD
ATOM     19  H21 UNL     1      32.566  64.961  10.970  1.00  0.00     0.178 HD
ENDBRANCH  15  17
ENDBRANCH  12  15
ENDBRANCH   1  11
BRANCH   2  20
HETATM   20  O1  UNL     1      29.267  63.805  13.441  1.00  0.00    -0.344 OA
ATOM     21  H1  UNL     1      29.304  63.108  14.087  1.00  0.00     0.219 HD
ENDBRANCH   2  20
TORSDOF 4
ENDMDL
MODEL 5
REMARK VINA RESULT: -6.268073107      2.591      5.482
REMARK  4 active torsions:
REMARK  status: ('A' for Active; 'I' for Inactive)
REMARK    1  A    between atoms: N1_2  and  N2_3 
REMARK    2  A    between atoms: N1_2  and  N3_6 
REMARK    3  A    between atoms: N4_8  and  C2_10 
REMARK    4  A    between atoms: C3_11  and  O1_12 
ROOT
HETATM    1  C2  UNL     1      28.165  64.359  11.174  1.00  0.00     0.169 A 
HETATM    2  C3  UNL     1      27.122  64.432  10.282  1.00  0.00     0.178 A 
HETATM    3  N5  UNL     1      25.944  63.823  10.473  1.00  0.00    -0.287 N 
ATOM      4  H5  UNL     1      25.194  63.900   9.786  1.00  0.00     0.172 HD
HETATM    5  C4  UNL     1      25.785  63.106  11.603  1.00  0.00     0.329 A 
HETATM    6  O2  UNL     1      24.685  62.536  11.787  1.00  0.00    -0.247 OA
HETATM    7  N6  UNL     1      26.790  63.007  12.514  1.00  0.00    -0.273 N 
ATOM      8  H6  UNL     1      26.641  62.458  13.360  1.00  0.00     0.173 HD
HETATM    9  C5  UNL     1      27.983  63.619  12.326  1.00  0.00     0.281 A 
HETATM   10  O3  UNL     1      28.919  63.527  13.175  1.00  0.00    -0.265 OA
ENDROOT
BRANCH   1  11
HETATM   11  N4  UNL     1      29.419  65.002  10.978  1.00  0.00    -0.276 N 
HETATM   12  N3  UNL     1      29.996  64.814   9.873  1.00  0.00    -0.226 N 
ATOM     13  H3  UNL     1      29.521  64.215   9.198  1.00  0.00     0.210 HD
ATOM     14  H4  UNL     1      29.834  65.589  11.702  1.00  0.00     0.189 HD
BRANCH  12  15
HETATM   15  N1  UNL     1      31.208  65.345   9.494  1.00  0.00    -0.231 N 
HETATM   16  C1  UNL     1      31.256  66.306   8.410  1.00  0.00     0.201 C 
BRANCH  15  17
HETATM   17  N2  UNL     1      32.366  64.962  10.147  1.00  0.00    -0.328 N 
ATOM     18  H22 UNL     1      33.262  65.366   9.876  1.00  0.00     0.178 HD
ATOM     19  H21 UNL     1      32.334  64.275  10.901  1.00  0.00     0.178 HD
ENDBRANCH  15  17
ENDBRANCH  12  15
ENDBRANCH   1  11
BRANCH   2  20
HETATM   20  O1  UNL     1      27.306  65.174   9.126  1.00  0.00    -0.344 OA
ATOM     21  H1  UNL     1      26.624  65.787   8.876  1.00  0.00     0.219 HD
ENDBRANCH   2  20
TORSDOF 4
ENDMDL
