MODEL 1
REMARK VINA RESULT: -6.428041848      0.000      0.000
REMARK  3 active torsions:
REMARK  status: ('A' for Active; 'I' for Inactive)
REMARK    1  A    between atoms: C2_2  and  C3_8 
REMARK    2  A    between atoms: N1_3  and  N2_5 
REMARK    3  A    between atoms: N3_11  and  N4_12 
ROOT
HETATM    1  C3  UNL     1      29.675  65.739   9.274  1.00  0.00     0.080 A 
HETATM    2  C4  UNL     1      31.043  65.798   9.142  1.00  0.00     0.052 A 
HETATM    3  C5  UNL     1      31.962  65.375  10.207  1.00  0.00     0.072 C 
HETATM    4  N3  UNL     1      31.512  66.279   7.946  1.00  0.00    -0.215 N 
HETATM    5  C6  UNL     1      30.707  66.674   6.949  1.00  0.00     0.348 A 
HETATM    6  O1  UNL     1      31.181  67.110   5.867  1.00  0.00    -0.245 OA
HETATM    7  N5  UNL     1      29.378  66.597   7.131  1.00  0.00    -0.273 N 
ATOM      8  H5  UNL     1      28.760  66.897   6.377  1.00  0.00     0.173 HD
HETATM    9  C7  UNL     1      28.837  66.141   8.264  1.00  0.00     0.263 A 
HETATM   10  O2  UNL     1      27.603  66.100   8.351  1.00  0.00    -0.267 OA
ENDROOT
BRANCH   1  11
HETATM   11  C2  UNL     1      29.095  65.243  10.506  1.00  0.00     0.039 C 
HETATM   12  C1  UNL     1      28.829  66.142  11.682  1.00  0.00     0.071 C 
HETATM   13  N1  UNL     1      28.763  64.018  10.701  1.00  0.00    -0.311 N 
ATOM     14  H1  UNL     1      28.916  63.353   9.942  1.00  0.00     0.186 HD
BRANCH  13  15
HETATM   15  N2  UNL     1      28.212  63.548  11.875  1.00  0.00    -0.345 N 
ATOM     16  H22 UNL     1      28.860  63.291  12.620  1.00  0.00     0.176 HD
ATOM     17  H21 UNL     1      27.210  63.447  12.031  1.00  0.00     0.176 HD
ENDBRANCH  13  15
ENDBRANCH   1  11
BRANCH   4  18
HETATM   18  N4  UNL     1      32.898  66.347   7.789  1.00  0.00    -0.334 N 
ATOM     19  H42 UNL     1      33.439  67.020   8.333  1.00  0.00     0.177 HD
ATOM     20  H41 UNL     1      33.321  65.704   7.120  1.00  0.00     0.177 HD
ENDBRANCH   4  18
TORSDOF 3
ENDMDL
MODEL 2
REMARK VINA RESULT: -6.098300672      1.517      2.636
REMARK  3 active torsions:
REMARK  status: ('A' for Active; 'I' for Inactive)
REMARK    1  A    between atoms: C2_2  and  C3_8 
REMARK    2  A    between atoms: N1_3  and  N2_5 
REMARK    3  A    between atoms: N3_11  and  N4_12 
ROOT
HETATM    1  C3  UNL     1      29.676  65.970   9.734  1.00  0.00     0.080 A 
HETATM    2  C4  UNL     1      28.722  66.140   8.757  1.00  0.00     0.052 A 
HETATM    3  C5  UNL     1      27.282  66.041   9.029  1.00  0.00     0.072 C 
HETATM    4  N3  UNL     1      29.191  66.411   7.497  1.00  0.00    -0.215 N 
HETATM    5  C6  UNL     1      30.497  66.510   7.207  1.00  0.00     0.348 A 
HETATM    6  O1  UNL     1      30.884  66.760   6.036  1.00  0.00    -0.245 OA
HETATM    7  N5  UNL     1      31.387  66.335   8.198  1.00  0.00    -0.273 N 
ATOM      8  H5  UNL     1      32.382  66.408   7.984  1.00  0.00     0.173 HD
HETATM    9  C7  UNL     1      31.016  66.068   9.454  1.00  0.00     0.263 A 
HETATM   10  O2  UNL     1      31.899  65.921  10.308  1.00  0.00    -0.267 OA
ENDROOT
BRANCH   1  11
HETATM   11  C2  UNL     1      29.266  65.682  11.093  1.00  0.00     0.039 C 
HETATM   12  C1  UNL     1      28.755  66.752  12.017  1.00  0.00     0.071 C 
HETATM   13  N1  UNL     1      29.303  64.511  11.620  1.00  0.00    -0.311 N 
ATOM     14  H1  UNL     1      29.639  63.737  11.047  1.00  0.00     0.186 HD
BRANCH  13  15
HETATM   15  N2  UNL     1      28.913  64.239  12.915  1.00  0.00    -0.345 N 
ATOM     16  H22 UNL     1      27.912  64.259  13.111  1.00  0.00     0.176 HD
ATOM     17  H21 UNL     1      29.562  64.024  13.670  1.00  0.00     0.176 HD
ENDBRANCH  13  15
ENDBRANCH   1  11
BRANCH   4  18
HETATM   18  N4  UNL     1      28.240  66.587   6.490  1.00  0.00    -0.334 N 
ATOM     19  H42 UNL     1      27.255  66.693   6.734  1.00  0.00     0.177 HD
ATOM     20  H41 UNL     1      28.580  66.602   5.528  1.00  0.00     0.177 HD
ENDBRANCH   4  18
TORSDOF 3
ENDMDL
MODEL 3
REMARK VINA RESULT: -5.946976893      2.625      3.487
REMARK  3 active torsions:
REMARK  status: ('A' for Active; 'I' for Inactive)
REMARK    1  A    between atoms: C2_2  and  C3_8 
REMARK    2  A    between atoms: N1_3  and  N2_5 
REMARK    3  A    between atoms: N3_11  and  N4_12 
ROOT
HETATM    1  C3  UNL     1      28.246  65.696   9.262  1.00  0.00     0.080 A 
HETATM    2  C4  UNL     1      29.109  65.897   8.210  1.00  0.00     0.052 A 
HETATM    3  C5  UNL     1      28.654  66.337   6.884  1.00  0.00     0.072 C 
HETATM    4  N3  UNL     1      30.436  65.664   8.466  1.00  0.00    -0.215 N 
HETATM    5  C6  UNL     1      30.892  65.262   9.662  1.00  0.00     0.348 A 
HETATM    6  O1  UNL     1      32.119  65.059   9.853  1.00  0.00    -0.245 OA
HETATM    7  N5  UNL     1      30.006  65.079  10.655  1.00  0.00    -0.273 N 
ATOM      8  H5  UNL     1      30.346  64.773  11.567  1.00  0.00     0.173 HD
HETATM    9  C7  UNL     1      28.696  65.284  10.492  1.00  0.00     0.263 A 
HETATM   10  O2  UNL     1      27.947  65.093  11.458  1.00  0.00    -0.267 OA
ENDROOT
BRANCH   1  11
HETATM   11  C2  UNL     1      26.826  65.920   9.078  1.00  0.00     0.039 C 
HETATM   12  C1  UNL     1      26.014  65.126   8.091  1.00  0.00     0.071 C 
HETATM   13  N1  UNL     1      26.148  66.797   9.725  1.00  0.00    -0.311 N 
ATOM     14  H1  UNL     1      26.638  67.371  10.411  1.00  0.00     0.186 HD
BRANCH  13  15
HETATM   15  N2  UNL     1      24.797  67.009   9.547  1.00  0.00    -0.345 N 
ATOM     16  H22 UNL     1      24.205  66.182   9.468  1.00  0.00     0.176 HD
ATOM     17  H21 UNL     1      24.369  67.933   9.491  1.00  0.00     0.176 HD
ENDBRANCH  13  15
ENDBRANCH   1  11
BRANCH   4  18
HETATM   18  N4  UNL     1      31.330  65.863   7.412  1.00  0.00    -0.334 N 
ATOM     19  H42 UNL     1      31.017  66.332   6.561  1.00  0.00     0.177 HD
ATOM     20  H41 UNL     1      32.283  65.522   7.541  1.00  0.00     0.177 HD
ENDBRANCH   4  18
TORSDOF 3
ENDMDL
MODEL 4
REMARK VINA RESULT: -5.729055479      3.859      5.709
REMARK  3 active torsions:
REMARK  status: ('A' for Active; 'I' for Inactive)
REMARK    1  A    between atoms: C2_2  and  C3_8 
REMARK    2  A    between atoms: N1_3  and  N2_5 
REMARK    3  A    between atoms: N3_11  and  N4_12 
ROOT
HETATM    1  C3  UNL     1      26.982  63.987  10.294  1.00  0.00     0.080 A 
HETATM    2  C4  UNL     1      26.121  64.472   9.337  1.00  0.00     0.052 A 
HETATM    3  C5  UNL     1      26.261  65.812   8.750  1.00  0.00     0.072 C 
HETATM    4  N3  UNL     1      25.110  63.629   8.951  1.00  0.00    -0.215 N 
HETATM    5  C6  UNL     1      24.949  62.399   9.461  1.00  0.00     0.348 A 
HETATM    6  O1  UNL     1      24.007  61.657   9.079  1.00  0.00    -0.245 OA
HETATM    7  N5  UNL     1      25.817  61.975  10.395  1.00  0.00    -0.273 N 
ATOM      8  H5  UNL     1      25.699  61.040  10.788  1.00  0.00     0.173 HD
HETATM    9  C7  UNL     1      26.829  62.731  10.827  1.00  0.00     0.263 A 
HETATM   10  O2  UNL     1      27.585  62.265  11.689  1.00  0.00    -0.267 OA
ENDROOT
BRANCH   1  11
HETATM   11  C2  UNL     1      28.077  64.814  10.758  1.00  0.00     0.039 C 
HETATM   12  C1  UNL     1      27.891  65.869  11.814  1.00  0.00     0.071 C 
HETATM   13  N1  UNL     1      29.280  64.724  10.318  1.00  0.00    -0.311 N 
ATOM     14  H1  UNL     1      29.478  64.027   9.600  1.00  0.00     0.186 HD
BRANCH  13  15
HETATM   15  N2  UNL     1      30.321  65.513  10.761  1.00  0.00    -0.345 N 
ATOM     16  H22 UNL     1      31.071  65.706  10.097  1.00  0.00     0.176 HD
ATOM     17  H21 UNL     1      30.378  65.904  11.701  1.00  0.00     0.176 HD
ENDBRANCH  13  15
ENDBRANCH   1  11
BRANCH   4  18
HETATM   18  N4  UNL     1      24.225  64.101   7.980  1.00  0.00    -0.334 N 
ATOM     19  H42 UNL     1      23.270  64.347   8.239  1.00  0.00     0.177 HD
ATOM     20  H41 UNL     1      24.581  64.179   7.027  1.00  0.00     0.177 HD
ENDBRANCH   4  18
TORSDOF 3
ENDMDL
MODEL 5
REMARK VINA RESULT: -5.698436753      1.804      4.261
REMARK  3 active torsions:
REMARK  status: ('A' for Active; 'I' for Inactive)
REMARK    1  A    between atoms: C2_2  and  C3_8 
REMARK    2  A    between atoms: N1_3  and  N2_5 
REMARK    3  A    between atoms: N3_11  and  N4_12 
ROOT
HETATM    1  C3  UNL     1      29.302  66.119   8.568  1.00  0.00     0.080 A 
HETATM    2  C4  UNL     1      28.641  66.302   9.761  1.00  0.00     0.052 A 
HETATM    3  C5  UNL     1      29.344  66.494  11.036  1.00  0.00     0.072 C 
HETATM    4  N3  UNL     1      27.271  66.295   9.698  1.00  0.00    -0.215 N 
HETATM    5  C6  UNL     1      26.591  66.123   8.554  1.00  0.00     0.348 A 
HETATM    6  O1  UNL     1      25.333  66.124   8.542  1.00  0.00    -0.245 OA
HETATM    7  N5  UNL     1      27.286  65.948   7.418  1.00  0.00    -0.273 N 
ATOM      8  H5  UNL     1      26.775  65.816   6.545  1.00  0.00     0.173 HD
HETATM    9  C7  UNL     1      28.622  65.941   7.389  1.00  0.00     0.263 A 
HETATM   10  O2  UNL     1      29.185  65.775   6.300  1.00  0.00    -0.267 OA
ENDROOT
BRANCH   1  11
HETATM   11  C2  UNL     1      30.751  66.113   8.545  1.00  0.00     0.039 C 
HETATM   12  C1  UNL     1      31.563  65.386   9.582  1.00  0.00     0.071 C 
HETATM   13  N1  UNL     1      31.457  66.715   7.658  1.00  0.00    -0.311 N 
ATOM     14  H1  UNL     1      30.970  67.228   6.924  1.00  0.00     0.186 HD
BRANCH  13  15
HETATM   15  N2  UNL     1      32.836  66.708   7.639  1.00  0.00    -0.345 N 
ATOM     16  H22 UNL     1      33.307  67.591   7.840  1.00  0.00     0.176 HD
ATOM     17  H21 UNL     1      33.398  65.881   7.438  1.00  0.00     0.176 HD
ENDBRANCH  13  15
ENDBRANCH   1  11
BRANCH   4  18
HETATM   18  N4  UNL     1      26.579  66.479  10.897  1.00  0.00    -0.334 N 
ATOM     19  H42 UNL     1      25.952  67.277  11.004  1.00  0.00     0.177 HD
ATOM     20  H41 UNL     1      26.737  65.791  11.633  1.00  0.00     0.177 HD
ENDBRANCH   4  18
TORSDOF 3
ENDMDL
