MODEL 1
REMARK VINA RESULT: -7.450899989      0.000      0.000
REMARK  9 active torsions:
REMARK  status: ('A' for Active; 'I' for Inactive)
REMARK    1  A    between atoms: C1_2  and  C2_4 
REMARK    2  A    between atoms: C2_4  and  C3_5 
REMARK    3  A    between atoms: C2_4  and  N4_12 
REMARK    4  A    between atoms: C3_5  and  C4_6 
REMARK    5  A    between atoms: C4_6  and  N2_7 
REMARK    6  A    between atoms: N2_7  and  N3_9 
REMARK    7  A    between atoms: N3_9  and  C5_10 
REMARK       I    between atoms: N4_12  and  C6_14 
REMARK    8  A    between atoms: C6_14  and  C7_16 
REMARK    9  A    between atoms: C8_17  and  C9_18 
ROOT
HETATM    1  N4  UNL     1      27.199  65.118  11.795  1.00  0.00    -0.323 N 
ATOM      2  H4  UNL     1      27.452  64.771  10.869  1.00  0.00     0.169 HD
HETATM    3  C6  UNL     1      27.547  66.435  11.925  1.00  0.00     0.245 C 
HETATM    4  O3  UNL     1      27.320  67.201  12.859  1.00  0.00    -0.268 OA
ENDROOT
BRANCH   1   5
HETATM    5  C2  UNL     1      26.595  64.093  12.558  1.00  0.00     0.079 C 
BRANCH   5   6
HETATM    6  C1  UNL     1      27.074  63.602  13.794  1.00  0.00     0.277 C 
HETATM    7  N1  UNL     1      27.908  62.359  13.706  1.00  0.00    -0.056 NA
HETATM    8  O1  UNL     1      26.916  64.051  14.964  1.00  0.00    -0.270 OA
ENDBRANCH   5   6
BRANCH   5   9
HETATM    9  C3  UNL     1      25.525  63.501  11.665  1.00  0.00     0.084 C 
BRANCH   9  10
HETATM   10  C4  UNL     1      25.979  62.906  10.355  1.00  0.00     0.160 C 
BRANCH  10  11
HETATM   11  N2  UNL     1      26.991  61.886  10.699  1.00  0.00    -0.269 N 
ATOM     12  H2  UNL     1      27.519  61.936  11.571  1.00  0.00     0.195 HD
BRANCH  11  13
HETATM   13  N3  UNL     1      27.185  60.910   9.833  1.00  0.00    -0.302 NA
BRANCH  13  14
HETATM   14  C5  UNL     1      27.379  59.872   8.913  1.00  0.00     0.466 C 
HETATM   15  O2  UNL     1      26.599  59.539   7.932  1.00  0.00    -0.266 OA
ENDBRANCH  13  14
ENDBRANCH  11  13
ENDBRANCH  10  11
ENDBRANCH   9  10
ENDBRANCH   5   9
ENDBRANCH   1   5
BRANCH   3  16
HETATM   16  C7  UNL     1      28.360  66.972  10.749  1.00  0.00     0.075 C 
HETATM   17  C8  UNL     1      29.319  66.237  10.314  1.00  0.00     0.017 C 
BRANCH  17  18
HETATM   18  C9  UNL     1      30.179  66.576   9.172  1.00  0.00    -0.036 A 
HETATM   19  C10 UNL     1      29.598  66.797   7.964  1.00  0.00     0.011 A 
HETATM   20  C11 UNL     1      30.302  67.097   6.815  1.00  0.00     0.001 A 
HETATM   21  C12 UNL     1      31.692  67.198   6.855  1.00  0.00     0.000 A 
HETATM   22  C13 UNL     1      32.294  66.979   8.062  1.00  0.00     0.001 A 
HETATM   23  C14 UNL     1      31.547  66.672   9.195  1.00  0.00     0.011 A 
ENDBRANCH  17  18
ENDBRANCH   3  16
TORSDOF 9
ENDMDL
MODEL 2
REMARK VINA RESULT: -7.359130669      2.513      3.100
REMARK  9 active torsions:
REMARK  status: ('A' for Active; 'I' for Inactive)
REMARK    1  A    between atoms: C1_2  and  C2_4 
REMARK    2  A    between atoms: C2_4  and  C3_5 
REMARK    3  A    between atoms: C2_4  and  N4_12 
REMARK    4  A    between atoms: C3_5  and  C4_6 
REMARK    5  A    between atoms: C4_6  and  N2_7 
REMARK    6  A    between atoms: N2_7  and  N3_9 
REMARK    7  A    between atoms: N3_9  and  C5_10 
REMARK       I    between atoms: N4_12  and  C6_14 
REMARK    8  A    between atoms: C6_14  and  C7_16 
REMARK    9  A    between atoms: C8_17  and  C9_18 
ROOT
HETATM    1  N4  UNL     1      25.587  64.898   9.187  1.00  0.00    -0.323 N 
ATOM      2  H4  UNL     1      26.311  64.302   8.786  1.00  0.00     0.169 HD
HETATM    3  C6  UNL     1      25.835  66.214   8.901  1.00  0.00     0.245 C 
HETATM    4  O3  UNL     1      25.138  67.197   9.142  1.00  0.00    -0.268 OA
ENDROOT
BRANCH   1   5
HETATM    5  C2  UNL     1      24.628  64.118   9.872  1.00  0.00     0.079 C 
BRANCH   5   6
HETATM    6  C1  UNL     1      24.210  64.321  11.207  1.00  0.00     0.277 C 
HETATM    7  N1  UNL     1      23.051  65.259  11.377  1.00  0.00    -0.056 NA
HETATM    8  O1  UNL     1      24.654  63.830  12.283  1.00  0.00    -0.270 OA
ENDBRANCH   5   6
BRANCH   5   9
HETATM    9  C3  UNL     1      24.365  62.924   8.979  1.00  0.00     0.084 C 
BRANCH   9  10
HETATM   10  C4  UNL     1      24.553  61.557   9.589  1.00  0.00     0.160 C 
BRANCH  10  11
HETATM   11  N2  UNL     1      25.958  61.184   9.326  1.00  0.00    -0.269 N 
ATOM     12  H2  UNL     1      26.196  60.454   8.655  1.00  0.00     0.195 HD
BRANCH  11  13
HETATM   13  N3  UNL     1      26.892  61.833   9.996  1.00  0.00    -0.302 NA
BRANCH  13  14
HETATM   14  C5  UNL     1      27.875  62.530  10.709  1.00  0.00     0.466 C 
HETATM   15  O2  UNL     1      28.836  63.250  10.220  1.00  0.00    -0.266 OA
ENDBRANCH  13  14
ENDBRANCH  11  13
ENDBRANCH  10  11
ENDBRANCH   9  10
ENDBRANCH   5   9
ENDBRANCH   1   5
BRANCH   3  16
HETATM   16  C7  UNL     1      27.187  66.449   8.230  1.00  0.00     0.075 C 
HETATM   17  C8  UNL     1      28.218  66.509   8.992  1.00  0.00     0.017 C 
BRANCH  17  18
HETATM   18  C9  UNL     1      29.597  66.692   8.520  1.00  0.00    -0.036 A 
HETATM   19  C10 UNL     1      30.615  66.535   9.407  1.00  0.00     0.011 A 
HETATM   20  C11 UNL     1      31.947  66.705   9.088  1.00  0.00     0.001 A 
HETATM   21  C12 UNL     1      32.314  67.048   7.787  1.00  0.00     0.000 A 
HETATM   22  C13 UNL     1      31.304  67.210   6.881  1.00  0.00     0.001 A 
HETATM   23  C14 UNL     1      29.973  67.035   7.247  1.00  0.00     0.011 A 
ENDBRANCH  17  18
ENDBRANCH   3  16
TORSDOF 9
ENDMDL
MODEL 3
REMARK VINA RESULT: -7.277876877      1.817      1.966
REMARK  9 active torsions:
REMARK  status: ('A' for Active; 'I' for Inactive)
REMARK    1  A    between atoms: C1_2  and  C2_4 
REMARK    2  A    between atoms: C2_4  and  C3_5 
REMARK    3  A    between atoms: C2_4  and  N4_12 
REMARK    4  A    between atoms: C3_5  and  C4_6 
REMARK    5  A    between atoms: C4_6  and  N2_7 
REMARK    6  A    between atoms: N2_7  and  N3_9 
REMARK    7  A    between atoms: N3_9  and  C5_10 
REMARK       I    between atoms: N4_12  and  C6_14 
REMARK    8  A    between atoms: C6_14  and  C7_16 
REMARK    9  A    between atoms: C8_17  and  C9_18 
ROOT
HETATM    1  N4  UNL     1      26.697  64.238  11.011  1.00  0.00    -0.323 N 
ATOM      2  H4  UNL     1      26.680  64.879  10.218  1.00  0.00     0.169 HD
HETATM    3  C6  UNL     1      27.976  63.823  11.267  1.00  0.00     0.245 C 
HETATM    4  O3  UNL     1      28.387  63.125  12.191  1.00  0.00    -0.268 OA
ENDROOT
BRANCH   1   5
HETATM    5  C2  UNL     1      25.391  64.044  11.518  1.00  0.00     0.079 C 
BRANCH   5   6
HETATM    6  C1  UNL     1      25.075  63.662  12.841  1.00  0.00     0.277 C 
HETATM    7  N1  UNL     1      25.714  64.492  13.915  1.00  0.00    -0.056 NA
HETATM    8  O1  UNL     1      24.330  62.733  13.264  1.00  0.00    -0.270 OA
ENDBRANCH   5   6
BRANCH   5   9
HETATM    9  C3  UNL     1      24.480  64.083  10.310  1.00  0.00     0.084 C 
BRANCH   9  10
HETATM   10  C4  UNL     1      24.930  63.324   9.087  1.00  0.00     0.160 C 
BRANCH  10  11
HETATM   11  N2  UNL     1      24.923  61.897   9.467  1.00  0.00    -0.269 N 
ATOM     12  H2  UNL     1      24.064  61.428   9.755  1.00  0.00     0.195 HD
BRANCH  11  13
HETATM   13  N3  UNL     1      26.074  61.253   9.418  1.00  0.00    -0.302 NA
BRANCH  13  14
HETATM   14  C5  UNL     1      27.291  60.563   9.357  1.00  0.00     0.466 C 
HETATM   15  O2  UNL     1      27.463  59.289   9.187  1.00  0.00    -0.266 OA
ENDBRANCH  13  14
ENDBRANCH  11  13
ENDBRANCH  10  11
ENDBRANCH   9  10
ENDBRANCH   5   9
ENDBRANCH   1   5
BRANCH   3  16
HETATM   16  C7  UNL     1      28.987  64.275  10.215  1.00  0.00     0.075 C 
HETATM   17  C8  UNL     1      29.153  65.540  10.066  1.00  0.00     0.017 C 
BRANCH  17  18
HETATM   18  C9  UNL     1      30.107  66.153   9.131  1.00  0.00    -0.036 A 
HETATM   19  C10 UNL     1      29.662  66.532   7.904  1.00  0.00     0.011 A 
HETATM   20  C11 UNL     1      30.467  67.093   6.934  1.00  0.00     0.001 A 
HETATM   21  C12 UNL     1      31.819  67.312   7.191  1.00  0.00     0.000 A 
HETATM   22  C13 UNL     1      32.285  66.937   8.419  1.00  0.00     0.001 A 
HETATM   23  C14 UNL     1      31.440  66.367   9.367  1.00  0.00     0.011 A 
ENDBRANCH  17  18
ENDBRANCH   3  16
TORSDOF 9
ENDMDL
MODEL 4
REMARK VINA RESULT: -7.223393994      2.323      3.091
REMARK  9 active torsions:
REMARK  status: ('A' for Active; 'I' for Inactive)
REMARK    1  A    between atoms: C1_2  and  C2_4 
REMARK    2  A    between atoms: C2_4  and  C3_5 
REMARK    3  A    between atoms: C2_4  and  N4_12 
REMARK    4  A    between atoms: C3_5  and  C4_6 
REMARK    5  A    between atoms: C4_6  and  N2_7 
REMARK    6  A    between atoms: N2_7  and  N3_9 
REMARK    7  A    between atoms: N3_9  and  C5_10 
REMARK       I    between atoms: N4_12  and  C6_14 
REMARK    8  A    between atoms: C6_14  and  C7_16 
REMARK    9  A    between atoms: C8_17  and  C9_18 
ROOT
HETATM    1  N4  UNL     1      25.701  64.677   9.824  1.00  0.00    -0.323 N 
ATOM      2  H4  UNL     1      26.516  64.110   9.589  1.00  0.00     0.169 HD
HETATM    3  C6  UNL     1      25.780  65.903   9.221  1.00  0.00     0.245 C 
HETATM    4  O3  UNL     1      24.947  66.806   9.206  1.00  0.00    -0.268 OA
ENDROOT
BRANCH   1   5
HETATM    5  C2  UNL     1      24.829  63.960  10.675  1.00  0.00     0.079 C 
BRANCH   5   6
HETATM    6  C1  UNL     1      24.166  64.492  11.804  1.00  0.00     0.277 C 
HETATM    7  N1  UNL     1      22.930  65.285  11.502  1.00  0.00    -0.056 NA
HETATM    8  O1  UNL     1      24.447  64.399  13.032  1.00  0.00    -0.270 OA
ENDBRANCH   5   6
BRANCH   5   9
HETATM    9  C3  UNL     1      24.973  62.508  10.271  1.00  0.00     0.084 C 
BRANCH   9  10
HETATM   10  C4  UNL     1      26.277  62.099   9.633  1.00  0.00     0.160 C 
BRANCH  10  11
HETATM   11  N2  UNL     1      27.140  61.629  10.736  1.00  0.00    -0.269 N 
ATOM     12  H2  UNL     1      27.303  60.635  10.895  1.00  0.00     0.195 HD
BRANCH  11  13
HETATM   13  N3  UNL     1      27.691  62.548  11.507  1.00  0.00    -0.302 NA
BRANCH  13  14
HETATM   14  C5  UNL     1      28.267  63.530  12.322  1.00  0.00     0.466 C 
HETATM   15  O2  UNL     1      29.304  64.262  12.054  1.00  0.00    -0.266 OA
ENDBRANCH  13  14
ENDBRANCH  11  13
ENDBRANCH  10  11
ENDBRANCH   9  10
ENDBRANCH   5   9
ENDBRANCH   1   5
BRANCH   3  16
HETATM   16  C7  UNL     1      27.114  66.156   8.522  1.00  0.00     0.075 C 
HETATM   17  C8  UNL     1      28.127  66.420   9.267  1.00  0.00     0.017 C 
BRANCH  17  18
HETATM   18  C9  UNL     1      29.490  66.654   8.771  1.00  0.00    -0.036 A 
HETATM   19  C10 UNL     1      29.657  67.005   7.469  1.00  0.00     0.011 A 
HETATM   20  C11 UNL     1      30.887  67.225   6.884  1.00  0.00     0.001 A 
HETATM   21  C12 UNL     1      32.052  67.101   7.640  1.00  0.00     0.000 A 
HETATM   22  C13 UNL     1      31.903  66.748   8.952  1.00  0.00     0.001 A 
HETATM   23  C14 UNL     1      30.644  66.529   9.501  1.00  0.00     0.011 A 
ENDBRANCH  17  18
ENDBRANCH   3  16
TORSDOF 9
ENDMDL
MODEL 5
REMARK VINA RESULT: -7.214637429      2.578      3.487
REMARK  9 active torsions:
REMARK  status: ('A' for Active; 'I' for Inactive)
REMARK    1  A    between atoms: C1_2  and  C2_4 
REMARK    2  A    between atoms: C2_4  and  C3_5 
REMARK    3  A    between atoms: C2_4  and  N4_12 
REMARK    4  A    between atoms: C3_5  and  C4_6 
REMARK    5  A    between atoms: C4_6  and  N2_7 
REMARK    6  A    between atoms: N2_7  and  N3_9 
REMARK    7  A    between atoms: N3_9  and  C5_10 
REMARK       I    between atoms: N4_12  and  C6_14 
REMARK    8  A    between atoms: C6_14  and  C7_16 
REMARK    9  A    between atoms: C8_17  and  C9_18 
ROOT
HETATM    1  N4  UNL     1      25.584  65.953   9.460  1.00  0.00    -0.323 N 
ATOM      2  H4  UNL     1      26.137  66.053   8.609  1.00  0.00     0.169 HD
HETATM    3  C6  UNL     1      26.356  66.190  10.565  1.00  0.00     0.245 C 
HETATM    4  O3  UNL     1      26.014  66.245  11.744  1.00  0.00    -0.268 OA
ENDROOT
BRANCH   1   5
HETATM    5  C2  UNL     1      24.249  65.611   9.144  1.00  0.00     0.079 C 
BRANCH   5   6
HETATM    6  C1  UNL     1      23.117  66.421   9.387  1.00  0.00     0.277 C 
HETATM    7  N1  UNL     1      21.896  66.068   8.591  1.00  0.00    -0.056 NA
HETATM    8  O1  UNL     1      22.968  67.395  10.179  1.00  0.00    -0.270 OA
ENDBRANCH   5   6
BRANCH   5   9
HETATM    9  C3  UNL     1      24.288  64.150   8.751  1.00  0.00     0.084 C 
BRANCH   9  10
HETATM   10  C4  UNL     1      24.601  63.154   9.840  1.00  0.00     0.160 C 
BRANCH  10  11
HETATM   11  N2  UNL     1      24.742  61.846   9.169  1.00  0.00    -0.269 N 
ATOM     12  H2  UNL     1      23.967  61.428   8.655  1.00  0.00     0.195 HD
BRANCH  11  13
HETATM   13  N3  UNL     1      25.911  61.241   9.262  1.00  0.00    -0.302 NA
BRANCH  13  14
HETATM   14  C5  UNL     1      27.154  60.603   9.350  1.00  0.00     0.466 C 
HETATM   15  O2  UNL     1      27.401  59.340   9.186  1.00  0.00    -0.266 OA
ENDBRANCH  13  14
ENDBRANCH  11  13
ENDBRANCH  10  11
ENDBRANCH   9  10
ENDBRANCH   5   9
ENDBRANCH   1   5
BRANCH   3  16
HETATM   16  C7  UNL     1      27.841  66.360  10.248  1.00  0.00     0.075 C 
HETATM   17  C8  UNL     1      28.169  66.466   9.011  1.00  0.00     0.017 C 
BRANCH  17  18
HETATM   18  C9  UNL     1      29.540  66.672   8.525  1.00  0.00    -0.036 A 
HETATM   19  C10 UNL     1      30.567  66.555   9.407  1.00  0.00     0.011 A 
HETATM   20  C11 UNL     1      31.892  66.750   9.076  1.00  0.00     0.001 A 
HETATM   21  C12 UNL     1      32.242  67.078   7.766  1.00  0.00     0.000 A 
HETATM   22  C13 UNL     1      31.223  67.200   6.865  1.00  0.00     0.001 A 
HETATM   23  C14 UNL     1      29.899  67.002   7.243  1.00  0.00     0.011 A 
ENDBRANCH  17  18
ENDBRANCH   3  16
TORSDOF 9
ENDMDL
