MODEL 1
REMARK VINA RESULT: -7.023954516      0.000      0.000
REMARK  9 active torsions:
REMARK  status: ('A' for Active; 'I' for Inactive)
REMARK    1  A    between atoms: C2_2  and  C4_4 
REMARK    2  A    between atoms: C4_4  and  C5_5 
REMARK    3  A    between atoms: C5_5  and  N1_6 
REMARK    4  A    between atoms: C5_5  and  C13_23 
REMARK       I    between atoms: N1_6  and  C6_8 
REMARK    5  A    between atoms: C6_8  and  C7_10 
REMARK    6  A    between atoms: C7_10  and  C8_11 
REMARK    7  A    between atoms: C7_10  and  N4_19 
REMARK    8  A    between atoms: C8_11  and  C9_12 
REMARK    9  A    between atoms: N4_19  and  C12_21 
ROOT
HETATM    1  C7  UNL     1      28.447  66.524   9.466  1.00  0.00     0.181 C 
ENDROOT
BRANCH   1   2
HETATM    2  C6  UNL     1      28.701  65.207  10.078  1.00  0.00     0.241 C 
HETATM    3  N1  UNL     1      27.703  64.193  10.292  1.00  0.00    -0.346 N 
ATOM      4  H1  UNL     1      26.740  64.376  10.006  1.00  0.00     0.163 HD
HETATM    5  O1  UNL     1      29.861  64.934  10.439  1.00  0.00    -0.271 OA
BRANCH   3   6
HETATM    6  C5  UNL     1      28.025  62.928  10.897  1.00  0.00     0.177 C 
BRANCH   6   7
HETATM    7  C4  UNL     1      27.928  62.839  12.372  1.00  0.00     0.067 C 
BRANCH   7   8
HETATM    8  C2  UNL     1      27.037  63.737  13.078  1.00  0.00    -0.091 C 
HETATM    9  C1  UNL     1      27.525  64.776  13.744  1.00  0.00     0.014 C 
HETATM   10  C3  UNL     1      25.574  63.551  13.077  1.00  0.00     0.042 C 
ENDBRANCH   7   8
ENDBRANCH   6   7
BRANCH   6  11
HETATM   11  C13 UNL     1      27.222  61.856  10.212  1.00  0.00     0.254 C 
HETATM   12  N5  UNL     1      26.223  62.189   9.297  1.00  0.00    -0.060 NA
HETATM   13  O3  UNL     1      27.450  60.667  10.464  1.00  0.00    -0.275 OA
ENDBRANCH   6  11
ENDBRANCH   3   6
ENDBRANCH   1   2
BRANCH   1  14
HETATM   14  C8  UNL     1      29.000  66.595   8.059  1.00  0.00     0.093 C 
BRANCH  14  15
HETATM   15  C9  UNL     1      30.452  66.672   7.951  1.00  0.00     0.028 A 
HETATM   16  C10 UNL     1      31.160  66.444   6.790  1.00  0.00     0.114 A 
HETATM   17  N2  UNL     1      32.466  66.606   7.020  1.00  0.00    -0.360 N 
HETATM   18  C11 UNL     1      32.595  66.934   8.315  1.00  0.00     0.180 A 
ATOM     19  H2  UNL     1      33.220  66.501   6.342  1.00  0.00     0.166 HD
HETATM   20  N3  UNL     1      31.382  66.977   8.890  1.00  0.00    -0.354 N 
ATOM     21  H3  UNL     1      31.193  67.200   9.866  1.00  0.00     0.166 HD
ENDBRANCH  14  15
ENDBRANCH   1  14
BRANCH   1  22
HETATM   22  N4  UNL     1      27.014  66.763   9.311  1.00  0.00    -0.355 N 
ATOM     23  H4  UNL     1      26.488  67.159  10.090  1.00  0.00     0.162 HD
BRANCH  22  24
HETATM   24  C12 UNL     1      26.337  66.458   8.105  1.00  0.00     0.349 C 
HETATM   25  O2  UNL     1      25.907  65.295   7.943  1.00  0.00    -0.284 OA
ENDBRANCH  22  24
ENDBRANCH   1  22
TORSDOF 9
ENDMDL
MODEL 2
REMARK VINA RESULT: -6.920831969      2.644      5.979
REMARK  9 active torsions:
REMARK  status: ('A' for Active; 'I' for Inactive)
REMARK    1  A    between atoms: C2_2  and  C4_4 
REMARK    2  A    between atoms: C4_4  and  C5_5 
REMARK    3  A    between atoms: C5_5  and  N1_6 
REMARK    4  A    between atoms: C5_5  and  C13_23 
REMARK       I    between atoms: N1_6  and  C6_8 
REMARK    5  A    between atoms: C6_8  and  C7_10 
REMARK    6  A    between atoms: C7_10  and  C8_11 
REMARK    7  A    between atoms: C7_10  and  N4_19 
REMARK    8  A    between atoms: C8_11  and  C9_12 
REMARK    9  A    between atoms: N4_19  and  C12_21 
ROOT
HETATM    1  C7  UNL     1      25.213  66.591   9.383  1.00  0.00     0.181 C 
ENDROOT
BRANCH   1   2
HETATM    2  C6  UNL     1      26.549  66.134   8.963  1.00  0.00     0.241 C 
HETATM    3  N1  UNL     1      27.746  66.257   9.752  1.00  0.00    -0.346 N 
ATOM      4  H1  UNL     1      27.690  66.689  10.675  1.00  0.00     0.163 HD
HETATM    5  O1  UNL     1      26.669  65.596   7.846  1.00  0.00    -0.271 OA
BRANCH   3   6
HETATM    6  C5  UNL     1      29.020  65.787   9.276  1.00  0.00     0.177 C 
BRANCH   6   7
HETATM    7  C4  UNL     1      30.084  66.798   9.080  1.00  0.00     0.067 C 
BRANCH   7   8
HETATM    8  C2  UNL     1      30.730  66.904   7.788  1.00  0.00    -0.091 C 
HETATM    9  C1  UNL     1      32.040  67.105   7.709  1.00  0.00     0.014 C 
HETATM   10  C3  UNL     1      29.980  66.782   6.524  1.00  0.00     0.042 C 
ENDBRANCH   7   8
ENDBRANCH   6   7
BRANCH   6  11
HETATM   11  C13 UNL     1      29.471  64.657  10.162  1.00  0.00     0.254 C 
HETATM   12  N5  UNL     1      28.777  63.447  10.181  1.00  0.00    -0.060 NA
HETATM   13  O3  UNL     1      30.466  64.804  10.881  1.00  0.00    -0.275 OA
ENDBRANCH   6  11
ENDBRANCH   3   6
ENDBRANCH   1   2
BRANCH   1  14
HETATM   14  C8  UNL     1      24.510  65.546  10.223  1.00  0.00     0.093 C 
BRANCH  14  15
HETATM   15  C9  UNL     1      24.417  64.216   9.633  1.00  0.00     0.028 A 
HETATM   16  C10 UNL     1      24.800  63.054  10.269  1.00  0.00     0.114 A 
HETATM   17  N2  UNL     1      24.574  62.008   9.469  1.00  0.00    -0.360 N 
HETATM   18  C11 UNL     1      24.053  62.493   8.332  1.00  0.00     0.180 A 
ATOM     19  H2  UNL     1      24.763  61.028   9.681  1.00  0.00     0.166 HD
HETATM   20  N3  UNL     1      23.953  63.830   8.419  1.00  0.00    -0.354 N 
ATOM     21  H3  UNL     1      23.589  64.449   7.695  1.00  0.00     0.166 HD
ENDBRANCH  14  15
ENDBRANCH   1  14
BRANCH   1  22
HETATM   22  N4  UNL     1      25.307  67.761  10.254  1.00  0.00    -0.355 N 
ATOM     23  H4  UNL     1      26.223  68.059  10.589  1.00  0.00     0.162 HD
BRANCH  22  24
HETATM   24  C12 UNL     1      24.158  68.491  10.642  1.00  0.00     0.349 C 
HETATM   25  O2  UNL     1      24.295  69.698  10.943  1.00  0.00    -0.284 OA
ENDBRANCH  22  24
ENDBRANCH   1  22
TORSDOF 9
ENDMDL
MODEL 3
REMARK VINA RESULT: -6.866665585      1.762      2.997
REMARK  9 active torsions:
REMARK  status: ('A' for Active; 'I' for Inactive)
REMARK    1  A    between atoms: C2_2  and  C4_4 
REMARK    2  A    between atoms: C4_4  and  C5_5 
REMARK    3  A    between atoms: C5_5  and  N1_6 
REMARK    4  A    between atoms: C5_5  and  C13_23 
REMARK       I    between atoms: N1_6  and  C6_8 
REMARK    5  A    between atoms: C6_8  and  C7_10 
REMARK    6  A    between atoms: C7_10  and  C8_11 
REMARK    7  A    between atoms: C7_10  and  N4_19 
REMARK    8  A    between atoms: C8_11  and  C9_12 
REMARK    9  A    between atoms: N4_19  and  C12_21 
ROOT
HETATM    1  C7  UNL     1      28.771  66.593   9.906  1.00  0.00     0.181 C 
ENDROOT
BRANCH   1   2
HETATM    2  C6  UNL     1      27.976  65.367  10.092  1.00  0.00     0.241 C 
HETATM    3  N1  UNL     1      28.178  64.406  11.143  1.00  0.00    -0.346 N 
ATOM      4  H1  UNL     1      28.923  64.564  11.823  1.00  0.00     0.163 HD
HETATM    5  O1  UNL     1      27.052  65.131   9.290  1.00  0.00    -0.271 OA
BRANCH   3   6
HETATM    6  C5  UNL     1      27.361  63.228  11.261  1.00  0.00     0.177 C 
BRANCH   6   7
HETATM    7  C4  UNL     1      27.819  62.011  10.552  1.00  0.00     0.067 C 
BRANCH   7   8
HETATM    8  C2  UNL     1      26.889  61.296   9.701  1.00  0.00    -0.091 C 
HETATM    9  C1  UNL     1      27.273  60.192   9.072  1.00  0.00     0.014 C 
HETATM   10  C3  UNL     1      25.497  61.744   9.510  1.00  0.00     0.042 C 
ENDBRANCH   7   8
ENDBRANCH   6   7
BRANCH   6  11
HETATM   11  C13 UNL     1      27.110  62.969  12.722  1.00  0.00     0.254 C 
HETATM   12  N5  UNL     1      25.889  63.305  13.306  1.00  0.00    -0.060 NA
HETATM   13  O3  UNL     1      27.998  62.453  13.412  1.00  0.00    -0.275 OA
ENDBRANCH   6  11
ENDBRANCH   3   6
ENDBRANCH   1   2
BRANCH   1  14
HETATM   14  C8  UNL     1      29.078  66.838   8.444  1.00  0.00     0.093 C 
BRANCH  14  15
HETATM   15  C9  UNL     1      30.486  66.777   8.072  1.00  0.00     0.028 A 
HETATM   16  C10 UNL     1      30.945  66.463   6.810  1.00  0.00     0.114 A 
HETATM   17  N2  UNL     1      32.280  66.507   6.793  1.00  0.00    -0.360 N 
HETATM   18  C11 UNL     1      32.674  66.844   8.030  1.00  0.00     0.180 A 
ATOM     19  H2  UNL     1      32.884  66.319   5.993  1.00  0.00     0.166 HD
HETATM   20  N3  UNL     1      31.596  67.010   8.814  1.00  0.00    -0.354 N 
ATOM     21  H3  UNL     1      31.610  67.268   9.801  1.00  0.00     0.166 HD
ENDBRANCH  14  15
ENDBRANCH   1  14
BRANCH   1  22
HETATM   22  N4  UNL     1      28.022  67.775  10.328  1.00  0.00    -0.355 N 
ATOM     23  H4  UNL     1      27.387  68.223   9.667  1.00  0.00     0.162 HD
BRANCH  22  24
HETATM   24  C12 UNL     1      28.155  68.312  11.631  1.00  0.00     0.349 C 
HETATM   25  O2  UNL     1      29.123  67.940  12.331  1.00  0.00    -0.284 OA
ENDBRANCH  22  24
ENDBRANCH   1  22
TORSDOF 9
ENDMDL
MODEL 4
REMARK VINA RESULT: -6.862793213      1.180      1.265
REMARK  9 active torsions:
REMARK  status: ('A' for Active; 'I' for Inactive)
REMARK    1  A    between atoms: C2_2  and  C4_4 
REMARK    2  A    between atoms: C4_4  and  C5_5 
REMARK    3  A    between atoms: C5_5  and  N1_6 
REMARK    4  A    between atoms: C5_5  and  C13_23 
REMARK       I    between atoms: N1_6  and  C6_8 
REMARK    5  A    between atoms: C6_8  and  C7_10 
REMARK    6  A    between atoms: C7_10  and  C8_11 
REMARK    7  A    between atoms: C7_10  and  N4_19 
REMARK    8  A    between atoms: C8_11  and  C9_12 
REMARK    9  A    between atoms: N4_19  and  C12_21 
ROOT
HETATM    1  C7  UNL     1      28.794  66.707   9.949  1.00  0.00     0.181 C 
ENDROOT
BRANCH   1   2
HETATM    2  C6  UNL     1      28.954  65.328  10.446  1.00  0.00     0.241 C 
HETATM    3  N1  UNL     1      27.880  64.387  10.621  1.00  0.00    -0.346 N 
ATOM      4  H1  UNL     1      26.927  64.673  10.391  1.00  0.00     0.163 HD
HETATM    5  O1  UNL     1      30.098  64.930  10.735  1.00  0.00    -0.271 OA
BRANCH   3   6
HETATM    6  C5  UNL     1      28.111  63.055  11.112  1.00  0.00     0.177 C 
BRANCH   6   7
HETATM    7  C4  UNL     1      27.975  62.838  12.571  1.00  0.00     0.067 C 
BRANCH   7   8
HETATM    8  C2  UNL     1      27.091  63.694  13.334  1.00  0.00    -0.091 C 
HETATM    9  C1  UNL     1      27.591  64.623  14.140  1.00  0.00     0.014 C 
HETATM   10  C3  UNL     1      25.623  63.586  13.243  1.00  0.00     0.042 C 
ENDBRANCH   7   8
ENDBRANCH   6   7
BRANCH   6  11
HETATM   11  C13 UNL     1      27.261  62.102  10.317  1.00  0.00     0.254 C 
HETATM   12  N5  UNL     1      26.334  62.578   9.391  1.00  0.00    -0.060 NA
HETATM   13  O3  UNL     1      27.386  60.883  10.488  1.00  0.00    -0.275 OA
ENDBRANCH   6  11
ENDBRANCH   3   6
ENDBRANCH   1   2
BRANCH   1  14
HETATM   14  C8  UNL     1      29.071  66.795   8.464  1.00  0.00     0.093 C 
BRANCH  14  15
HETATM   15  C9  UNL     1      30.476  66.758   8.077  1.00  0.00     0.028 A 
HETATM   16  C10 UNL     1      30.928  66.458   6.809  1.00  0.00     0.114 A 
HETATM   17  N2  UNL     1      32.262  66.523   6.779  1.00  0.00    -0.360 N 
HETATM   18  C11 UNL     1      32.663  66.861   8.014  1.00  0.00     0.180 A 
ATOM     19  H2  UNL     1      32.861  66.349   5.972  1.00  0.00     0.166 HD
HETATM   20  N3  UNL     1      31.590  67.006   8.810  1.00  0.00    -0.354 N 
ATOM     21  H3  UNL     1      31.610  67.260   9.797  1.00  0.00     0.166 HD
ENDBRANCH  14  15
ENDBRANCH   1  14
BRANCH   1  22
HETATM   22  N4  UNL     1      27.413  67.160  10.093  1.00  0.00    -0.355 N 
ATOM     23  H4  UNL     1      26.802  67.163   9.276  1.00  0.00     0.162 HD
BRANCH  22  24
HETATM   24  C12 UNL     1      26.901  67.595  11.340  1.00  0.00     0.349 C 
HETATM   25  O2  UNL     1      26.087  66.856  11.938  1.00  0.00    -0.284 OA
ENDBRANCH  22  24
ENDBRANCH   1  22
TORSDOF 9
ENDMDL
MODEL 5
REMARK VINA RESULT: -6.721053945      1.849      2.715
REMARK  9 active torsions:
REMARK  status: ('A' for Active; 'I' for Inactive)
REMARK    1  A    between atoms: C2_2  and  C4_4 
REMARK    2  A    between atoms: C4_4  and  C5_5 
REMARK    3  A    between atoms: C5_5  and  N1_6 
REMARK    4  A    between atoms: C5_5  and  C13_23 
REMARK       I    between atoms: N1_6  and  C6_8 
REMARK    5  A    between atoms: C6_8  and  C7_10 
REMARK    6  A    between atoms: C7_10  and  C8_11 
REMARK    7  A    between atoms: C7_10  and  N4_19 
REMARK    8  A    between atoms: C8_11  and  C9_12 
REMARK    9  A    between atoms: N4_19  and  C12_21 
ROOT
HETATM    1  C7  UNL     1      29.667  65.449  10.708  1.00  0.00     0.181 C 
ENDROOT
BRANCH   1   2
HETATM    2  C6  UNL     1      28.618  64.465  10.386  1.00  0.00     0.241 C 
HETATM    3  N1  UNL     1      27.212  64.758  10.306  1.00  0.00    -0.346 N 
ATOM      4  H1  UNL     1      26.892  65.711  10.482  1.00  0.00     0.163 HD
HETATM    5  O1  UNL     1      28.958  63.289  10.159  1.00  0.00    -0.271 OA
BRANCH   3   6
HETATM    6  C5  UNL     1      26.243  63.743   9.986  1.00  0.00     0.177 C 
BRANCH   6   7
HETATM    7  C4  UNL     1      25.440  63.197  11.104  1.00  0.00     0.067 C 
BRANCH   7   8
HETATM    8  C2  UNL     1      25.355  63.941  12.344  1.00  0.00    -0.091 C 
HETATM    9  C1  UNL     1      24.447  64.899  12.488  1.00  0.00     0.014 C 
HETATM   10  C3  UNL     1      26.245  63.665  13.487  1.00  0.00     0.042 C 
ENDBRANCH   7   8
ENDBRANCH   6   7
BRANCH   6  11
HETATM   11  C13 UNL     1      25.378  64.250   8.864  1.00  0.00     0.254 C 
HETATM   12  N5  UNL     1      23.990  64.122   8.922  1.00  0.00    -0.060 NA
HETATM   13  O3  UNL     1      25.903  64.785   7.881  1.00  0.00    -0.275 OA
ENDBRANCH   6  11
ENDBRANCH   3   6
ENDBRANCH   1   2
BRANCH   1  14
HETATM   14  C8  UNL     1      29.582  66.662   9.806  1.00  0.00     0.093 C 
BRANCH  14  15
HETATM   15  C9  UNL     1      30.666  66.813   8.843  1.00  0.00     0.028 A 
HETATM   16  C10 UNL     1      30.484  67.060   7.498  1.00  0.00     0.114 A 
HETATM   17  N2  UNL     1      31.672  67.159   6.894  1.00  0.00    -0.360 N 
HETATM   18  C11 UNL     1      32.606  66.976   7.840  1.00  0.00     0.180 A 
ATOM     19  H2  UNL     1      31.837  67.338   5.904  1.00  0.00     0.166 HD
HETATM   20  N3  UNL     1      32.009  66.766   9.025  1.00  0.00    -0.354 N 
ATOM     21  H3  UNL     1      32.485  66.599   9.911  1.00  0.00     0.166 HD
ENDBRANCH  14  15
ENDBRANCH   1  14
BRANCH   1  22
HETATM   22  N4  UNL     1      29.491  65.981  12.058  1.00  0.00    -0.355 N 
ATOM     23  H4  UNL     1      29.946  65.512  12.841  1.00  0.00     0.162 HD
BRANCH  22  24
HETATM   24  C12 UNL     1      28.706  67.133  12.305  1.00  0.00     0.349 C 
HETATM   25  O2  UNL     1      27.499  66.977  12.598  1.00  0.00    -0.284 OA
ENDBRANCH  22  24
ENDBRANCH   1  22
TORSDOF 9
ENDMDL
