MODEL 1
REMARK VINA RESULT: -7.328300448      0.000      0.000
REMARK  7 active torsions:
REMARK  status: ('A' for Active; 'I' for Inactive)
REMARK    1  A    between atoms: N1_1  and  C1_5 
REMARK    2  A    between atoms: C1_5  and  C2_6 
REMARK    3  A    between atoms: C4_8  and  C5_9 
REMARK    4  A    between atoms: C5_9  and  C6_10 
REMARK    5  A    between atoms: C6_10  and  N2_11 
REMARK    6  A    between atoms: C6_10  and  C8_14 
REMARK       I    between atoms: C8_14  and  N3_16 
REMARK    7  A    between atoms: N3_16  and  C9_18 
ROOT
HETATM    1  N2  UNL     1      26.799  61.487  10.058  1.00  0.00    -0.403 NA
HETATM    2  C7  UNL     1      27.019  60.317   9.222  1.00  0.00     0.436 C 
HETATM    3  O1  UNL     1      27.117  59.508   8.599  1.00  0.00    -0.269 OA
ENDROOT
BRANCH   1   4
HETATM    4  C6  UNL     1      26.573  62.553  10.800  1.00  0.00     0.281 C 
BRANCH   4   5
HETATM    5  C5  UNL     1      27.810  62.834  11.649  1.00  0.00     0.034 C 
BRANCH   5   6
HETATM    6  C4  UNL     1      27.876  63.556  12.887  1.00  0.00    -0.019 A 
HETATM    7  C3  UNL     1      26.988  63.720  13.932  1.00  0.00     0.039 A 
HETATM    8  C2  UNL     1      27.498  64.653  14.841  1.00  0.00     0.035 A 
HETATM    9  N6  UNL     1      28.688  65.056  14.358  1.00  0.00    -0.367 N 
HETATM   10  C13 UNL     1      28.943  64.443  13.222  1.00  0.00     0.099 A 
ATOM     11  H6  UNL     1      29.301  65.737  14.805  1.00  0.00     0.165 HD
BRANCH   8  12
HETATM   12  C1  UNL     1      26.843  65.139  16.102  1.00  0.00     0.286 C 
BRANCH  12  13
HETATM   13  N1  UNL     1      26.497  63.947  16.847  1.00  0.00    -0.074 N 
ATOM     14  H13 UNL     1      27.037  63.125  16.577  1.00  0.00     0.274 HD
ATOM     15  H12 UNL     1      26.798  63.974  17.822  1.00  0.00     0.274 HD
ATOM     16  H11 UNL     1      25.491  63.832  16.732  1.00  0.00     0.274 HD
ENDBRANCH  12  13
ENDBRANCH   8  12
ENDBRANCH   5   6
ENDBRANCH   4   5
BRANCH   4  17
HETATM   17  C8  UNL     1      26.441  63.757   9.770  1.00  0.00     0.261 C 
HETATM   18  O2  UNL     1      25.844  63.671   8.701  1.00  0.00    -0.269 OA
HETATM   19  N3  UNL     1      27.040  64.979  10.194  1.00  0.00    -0.332 N 
ATOM     20  H3  UNL     1      27.529  64.918  11.087  1.00  0.00     0.168 HD
BRANCH  19  21
HETATM   21  C9  UNL     1      27.078  66.246   9.607  1.00  0.00     0.122 C 
HETATM   22  C10 UNL     1      28.113  66.595   8.680  1.00  0.00     0.064 A 
HETATM   23  C11 UNL     1      29.497  66.768   8.999  1.00  0.00     0.119 A 
HETATM   24  N5  UNL     1      27.991  66.805   7.379  1.00  0.00    -0.350 N 
HETATM   25  N4  UNL     1      30.097  67.076   7.855  1.00  0.00    -0.360 N 
HETATM   26  C12 UNL     1      29.154  67.100   6.835  1.00  0.00     0.180 A 
ATOM     27  H4  UNL     1      31.092  67.264   7.743  1.00  0.00     0.166 HD
ATOM     28  H5  UNL     1      27.112  66.745   6.865  1.00  0.00     0.166 HD
ENDBRANCH  19  21
ENDBRANCH   4  17
ENDBRANCH   1   4
TORSDOF 7
ENDMDL
MODEL 2
REMARK VINA RESULT: -7.245748260      3.189      6.826
REMARK  7 active torsions:
REMARK  status: ('A' for Active; 'I' for Inactive)
REMARK    1  A    between atoms: N1_1  and  C1_5 
REMARK    2  A    between atoms: C1_5  and  C2_6 
REMARK    3  A    between atoms: C4_8  and  C5_9 
REMARK    4  A    between atoms: C5_9  and  C6_10 
REMARK    5  A    between atoms: C6_10  and  N2_11 
REMARK    6  A    between atoms: C6_10  and  C8_14 
REMARK       I    between atoms: C8_14  and  N3_16 
REMARK    7  A    between atoms: N3_16  and  C9_18 
ROOT
HETATM    1  N2  UNL     1      25.033  66.826   9.139  1.00  0.00    -0.403 NA
HETATM    2  C7  UNL     1      24.052  67.623   9.860  1.00  0.00     0.436 C 
HETATM    3  O1  UNL     1      23.368  68.142  10.421  1.00  0.00    -0.269 OA
ENDROOT
BRANCH   1   4
HETATM    4  C6  UNL     1      25.924  66.085   8.510  1.00  0.00     0.281 C 
BRANCH   4   5
HETATM    5  C5  UNL     1      27.297  66.332   9.131  1.00  0.00     0.034 C 
BRANCH   5   6
HETATM    6  C4  UNL     1      28.543  66.524   8.447  1.00  0.00    -0.019 A 
HETATM    7  C3  UNL     1      29.860  66.507   8.863  1.00  0.00     0.039 A 
HETATM    8  C2  UNL     1      30.691  66.901   7.808  1.00  0.00     0.035 A 
HETATM    9  N6  UNL     1      29.891  67.155   6.756  1.00  0.00    -0.367 N 
HETATM   10  C13 UNL     1      28.634  66.949   7.087  1.00  0.00     0.099 A 
ATOM     11  H6  UNL     1      30.211  67.462   5.838  1.00  0.00     0.165 HD
BRANCH   8  12
HETATM   12  C1  UNL     1      32.186  67.043   7.840  1.00  0.00     0.286 C 
BRANCH  12  13
HETATM   13  N1  UNL     1      32.677  66.255   6.730  1.00  0.00    -0.074 N 
ATOM     14  H13 UNL     1      32.695  66.761   5.845  1.00  0.00     0.274 HD
ATOM     15  H12 UNL     1      33.678  66.060   6.778  1.00  0.00     0.274 HD
ATOM     16  H11 UNL     1      32.098  65.416   6.710  1.00  0.00     0.274 HD
ENDBRANCH  12  13
ENDBRANCH   8  12
ENDBRANCH   5   6
ENDBRANCH   4   5
BRANCH   4  17
HETATM   17  C8  UNL     1      25.531  64.582   8.853  1.00  0.00     0.261 C 
HETATM   18  O2  UNL     1      24.797  63.897   8.147  1.00  0.00    -0.269 OA
HETATM   19  N3  UNL     1      26.131  64.059  10.035  1.00  0.00    -0.332 N 
ATOM     20  H3  UNL     1      26.699  64.732  10.550  1.00  0.00     0.168 HD
BRANCH  19  21
HETATM   21  C9  UNL     1      26.080  62.790  10.616  1.00  0.00     0.122 C 
HETATM   22  C10 UNL     1      26.375  61.617   9.848  1.00  0.00     0.064 A 
HETATM   23  C11 UNL     1      25.577  61.094   8.781  1.00  0.00     0.119 A 
HETATM   24  N5  UNL     1      27.425  60.821   9.964  1.00  0.00    -0.350 N 
HETATM   25  N4  UNL     1      26.216  60.015   8.346  1.00  0.00    -0.360 N 
HETATM   26  C12 UNL     1      27.378  59.841   9.087  1.00  0.00     0.180 A 
ATOM     27  H4  UNL     1      25.903  59.410   7.587  1.00  0.00     0.166 HD
ATOM     28  H5  UNL     1      28.174  60.951  10.645  1.00  0.00     0.166 HD
ENDBRANCH  19  21
ENDBRANCH   4  17
ENDBRANCH   1   4
TORSDOF 7
ENDMDL
MODEL 3
REMARK VINA RESULT: -7.178329425      2.768      5.245
REMARK  7 active torsions:
REMARK  status: ('A' for Active; 'I' for Inactive)
REMARK    1  A    between atoms: N1_1  and  C1_5 
REMARK    2  A    between atoms: C1_5  and  C2_6 
REMARK    3  A    between atoms: C4_8  and  C5_9 
REMARK    4  A    between atoms: C5_9  and  C6_10 
REMARK    5  A    between atoms: C6_10  and  N2_11 
REMARK    6  A    between atoms: C6_10  and  C8_14 
REMARK       I    between atoms: C8_14  and  N3_16 
REMARK    7  A    between atoms: N3_16  and  C9_18 
ROOT
HETATM    1  N2  UNL     1      28.158  64.678  13.303  1.00  0.00    -0.403 NA
HETATM    2  C7  UNL     1      27.853  65.002  14.688  1.00  0.00     0.436 C 
HETATM    3  O1  UNL     1      27.621  65.294  15.644  1.00  0.00    -0.269 OA
ENDROOT
BRANCH   1   4
HETATM    4  C6  UNL     1      28.428  64.413  12.041  1.00  0.00     0.281 C 
BRANCH   4   5
HETATM    5  C5  UNL     1      27.126  64.067  11.321  1.00  0.00     0.034 C 
BRANCH   5   6
HETATM    6  C4  UNL     1      26.808  62.852  10.627  1.00  0.00    -0.019 A 
HETATM    7  C3  UNL     1      27.573  61.794  10.177  1.00  0.00     0.039 A 
HETATM    8  C2  UNL     1      26.776  60.924   9.425  1.00  0.00     0.035 A 
HETATM    9  N6  UNL     1      25.535  61.444   9.414  1.00  0.00    -0.367 N 
HETATM   10  C13 UNL     1      25.512  62.567  10.101  1.00  0.00     0.099 A 
ATOM     11  H6  UNL     1      24.731  61.030   8.944  1.00  0.00     0.165 HD
BRANCH   8  12
HETATM   12  C1  UNL     1      27.216  59.665   8.735  1.00  0.00     0.286 C 
BRANCH  12  13
HETATM   13  N1  UNL     1      28.608  59.869   8.397  1.00  0.00    -0.074 N 
ATOM     14  H13 UNL     1      28.749  60.502   7.610  1.00  0.00     0.274 HD
ATOM     15  H12 UNL     1      29.120  60.418   9.088  1.00  0.00     0.274 HD
ATOM     16  H11 UNL     1      28.995  58.937   8.247  1.00  0.00     0.274 HD
ENDBRANCH  12  13
ENDBRANCH   8  12
ENDBRANCH   5   6
ENDBRANCH   4   5
BRANCH   4  17
HETATM   17  C8  UNL     1      28.937  65.789  11.426  1.00  0.00     0.261 C 
HETATM   18  O2  UNL     1      29.370  66.714  12.107  1.00  0.00    -0.269 OA
HETATM   19  N3  UNL     1      28.893  65.865  10.004  1.00  0.00    -0.332 N 
ATOM     20  H3  UNL     1      28.489  65.045   9.553  1.00  0.00     0.168 HD
BRANCH  19  21
HETATM   21  C9  UNL     1      29.305  66.862   9.117  1.00  0.00     0.122 C 
HETATM   22  C10 UNL     1      30.545  66.749   8.407  1.00  0.00     0.064 A 
HETATM   23  C11 UNL     1      31.850  66.813   8.991  1.00  0.00     0.119 A 
HETATM   24  N5  UNL     1      30.716  66.551   7.111  1.00  0.00    -0.350 N 
HETATM   25  N4  UNL     1      32.704  66.654   7.987  1.00  0.00    -0.360 N 
HETATM   26  C12 UNL     1      31.994  66.489   6.804  1.00  0.00     0.180 A 
ATOM     27  H4  UNL     1      33.720  66.653   8.071  1.00  0.00     0.166 HD
ATOM     28  H5  UNL     1      29.955  66.458   6.437  1.00  0.00     0.166 HD
ENDBRANCH  19  21
ENDBRANCH   4  17
ENDBRANCH   1   4
TORSDOF 7
ENDMDL
MODEL 4
REMARK VINA RESULT: -7.150899393      2.688      4.904
REMARK  7 active torsions:
REMARK  status: ('A' for Active; 'I' for Inactive)
REMARK    1  A    between atoms: N1_1  and  C1_5 
REMARK    2  A    between atoms: C1_5  and  C2_6 
REMARK    3  A    between atoms: C4_8  and  C5_9 
REMARK    4  A    between atoms: C5_9  and  C6_10 
REMARK    5  A    between atoms: C6_10  and  N2_11 
REMARK    6  A    between atoms: C6_10  and  C8_14 
REMARK       I    between atoms: C8_14  and  N3_16 
REMARK    7  A    between atoms: N3_16  and  C9_18 
ROOT
HETATM    1  N2  UNL     1      27.594  65.438  11.991  1.00  0.00    -0.403 NA
HETATM    2  C7  UNL     1      26.450  66.325  12.133  1.00  0.00     0.436 C 
HETATM    3  O1  UNL     1      25.610  66.900  12.265  1.00  0.00    -0.269 OA
ENDROOT
BRANCH   1   4
HETATM    4  C6  UNL     1      28.615  64.612  11.877  1.00  0.00     0.281 C 
BRANCH   4   5
HETATM    5  C5  UNL     1      28.083  63.186  11.758  1.00  0.00     0.034 C 
BRANCH   5   6
HETATM    6  C4  UNL     1      27.204  62.662  10.752  1.00  0.00    -0.019 A 
HETATM    7  C3  UNL     1      25.960  63.048  10.292  1.00  0.00     0.039 A 
HETATM    8  C2  UNL     1      25.477  62.095   9.388  1.00  0.00     0.035 A 
HETATM    9  N6  UNL     1      26.416  61.136   9.294  1.00  0.00    -0.367 N 
HETATM   10  C13 UNL     1      27.436  61.428  10.073  1.00  0.00     0.099 A 
ATOM     11  H6  UNL     1      26.348  60.306   8.707  1.00  0.00     0.165 HD
BRANCH   8  12
HETATM   12  C1  UNL     1      24.155  62.115   8.675  1.00  0.00     0.286 C 
BRANCH  12  13
HETATM   13  N1  UNL     1      23.894  63.507   8.373  1.00  0.00    -0.074 N 
ATOM     14  H13 UNL     1      23.133  63.907   8.921  1.00  0.00     0.274 HD
ATOM     15  H12 UNL     1      24.625  64.140   8.699  1.00  0.00     0.274 HD
ATOM     16  H11 UNL     1      23.738  63.546   7.366  1.00  0.00     0.274 HD
ENDBRANCH  12  13
ENDBRANCH   8  12
ENDBRANCH   5   6
ENDBRANCH   4   5
BRANCH   4  17
HETATM   17  C8  UNL     1      29.285  64.968  10.480  1.00  0.00     0.261 C 
HETATM   18  O2  UNL     1      29.922  64.161   9.810  1.00  0.00    -0.269 OA
HETATM   19  N3  UNL     1      29.061  66.300  10.027  1.00  0.00    -0.332 N 
ATOM     20  H3  UNL     1      28.540  66.883  10.683  1.00  0.00     0.168 HD
BRANCH  19  21
HETATM   21  C9  UNL     1      29.426  66.952   8.847  1.00  0.00     0.122 C 
HETATM   22  C10 UNL     1      30.692  66.697   8.228  1.00  0.00     0.064 A 
HETATM   23  C11 UNL     1      31.970  67.067   8.755  1.00  0.00     0.119 A 
HETATM   24  N5  UNL     1      30.917  66.073   7.084  1.00  0.00    -0.350 N 
HETATM   25  N4  UNL     1      32.864  66.635   7.875  1.00  0.00    -0.360 N 
HETATM   26  C12 UNL     1      32.206  66.009   6.823  1.00  0.00     0.180 A 
ATOM     27  H4  UNL     1      33.874  66.744   7.957  1.00  0.00     0.166 HD
ATOM     28  H5  UNL     1      30.187  65.689   6.483  1.00  0.00     0.166 HD
ENDBRANCH  19  21
ENDBRANCH   4  17
ENDBRANCH   1   4
TORSDOF 7
ENDMDL
MODEL 5
REMARK VINA RESULT: -7.111120346      2.080      6.336
REMARK  7 active torsions:
REMARK  status: ('A' for Active; 'I' for Inactive)
REMARK    1  A    between atoms: N1_1  and  C1_5 
REMARK    2  A    between atoms: C1_5  and  C2_6 
REMARK    3  A    between atoms: C4_8  and  C5_9 
REMARK    4  A    between atoms: C5_9  and  C6_10 
REMARK    5  A    between atoms: C6_10  and  N2_11 
REMARK    6  A    between atoms: C6_10  and  C8_14 
REMARK       I    between atoms: C8_14  and  N3_16 
REMARK    7  A    between atoms: N3_16  and  C9_18 
ROOT
HETATM    1  N2  UNL     1      24.561  65.601   8.520  1.00  0.00    -0.403 NA
HETATM    2  C7  UNL     1      23.176  65.974   8.767  1.00  0.00     0.436 C 
HETATM    3  O1  UNL     1      22.195  66.181   8.981  1.00  0.00    -0.269 OA
ENDROOT
BRANCH   1   4
HETATM    4  C6  UNL     1      25.810  65.237   8.314  1.00  0.00     0.281 C 
BRANCH   4   5
HETATM    5  C5  UNL     1      26.706  66.469   8.420  1.00  0.00     0.034 C 
BRANCH   5   6
HETATM    6  C4  UNL     1      28.090  66.578   8.055  1.00  0.00    -0.019 A 
HETATM    7  C3  UNL     1      29.264  66.521   8.780  1.00  0.00     0.039 A 
HETATM    8  C2  UNL     1      30.345  66.835   7.948  1.00  0.00     0.035 A 
HETATM    9  N6  UNL     1      29.837  67.080   6.726  1.00  0.00    -0.367 N 
HETATM   10  C13 UNL     1      28.529  66.942   6.747  1.00  0.00     0.099 A 
ATOM     11  H6  UNL     1      30.386  67.334   5.905  1.00  0.00     0.165 HD
BRANCH   8  12
HETATM   12  C1  UNL     1      31.793  66.913   8.339  1.00  0.00     0.286 C 
BRANCH  12  13
HETATM   13  N1  UNL     1      32.538  66.529   7.159  1.00  0.00    -0.074 N 
ATOM     14  H13 UNL     1      33.536  66.405   7.329  1.00  0.00     0.274 HD
ATOM     15  H12 UNL     1      32.348  65.575   6.849  1.00  0.00     0.274 HD
ATOM     16  H11 UNL     1      32.327  67.237   6.457  1.00  0.00     0.274 HD
ENDBRANCH  12  13
ENDBRANCH   8  12
ENDBRANCH   5   6
ENDBRANCH   4   5
BRANCH   4  17
HETATM   17  C8  UNL     1      26.179  64.297   9.543  1.00  0.00     0.261 C 
HETATM   18  O2  UNL     1      26.738  63.211   9.421  1.00  0.00    -0.269 OA
HETATM   19  N3  UNL     1      25.847  64.825  10.825  1.00  0.00    -0.332 N 
ATOM     20  H3  UNL     1      25.363  65.722  10.795  1.00  0.00     0.168 HD
BRANCH  19  21
HETATM   21  C9  UNL     1      26.066  64.335  12.114  1.00  0.00     0.122 C 
HETATM   22  C10 UNL     1      27.323  64.533  12.772  1.00  0.00     0.064 A 
HETATM   23  C11 UNL     1      28.567  63.931  12.397  1.00  0.00     0.119 A 
HETATM   24  N5  UNL     1      27.572  65.304  13.817  1.00  0.00    -0.350 N 
HETATM   25  N4  UNL     1      29.466  64.390  13.259  1.00  0.00    -0.360 N 
HETATM   26  C12 UNL     1      28.844  65.253  14.154  1.00  0.00     0.180 A 
ATOM     27  H4  UNL     1      30.456  64.147  13.265  1.00  0.00     0.166 HD
ATOM     28  H5  UNL     1      26.870  65.866  14.300  1.00  0.00     0.166 HD
ENDBRANCH  19  21
ENDBRANCH   4  17
ENDBRANCH   1   4
TORSDOF 7
ENDMDL
