MODEL 1
REMARK VINA RESULT: -6.285511160      0.000      0.000
REMARK  3 active torsions:
REMARK  status: ('A' for Active; 'I' for Inactive)
REMARK       I    between atoms: C1_4  and  N3_6 
REMARK    1  A    between atoms: N3_6  and  C2_8 
REMARK    2  A    between atoms: C2_8  and  N4_9 
REMARK    3  A    between atoms: N4_9  and  C3_11 
ROOT
HETATM    1  C2  UNL     1      28.715  65.079  10.339  1.00  0.00     0.156 C 
HETATM    2  C6  UNL     1      28.023  65.903   9.288  1.00  0.00     0.287 C 
HETATM    3  N7  UNL     1      27.716  66.870  10.348  1.00  0.00    -0.067 N 
ATOM      4  H71 UNL     1      26.834  66.840  10.859  1.00  0.00     0.277 HD
ATOM      5  H72 UNL     1      27.522  67.849  10.138  1.00  0.00     0.277 HD
HETATM    6  C7  UNL     1      28.982  66.450  10.969  1.00  0.00     0.287 C 
ENDROOT
BRANCH   1   7
HETATM    7  N3  UNL     1      27.834  64.244  11.080  1.00  0.00    -0.335 N 
HETATM    8  C1  UNL     1      28.266  63.583  12.251  1.00  0.00     0.183 C 
HETATM    9  N1  UNL     1      29.214  64.069  12.962  1.00  0.00    -0.374 N 
HETATM   10  N2  UNL     1      27.646  62.371  12.648  1.00  0.00    -0.064 NA
ATOM     11  H12 UNL     1      29.525  63.592  13.808  1.00  0.00     0.158 HD
ATOM     12  H11 UNL     1      29.659  64.941  12.677  1.00  0.00     0.158 HD
ATOM     13  H3  UNL     1      26.874  64.120  10.760  1.00  0.00     0.164 HD
ENDBRANCH   1   7
BRANCH   1  14
HETATM   14  N4  UNL     1      29.925  64.430   9.932  1.00  0.00    -0.333 N 
ATOM     15  H4  UNL     1      30.217  63.547  10.353  1.00  0.00     0.165 HD
BRANCH  14  16
HETATM   16  C3  UNL     1      30.707  65.060   8.920  1.00  0.00     0.173 C 
HETATM   17  N5  UNL     1      30.406  65.241   7.678  1.00  0.00    -0.361 N 
HETATM   18  C4  UNL     1      31.445  65.917   6.954  1.00  0.00     0.142 C 
ATOM     19  H5  UNL     1      29.528  64.938   7.258  1.00  0.00     0.162 HD
HETATM   20  C5  UNL     1      32.339  66.449   8.051  1.00  0.00     0.142 C 
HETATM   21  N6  UNL     1      31.993  65.603   9.165  1.00  0.00    -0.361 N 
ATOM     22  H6  UNL     1      32.572  65.425   9.986  1.00  0.00     0.162 HD
ENDBRANCH  14  16
ENDBRANCH   1  14
TORSDOF 3
ENDMDL
MODEL 2
REMARK VINA RESULT: -6.192432484      0.984      1.105
REMARK  3 active torsions:
REMARK  status: ('A' for Active; 'I' for Inactive)
REMARK       I    between atoms: C1_4  and  N3_6 
REMARK    1  A    between atoms: N3_6  and  C2_8 
REMARK    2  A    between atoms: C2_8  and  N4_9 
REMARK    3  A    between atoms: N4_9  and  C3_11 
ROOT
HETATM    1  C2  UNL     1      28.880  65.263  10.894  1.00  0.00     0.156 C 
HETATM    2  C6  UNL     1      28.528  66.663  10.475  1.00  0.00     0.287 C 
HETATM    3  N7  UNL     1      27.754  66.767  11.717  1.00  0.00    -0.067 N 
ATOM      4  H71 UNL     1      26.756  66.558  11.743  1.00  0.00     0.277 HD
ATOM      5  H72 UNL     1      27.542  67.669  12.141  1.00  0.00     0.277 HD
HETATM    6  C7  UNL     1      28.748  65.853  12.302  1.00  0.00     0.287 C 
ENDROOT
BRANCH   1   7
HETATM    7  N3  UNL     1      27.890  64.301  10.555  1.00  0.00    -0.335 N 
HETATM    8  C1  UNL     1      27.806  63.066  11.237  1.00  0.00     0.183 C 
HETATM    9  N1  UNL     1      28.218  62.960  12.445  1.00  0.00    -0.374 N 
HETATM   10  N2  UNL     1      27.262  61.933  10.582  1.00  0.00    -0.064 NA
ATOM     11  H12 UNL     1      28.157  62.068  12.937  1.00  0.00     0.158 HD
ATOM     12  H11 UNL     1      28.609  63.775  12.916  1.00  0.00     0.158 HD
ATOM     13  H3  UNL     1      27.227  64.505   9.807  1.00  0.00     0.164 HD
ENDBRANCH   1   7
BRANCH   1  14
HETATM   14  N4  UNL     1      30.219  64.841  10.612  1.00  0.00    -0.333 N 
ATOM     15  H4  UNL     1      30.741  64.265  11.274  1.00  0.00     0.165 HD
BRANCH  14  16
HETATM   16  C3  UNL     1      30.798  65.252   9.376  1.00  0.00     0.173 C 
HETATM   17  N5  UNL     1      30.265  65.229   8.201  1.00  0.00    -0.361 N 
HETATM   18  C4  UNL     1      31.151  65.725   7.185  1.00  0.00     0.142 C 
ATOM     19  H5  UNL     1      29.319  64.897   8.014  1.00  0.00     0.162 HD
HETATM   20  C5  UNL     1      32.245  66.398   7.983  1.00  0.00     0.142 C 
HETATM   21  N6  UNL     1      32.112  65.773   9.274  1.00  0.00    -0.361 N 
ATOM     22  H6  UNL     1      32.837  65.714   9.990  1.00  0.00     0.162 HD
ENDBRANCH  14  16
ENDBRANCH   1  14
TORSDOF 3
ENDMDL
MODEL 3
REMARK VINA RESULT: -5.837885521      1.197      4.827
REMARK  3 active torsions:
REMARK  status: ('A' for Active; 'I' for Inactive)
REMARK       I    between atoms: C1_4  and  N3_6 
REMARK    1  A    between atoms: N3_6  and  C2_8 
REMARK    2  A    between atoms: C2_8  and  N4_9 
REMARK    3  A    between atoms: N4_9  and  C3_11 
ROOT
HETATM    1  C2  UNL     1      28.951  65.397  10.073  1.00  0.00     0.156 C 
HETATM    2  C6  UNL     1      29.011  66.427  11.167  1.00  0.00     0.287 C 
HETATM    3  N7  UNL     1      28.093  67.238  10.360  1.00  0.00    -0.067 N 
ATOM      4  H71 UNL     1      28.435  67.950   9.715  1.00  0.00     0.277 HD
ATOM      5  H72 UNL     1      27.500  67.953  10.781  1.00  0.00     0.277 HD
HETATM    6  C7  UNL     1      27.540  65.962   9.877  1.00  0.00     0.287 C 
ENDROOT
BRANCH   1   7
HETATM    7  N3  UNL     1      29.849  65.652   9.001  1.00  0.00    -0.335 N 
HETATM    8  C1  UNL     1      31.249  65.587   9.186  1.00  0.00     0.183 C 
HETATM    9  N1  UNL     1      31.750  64.836  10.094  1.00  0.00    -0.374 N 
HETATM   10  N2  UNL     1      32.107  66.357   8.363  1.00  0.00    -0.064 NA
ATOM     11  H12 UNL     1      32.761  64.788  10.228  1.00  0.00     0.158 HD
ATOM     12  H11 UNL     1      31.132  64.281  10.686  1.00  0.00     0.158 HD
ATOM     13  H3  UNL     1      29.477  65.887   8.080  1.00  0.00     0.164 HD
ENDBRANCH   1   7
BRANCH   1  14
HETATM   14  N4  UNL     1      28.928  64.030  10.498  1.00  0.00    -0.333 N 
ATOM     15  H4  UNL     1      29.475  63.318  10.014  1.00  0.00     0.165 HD
BRANCH  14  16
HETATM   16  C3  UNL     1      28.113  63.698  11.619  1.00  0.00     0.173 C 
HETATM   17  N5  UNL     1      26.833  63.533  11.653  1.00  0.00    -0.361 N 
HETATM   18  C4  UNL     1      26.356  63.204  12.967  1.00  0.00     0.142 C 
ATOM     19  H5  UNL     1      26.228  63.625  10.837  1.00  0.00     0.162 HD
HETATM   20  C5  UNL     1      27.621  62.848  13.713  1.00  0.00     0.142 C 
HETATM   21  N6  UNL     1      28.636  63.494  12.920  1.00  0.00    -0.361 N 
ATOM     22  H6  UNL     1      29.569  63.758  13.239  1.00  0.00     0.162 HD
ENDBRANCH  14  16
ENDBRANCH   1  14
TORSDOF 3
ENDMDL
MODEL 4
REMARK VINA RESULT: -5.798118361      2.340      5.157
REMARK  3 active torsions:
REMARK  status: ('A' for Active; 'I' for Inactive)
REMARK       I    between atoms: C1_4  and  N3_6 
REMARK    1  A    between atoms: N3_6  and  C2_8 
REMARK    2  A    between atoms: C2_8  and  N4_9 
REMARK    3  A    between atoms: N4_9  and  C3_11 
ROOT
HETATM    1  C2  UNL     1      27.970  64.076  11.976  1.00  0.00     0.156 C 
HETATM    2  C6  UNL     1      28.116  62.970  12.984  1.00  0.00     0.287 C 
HETATM    3  N7  UNL     1      29.255  63.714  13.533  1.00  0.00    -0.067 N 
ATOM      4  H71 UNL     1      30.211  63.524  13.235  1.00  0.00     0.277 HD
ATOM      5  H72 UNL     1      29.566  63.583  14.496  1.00  0.00     0.277 HD
HETATM    6  C7  UNL     1      28.543  64.931  13.112  1.00  0.00     0.287 C 
ENDROOT
BRANCH   1   7
HETATM    7  N3  UNL     1      28.823  63.935  10.848  1.00  0.00    -0.335 N 
HETATM    8  C1  UNL     1      29.175  65.049  10.053  1.00  0.00     0.183 C 
HETATM    9  N1  UNL     1      29.197  66.227  10.555  1.00  0.00    -0.374 N 
HETATM   10  N2  UNL     1      29.508  64.866   8.687  1.00  0.00    -0.064 NA
ATOM     11  H12 UNL     1      29.451  67.031   9.981  1.00  0.00     0.158 HD
ATOM     12  H11 UNL     1      28.957  66.358  11.538  1.00  0.00     0.158 HD
ATOM     13  H3  UNL     1      29.188  63.013  10.608  1.00  0.00     0.164 HD
ENDBRANCH   1   7
BRANCH   1  14
HETATM   14  N4  UNL     1      26.628  64.452  11.646  1.00  0.00    -0.333 N 
ATOM     15  H4  UNL     1      26.206  65.295  12.034  1.00  0.00     0.165 HD
BRANCH  14  16
HETATM   16  C3  UNL     1      25.904  63.608  10.754  1.00  0.00     0.173 C 
HETATM   17  N5  UNL     1      25.440  62.424  10.978  1.00  0.00    -0.361 N 
HETATM   18  C4  UNL     1      24.760  61.876   9.838  1.00  0.00     0.142 C 
ATOM     19  H5  UNL     1      25.544  61.934  11.866  1.00  0.00     0.162 HD
HETATM   20  C5  UNL     1      24.573  63.076   8.939  1.00  0.00     0.142 C 
HETATM   21  N6  UNL     1      25.580  63.984   9.427  1.00  0.00    -0.361 N 
ATOM     22  H6  UNL     1      25.989  64.761   8.908  1.00  0.00     0.162 HD
ENDBRANCH  14  16
ENDBRANCH   1  14
TORSDOF 3
ENDMDL
MODEL 5
REMARK VINA RESULT: -5.756892943      1.398      2.128
REMARK  3 active torsions:
REMARK  status: ('A' for Active; 'I' for Inactive)
REMARK       I    between atoms: C1_4  and  N3_6 
REMARK    1  A    between atoms: N3_6  and  C2_8 
REMARK    2  A    between atoms: C2_8  and  N4_9 
REMARK    3  A    between atoms: N4_9  and  C3_11 
ROOT
HETATM    1  C2  UNL     1      28.655  65.084  10.756  1.00  0.00     0.156 C 
HETATM    2  C6  UNL     1      28.933  66.503  11.168  1.00  0.00     0.287 C 
HETATM    3  N7  UNL     1      28.268  66.192  12.438  1.00  0.00    -0.067 N 
ATOM      4  H71 UNL     1      27.276  66.380  12.582  1.00  0.00     0.277 HD
ATOM      5  H72 UNL     1      28.457  66.728  13.286  1.00  0.00     0.277 HD
HETATM    6  C7  UNL     1      28.777  64.823  12.262  1.00  0.00     0.287 C 
ENDROOT
BRANCH   1   7
HETATM    7  N3  UNL     1      27.352  64.890  10.222  1.00  0.00    -0.335 N 
HETATM    8  C1  UNL     1      26.760  63.608  10.183  1.00  0.00     0.183 C 
HETATM    9  N1  UNL     1      27.092  62.712  11.035  1.00  0.00    -0.374 N 
HETATM   10  N2  UNL     1      25.790  63.307   9.194  1.00  0.00    -0.064 NA
ATOM     11  H12 UNL     1      26.664  61.786  11.007  1.00  0.00     0.158 HD
ATOM     12  H11 UNL     1      27.789  62.928  11.747  1.00  0.00     0.158 HD
ATOM     13  H3  UNL     1      26.835  65.692   9.860  1.00  0.00     0.164 HD
ENDBRANCH   1   7
BRANCH   1  14
HETATM   14  N4  UNL     1      29.690  64.430  10.013  1.00  0.00    -0.333 N 
ATOM     15  H4  UNL     1      29.868  63.432  10.122  1.00  0.00     0.165 HD
BRANCH  14  16
HETATM   16  C3  UNL     1      30.462  65.224   9.114  1.00  0.00     0.173 C 
HETATM   17  N5  UNL     1      31.717  65.515   9.186  1.00  0.00    -0.361 N 
HETATM   18  C4  UNL     1      32.152  66.342   8.096  1.00  0.00     0.142 C 
ATOM     19  H5  UNL     1      32.332  65.194   9.934  1.00  0.00     0.162 HD
HETATM   20  C5  UNL     1      31.008  66.246   7.113  1.00  0.00     0.142 C 
HETATM   21  N6  UNL     1      29.916  65.828   7.955  1.00  0.00    -0.361 N 
ATOM     22  H6  UNL     1      28.923  65.947   7.752  1.00  0.00     0.162 HD
ENDBRANCH  14  16
ENDBRANCH   1  14
TORSDOF 3
ENDMDL
