MODEL 1
REMARK VINA RESULT: -7.017263938      0.000      0.000
REMARK  2 active torsions:
REMARK  status: ('A' for Active; 'I' for Inactive)
REMARK       I    between atoms: C1_4  and  N2_5 
REMARK       I    between atoms: C1_4  and  N4_10 
REMARK    1  A    between atoms: N2_5  and  N3_7 
REMARK    2  A    between atoms: C4_17  and  N7_18 
ROOT
HETATM    1  N1  UNL     1      28.159  63.160  11.044  1.00  0.00    -0.233 N 
ATOM      2  H11 UNL     1      28.175  62.689  10.139  1.00  0.00     0.174 HD
ATOM      3  H12 UNL     1      28.205  62.656  11.929  1.00  0.00     0.174 HD
HETATM    4  C1  UNL     1      28.078  64.440  11.097  1.00  0.00     0.698 C 
HETATM    5  N2  UNL     1      28.056  65.091  12.349  1.00  0.00    -0.138 N 
ATOM      6  H2  UNL     1      28.483  64.654  13.166  1.00  0.00     0.205 HD
HETATM    7  N4  UNL     1      28.014  65.140   9.867  1.00  0.00    -0.133 N 
HETATM    8  C2  UNL     1      26.858  65.546   9.277  1.00  0.00     0.209 A 
HETATM    9  N5  UNL     1      27.224  66.160   8.149  1.00  0.00    -0.335 N 
ATOM     10  H5  UNL     1      26.567  66.575   7.488  1.00  0.00     0.168 HD
HETATM   11  C3  UNL     1      28.551  66.171   7.984  1.00  0.00     0.155 A 
HETATM   12  N6  UNL     1      29.419  66.632   7.072  1.00  0.00    -0.174 N 
ATOM     13  H6  UNL     1      29.050  67.118   6.254  1.00  0.00     0.186 HD
HETATM   14  C4  UNL     1      30.751  66.488   7.180  1.00  0.00     0.680 A 
HETATM   15  N8  UNL     1      31.234  65.851   8.254  1.00  0.00    -0.154 N 
ATOM     16  H8  UNL     1      32.243  65.732   8.352  1.00  0.00     0.187 HD
HETATM   17  C5  UNL     1      30.420  65.365   9.202  1.00  0.00     0.291 A 
HETATM   18  O1  UNL     1      30.916  64.779  10.186  1.00  0.00    -0.265 OA
HETATM   19  C6  UNL     1      29.054  65.512   9.094  1.00  0.00     0.170 A 
ENDROOT
BRANCH   5  20
HETATM   20  N3  UNL     1      27.434  66.360  12.456  1.00  0.00    -0.331 N 
ATOM     21  H32 UNL     1      26.606  66.562  11.895  1.00  0.00     0.177 HD
ATOM     22  H31 UNL     1      27.825  67.052  13.095  1.00  0.00     0.177 HD
ENDBRANCH   5  20
BRANCH  14  23
HETATM   23  N7  UNL     1      31.563  66.948   6.277  1.00  0.00    -0.234 N 
ATOM     24  H72 UNL     1      31.199  67.275   5.382  1.00  0.00     0.174 HD
ATOM     25  H71 UNL     1      32.570  66.995   6.435  1.00  0.00     0.174 HD
ENDBRANCH  14  23
TORSDOF 2
ENDMDL
MODEL 2
REMARK VINA RESULT: -6.954285243      1.347      1.484
REMARK  2 active torsions:
REMARK  status: ('A' for Active; 'I' for Inactive)
REMARK       I    between atoms: C1_4  and  N2_5 
REMARK       I    between atoms: C1_4  and  N4_10 
REMARK    1  A    between atoms: N2_5  and  N3_7 
REMARK    2  A    between atoms: C4_17  and  N7_18 
ROOT
HETATM    1  N1  UNL     1      26.941  63.902  10.289  1.00  0.00    -0.233 N 
ATOM      2  H11 UNL     1      27.327  63.253   9.603  1.00  0.00     0.174 HD
ATOM      3  H12 UNL     1      26.432  63.593  11.117  1.00  0.00     0.174 HD
HETATM    4  C1  UNL     1      27.088  65.167  10.125  1.00  0.00     0.698 C 
HETATM    5  N2  UNL     1      26.554  66.065  11.074  1.00  0.00    -0.138 N 
ATOM      6  H2  UNL     1      26.412  65.771  12.040  1.00  0.00     0.205 HD
HETATM    7  N4  UNL     1      27.795  65.596   8.975  1.00  0.00    -0.133 N 
HETATM    8  C2  UNL     1      27.205  65.974   7.810  1.00  0.00     0.209 A 
HETATM    9  N5  UNL     1      28.205  66.303   6.988  1.00  0.00    -0.335 N 
ATOM     10  H5  UNL     1      28.069  66.629   6.031  1.00  0.00     0.168 HD
HETATM   11  C3  UNL     1      29.403  66.156   7.561  1.00  0.00     0.155 A 
HETATM   12  N6  UNL     1      30.685  66.333   7.207  1.00  0.00    -0.174 N 
ATOM     13  H6  UNL     1      30.885  66.668   6.265  1.00  0.00     0.186 HD
HETATM   14  C4  UNL     1      31.719  66.092   8.031  1.00  0.00     0.680 A 
HETATM   15  N8  UNL     1      31.455  65.652   9.268  1.00  0.00    -0.154 N 
ATOM     16  H8  UNL     1      32.228  65.464   9.907  1.00  0.00     0.187 HD
HETATM   17  C5  UNL     1      30.195  65.454   9.683  1.00  0.00     0.291 A 
HETATM   18  O1  UNL     1      29.998  65.043  10.846  1.00  0.00    -0.265 OA
HETATM   19  C6  UNL     1      29.134  65.700   8.841  1.00  0.00     0.170 A 
ENDROOT
BRANCH   5  20
HETATM   20  N3  UNL     1      26.218  67.380  10.666  1.00  0.00    -0.331 N 
ATOM     21  H32 UNL     1      26.319  67.642   9.685  1.00  0.00     0.177 HD
ATOM     22  H31 UNL     1      25.879  68.044  11.362  1.00  0.00     0.177 HD
ENDBRANCH   5  20
BRANCH  14  23
HETATM   23  N7  UNL     1      32.949  66.276   7.655  1.00  0.00    -0.234 N 
ATOM     24  H72 UNL     1      33.222  67.153   7.213  1.00  0.00     0.174 HD
ATOM     25  H71 UNL     1      33.663  65.560   7.790  1.00  0.00     0.174 HD
ENDBRANCH  14  23
TORSDOF 2
ENDMDL
MODEL 3
REMARK VINA RESULT: -6.894306004      1.762      2.800
REMARK  2 active torsions:
REMARK  status: ('A' for Active; 'I' for Inactive)
REMARK       I    between atoms: C1_4  and  N2_5 
REMARK       I    between atoms: C1_4  and  N4_10 
REMARK    1  A    between atoms: N2_5  and  N3_7 
REMARK    2  A    between atoms: C4_17  and  N7_18 
ROOT
HETATM    1  N1  UNL     1      26.256  66.724   9.954  1.00  0.00    -0.233 N 
ATOM      2  H11 UNL     1      26.827  67.565  10.045  1.00  0.00     0.174 HD
ATOM      3  H12 UNL     1      25.240  66.753   9.870  1.00  0.00     0.174 HD
HETATM    4  C1  UNL     1      26.816  65.569   9.945  1.00  0.00     0.698 C 
HETATM    5  N2  UNL     1      26.026  64.406   9.820  1.00  0.00    -0.138 N 
ATOM      6  H2  UNL     1      25.118  64.447   9.358  1.00  0.00     0.205 HD
HETATM    7  N4  UNL     1      28.227  65.528  10.062  1.00  0.00    -0.133 N 
HETATM    8  C2  UNL     1      28.893  65.338  11.233  1.00  0.00     0.209 A 
HETATM    9  N5  UNL     1      30.191  65.366  10.919  1.00  0.00    -0.335 N 
ATOM     10  H5  UNL     1      30.942  65.249  11.599  1.00  0.00     0.168 HD
HETATM   11  C3  UNL     1      30.394  65.564   9.613  1.00  0.00     0.155 A 
HETATM   12  N6  UNL     1      31.450  65.675   8.793  1.00  0.00    -0.174 N 
ATOM     13  H6  UNL     1      32.385  65.599   9.195  1.00  0.00     0.186 HD
HETATM   14  C4  UNL     1      31.340  65.881   7.470  1.00  0.00     0.680 A 
HETATM   15  N8  UNL     1      30.112  65.982   6.944  1.00  0.00    -0.154 N 
ATOM     16  H8  UNL     1      30.010  66.139   5.941  1.00  0.00     0.187 HD
HETATM   17  C5  UNL     1      29.016  65.881   7.709  1.00  0.00     0.291 A 
HETATM   18  O1  UNL     1      27.892  65.980   7.174  1.00  0.00    -0.265 OA
HETATM   19  C6  UNL     1      29.126  65.669   9.066  1.00  0.00     0.170 A 
ENDROOT
BRANCH   5  20
HETATM   20  N3  UNL     1      26.511  63.183  10.344  1.00  0.00    -0.331 N 
ATOM     21  H32 UNL     1      25.850  62.455  10.615  1.00  0.00     0.177 HD
ATOM     22  H31 UNL     1      27.518  63.049  10.443  1.00  0.00     0.177 HD
ENDBRANCH   5  20
BRANCH  14  23
HETATM   23  N7  UNL     1      32.385  65.984   6.705  1.00  0.00    -0.234 N 
ATOM     24  H72 UNL     1      32.645  66.889   6.315  1.00  0.00     0.174 HD
ATOM     25  H71 UNL     1      32.965  65.175   6.479  1.00  0.00     0.174 HD
ENDBRANCH  14  23
TORSDOF 2
ENDMDL
MODEL 4
REMARK VINA RESULT: -6.636800728      4.564      5.249
REMARK  2 active torsions:
REMARK  status: ('A' for Active; 'I' for Inactive)
REMARK       I    between atoms: C1_4  and  N2_5 
REMARK       I    between atoms: C1_4  and  N4_10 
REMARK    1  A    between atoms: N2_5  and  N3_7 
REMARK    2  A    between atoms: C4_17  and  N7_18 
ROOT
HETATM    1  N1  UNL     1      27.844  62.069  13.952  1.00  0.00    -0.233 N 
ATOM      2  H11 UNL     1      26.950  61.596  14.085  1.00  0.00     0.174 HD
ATOM      3  H12 UNL     1      28.723  61.702  14.316  1.00  0.00     0.174 HD
HETATM    4  C1  UNL     1      27.891  63.177  13.304  1.00  0.00     0.698 C 
HETATM    5  N2  UNL     1      29.128  63.832  13.121  1.00  0.00    -0.138 N 
ATOM      6  H2  UNL     1      29.999  63.301  13.128  1.00  0.00     0.205 HD
HETATM    7  N4  UNL     1      26.670  63.687  12.798  1.00  0.00    -0.133 N 
HETATM    8  C2  UNL     1      25.908  64.617  13.433  1.00  0.00     0.209 A 
HETATM    9  N5  UNL     1      24.855  64.826  12.638  1.00  0.00    -0.335 N 
ATOM     10  H5  UNL     1      24.102  65.479  12.852  1.00  0.00     0.168 HD
HETATM   11  C3  UNL     1      24.901  64.082  11.528  1.00  0.00     0.155 A 
HETATM   12  N6  UNL     1      24.139  63.902  10.439  1.00  0.00    -0.174 N 
ATOM     13  H6  UNL     1      23.276  64.439  10.358  1.00  0.00     0.186 HD
HETATM   14  C4  UNL     1      24.454  63.049   9.449  1.00  0.00     0.680 A 
HETATM   15  N8  UNL     1      25.587  62.343   9.558  1.00  0.00    -0.154 N 
ATOM     16  H8  UNL     1      25.842  61.691   8.816  1.00  0.00     0.187 HD
HETATM   17  C5  UNL     1      26.393  62.476  10.621  1.00  0.00     0.291 A 
HETATM   18  O1  UNL     1      27.439  61.798  10.678  1.00  0.00    -0.265 OA
HETATM   19  C6  UNL     1      26.072  63.349  11.637  1.00  0.00     0.170 A 
ENDROOT
BRANCH   5  20
HETATM   20  N3  UNL     1      29.143  65.236  12.927  1.00  0.00    -0.331 N 
ATOM     21  H32 UNL     1      29.821  65.805  13.433  1.00  0.00     0.177 HD
ATOM     22  H31 UNL     1      28.473  65.655  12.282  1.00  0.00     0.177 HD
ENDBRANCH   5  20
BRANCH  14  23
HETATM   23  N7  UNL     1      23.692  62.900   8.408  1.00  0.00    -0.234 N 
ATOM     24  H72 UNL     1      22.914  63.540   8.248  1.00  0.00     0.174 HD
ATOM     25  H71 UNL     1      23.849  62.152   7.732  1.00  0.00     0.174 HD
ENDBRANCH  14  23
TORSDOF 2
ENDMDL
MODEL 5
REMARK VINA RESULT: -6.459871082      2.259      4.308
REMARK  2 active torsions:
REMARK  status: ('A' for Active; 'I' for Inactive)
REMARK       I    between atoms: C1_4  and  N2_5 
REMARK       I    between atoms: C1_4  and  N4_10 
REMARK    1  A    between atoms: N2_5  and  N3_7 
REMARK    2  A    between atoms: C4_17  and  N7_18 
ROOT
HETATM    1  N1  UNL     1      29.267  66.722  11.464  1.00  0.00    -0.233 N 
ATOM      2  H11 UNL     1      28.492  67.381  11.386  1.00  0.00     0.174 HD
ATOM      3  H12 UNL     1      29.920  66.728  12.247  1.00  0.00     0.174 HD
HETATM    4  C1  UNL     1      29.450  65.838  10.550  1.00  0.00     0.698 C 
HETATM    5  N2  UNL     1      30.521  64.927  10.659  1.00  0.00    -0.138 N 
ATOM      6  H2  UNL     1      30.902  64.683  11.573  1.00  0.00     0.205 HD
HETATM    7  N4  UNL     1      28.542  65.830   9.462  1.00  0.00    -0.133 N 
HETATM    8  C2  UNL     1      28.768  66.449   8.272  1.00  0.00     0.209 A 
HETATM    9  N5  UNL     1      27.687  66.206   7.527  1.00  0.00    -0.335 N 
ATOM     10  H5  UNL     1      27.566  66.546   6.573  1.00  0.00     0.168 HD
HETATM   11  C3  UNL     1      26.780  65.466   8.174  1.00  0.00     0.155 A 
HETATM   12  N6  UNL     1      25.569  64.954   7.911  1.00  0.00    -0.174 N 
ATOM     13  H6  UNL     1      25.158  65.130   6.994  1.00  0.00     0.186 HD
HETATM   14  C4  UNL     1      24.869  64.221   8.793  1.00  0.00     0.680 A 
HETATM   15  N8  UNL     1      25.409  63.992   9.997  1.00  0.00    -0.154 N 
ATOM     16  H8  UNL     1      24.892  63.438  10.680  1.00  0.00     0.187 HD
HETATM   17  C5  UNL     1      26.616  64.476  10.323  1.00  0.00     0.291 A 
HETATM   18  O1  UNL     1      27.081  64.236  11.457  1.00  0.00    -0.265 OA
HETATM   19  C6  UNL     1      27.336  65.227   9.420  1.00  0.00     0.170 A 
ENDROOT
BRANCH   5  20
HETATM   20  N3  UNL     1      31.063  64.356   9.480  1.00  0.00    -0.331 N 
ATOM     21  H32 UNL     1      30.644  64.577   8.577  1.00  0.00     0.177 HD
ATOM     22  H31 UNL     1      31.865  63.730   9.555  1.00  0.00     0.177 HD
ENDBRANCH   5  20
BRANCH  14  23
HETATM   23  N7  UNL     1      23.697  63.740   8.505  1.00  0.00    -0.234 N 
ATOM     24  H72 UNL     1      22.980  64.347   8.107  1.00  0.00     0.174 HD
ATOM     25  H71 UNL     1      23.466  62.760   8.664  1.00  0.00     0.174 HD
ENDBRANCH  14  23
TORSDOF 2
ENDMDL
