MODEL 1
REMARK VINA RESULT: -6.598056275      0.000      0.000
REMARK  4 active torsions:
REMARK  status: ('A' for Active; 'I' for Inactive)
REMARK    1  A    between atoms: C2_5  and  C3_6 
REMARK    2  A    between atoms: C3_6  and  N3_7 
REMARK    3  A    between atoms: C3_6  and  N4_11 
REMARK    4  A    between atoms: C6_20  and  N6_21 
ROOT
HETATM    1  C1  UNL     1      29.358  65.946  11.928  1.00  0.00     0.179 C 
HETATM    2  N1  UNL     1      29.617  65.949  10.485  1.00  0.00    -0.280 N 
HETATM    3  N2  UNL     1      30.792  65.970   9.923  1.00  0.00    -0.296 N 
ATOM      4  H2  UNL     1      31.683  65.988  10.421  1.00  0.00     0.187 HD
HETATM    5  C2  UNL     1      30.648  65.965   8.570  1.00  0.00     0.102 A 
HETATM    6  C4  UNL     1      29.294  65.939   8.326  1.00  0.00     0.106 A 
HETATM    7  C5  UNL     1      28.508  65.921   7.195  1.00  0.00     0.275 A 
HETATM    8  O1  UNL     1      28.996  65.928   6.061  1.00  0.00    -0.267 OA
HETATM    9  N5  UNL     1      27.181  65.897   7.307  1.00  0.00    -0.155 N 
ATOM     10  H5  UNL     1      26.616  65.884   6.458  1.00  0.00     0.187 HD
HETATM   11  C6  UNL     1      26.555  65.887   8.509  1.00  0.00     0.680 A 
HETATM   12  N7  UNL     1      27.309  65.904   9.613  1.00  0.00    -0.174 N 
ATOM     13  H7  UNL     1      26.857  65.896  10.527  1.00  0.00     0.186 HD
HETATM   14  C7  UNL     1      28.638  65.929   9.543  1.00  0.00     0.155 A 
ENDROOT
BRANCH   5  15
HETATM   15  C3  UNL     1      31.702  65.989   7.543  1.00  0.00     0.429 C 
BRANCH  15  16
HETATM   16  N3  UNL     1      31.486  67.087   6.612  1.00  0.00    -0.045 N 
ATOM     17  H33 UNL     1      31.147  67.925   7.086  1.00  0.00     0.277 HD
ATOM     18  H32 UNL     1      32.366  67.459   6.255  1.00  0.00     0.277 HD
ATOM     19  H31 UNL     1      30.862  66.801   5.858  1.00  0.00     0.277 HD
ENDBRANCH  15  16
BRANCH  15  20
HETATM   20  N4  UNL     1      33.011  66.059   8.163  1.00  0.00    -0.045 N 
ATOM     21  H43 UNL     1      33.149  65.312   8.844  1.00  0.00     0.277 HD
ATOM     22  H42 UNL     1      33.754  65.810   7.511  1.00  0.00     0.277 HD
ATOM     23  H41 UNL     1      33.160  66.980   8.575  1.00  0.00     0.277 HD
ENDBRANCH  15  20
ENDBRANCH   5  15
BRANCH  11  24
HETATM   24  N6  UNL     1      25.267  65.863   8.582  1.00  0.00    -0.234 N 
ATOM     25  H62 UNL     1      24.714  65.286   7.947  1.00  0.00     0.174 HD
ATOM     26  H61 UNL     1      24.773  66.423   9.277  1.00  0.00     0.174 HD
ENDBRANCH  11  24
TORSDOF 4
ENDMDL
MODEL 2
REMARK VINA RESULT: -6.429073544      0.932      1.201
REMARK  4 active torsions:
REMARK  status: ('A' for Active; 'I' for Inactive)
REMARK    1  A    between atoms: C2_5  and  C3_6 
REMARK    2  A    between atoms: C3_6  and  N3_7 
REMARK    3  A    between atoms: C3_6  and  N4_11 
REMARK    4  A    between atoms: C6_20  and  N6_21 
ROOT
HETATM    1  C1  UNL     1      28.796  64.775  12.293  1.00  0.00     0.179 C 
HETATM    2  N1  UNL     1      29.104  65.184  10.919  1.00  0.00    -0.280 N 
HETATM    3  N2  UNL     1      30.295  65.409  10.441  1.00  0.00    -0.296 N 
ATOM      4  H2  UNL     1      31.165  65.328  10.967  1.00  0.00     0.187 HD
HETATM    5  C2  UNL     1      30.197  65.769   9.133  1.00  0.00     0.102 A 
HETATM    6  C4  UNL     1      28.856  65.753   8.826  1.00  0.00     0.106 A 
HETATM    7  C5  UNL     1      28.111  66.012   7.697  1.00  0.00     0.275 A 
HETATM    8  O1  UNL     1      28.637  66.350   6.632  1.00  0.00    -0.267 OA
HETATM    9  N5  UNL     1      26.784  65.900   7.735  1.00  0.00    -0.155 N 
ATOM     10  H5  UNL     1      26.250  66.096   6.888  1.00  0.00     0.187 HD
HETATM   11  C6  UNL     1      26.119  65.535   8.857  1.00  0.00     0.680 A 
HETATM   12  N7  UNL     1      26.833  65.280   9.959  1.00  0.00    -0.174 N 
ATOM     13  H7  UNL     1      26.351  65.003  10.814  1.00  0.00     0.186 HD
HETATM   14  C7  UNL     1      28.160  65.382   9.962  1.00  0.00     0.155 A 
ENDROOT
BRANCH   5  15
HETATM   15  C3  UNL     1      31.283  66.119   8.203  1.00  0.00     0.429 C 
BRANCH  15  16
HETATM   16  N3  UNL     1      32.577  66.005   8.859  1.00  0.00    -0.045 N 
ATOM     17  H33 UNL     1      32.528  66.274   9.842  1.00  0.00     0.277 HD
ATOM     18  H32 UNL     1      32.855  65.031   8.981  1.00  0.00     0.277 HD
ATOM     19  H31 UNL     1      33.284  66.540   8.355  1.00  0.00     0.277 HD
ENDBRANCH  15  16
BRANCH  15  20
HETATM   20  N4  UNL     1      31.211  65.299   7.009  1.00  0.00    -0.045 N 
ATOM     21  H43 UNL     1      32.102  64.846   6.805  1.00  0.00     0.277 HD
ATOM     22  H42 UNL     1      30.646  64.463   7.156  1.00  0.00     0.277 HD
ATOM     23  H41 UNL     1      30.875  65.850   6.219  1.00  0.00     0.277 HD
ENDBRANCH  15  20
ENDBRANCH   5  15
BRANCH  11  24
HETATM   24  N6  UNL     1      24.832  65.436   8.859  1.00  0.00    -0.234 N 
ATOM     25  H62 UNL     1      24.358  64.718   8.310  1.00  0.00     0.174 HD
ATOM     26  H61 UNL     1      24.260  66.075   9.412  1.00  0.00     0.174 HD
ENDBRANCH  11  24
TORSDOF 4
ENDMDL
MODEL 3
REMARK VINA RESULT: -6.241707323      2.104      5.103
REMARK  4 active torsions:
REMARK  status: ('A' for Active; 'I' for Inactive)
REMARK    1  A    between atoms: C2_5  and  C3_6 
REMARK    2  A    between atoms: C3_6  and  N3_7 
REMARK    3  A    between atoms: C3_6  and  N4_11 
REMARK    4  A    between atoms: C6_20  and  N6_21 
ROOT
HETATM    1  C1  UNL     1      29.161  65.933   6.018  1.00  0.00     0.179 C 
HETATM    2  N1  UNL     1      28.625  65.879   7.381  1.00  0.00    -0.280 N 
HETATM    3  N2  UNL     1      27.379  66.056   7.716  1.00  0.00    -0.296 N 
ATOM      4  H2  UNL     1      26.617  66.255   7.067  1.00  0.00     0.187 HD
HETATM    5  C2  UNL     1      27.250  65.934   9.066  1.00  0.00     0.102 A 
HETATM    6  C4  UNL     1      28.510  65.669   9.552  1.00  0.00     0.106 A 
HETATM    7  C5  UNL     1      29.046  65.443  10.800  1.00  0.00     0.275 A 
HETATM    8  O1  UNL     1      28.349  65.453  11.820  1.00  0.00    -0.267 OA
HETATM    9  N5  UNL     1      30.350  65.207  10.932  1.00  0.00    -0.155 N 
ATOM     10  H5  UNL     1      30.728  65.042  11.866  1.00  0.00     0.187 HD
HETATM   11  C6  UNL     1      31.193  65.177   9.872  1.00  0.00     0.680 A 
HETATM   12  N7  UNL     1      30.683  65.393   8.655  1.00  0.00    -0.174 N 
ATOM     13  H7  UNL     1      31.300  65.374   7.843  1.00  0.00     0.186 HD
HETATM   14  C7  UNL     1      29.384  65.634   8.481  1.00  0.00     0.155 A 
ENDROOT
BRANCH   5  15
HETATM   15  C3  UNL     1      26.030  66.062   9.878  1.00  0.00     0.429 C 
BRANCH  15  16
HETATM   16  N3  UNL     1      26.025  67.326  10.601  1.00  0.00    -0.045 N 
ATOM     17  H33 UNL     1      26.908  67.825  10.497  1.00  0.00     0.277 HD
ATOM     18  H32 UNL     1      25.410  68.011  10.162  1.00  0.00     0.277 HD
ATOM     19  H31 UNL     1      25.788  67.177  11.582  1.00  0.00     0.277 HD
ENDBRANCH  15  16
BRANCH  15  20
HETATM   20  N4  UNL     1      24.851  65.913   9.047  1.00  0.00    -0.045 N 
ATOM     21  H43 UNL     1      24.465  66.816   8.770  1.00  0.00     0.277 HD
ATOM     22  H42 UNL     1      25.082  65.557   8.120  1.00  0.00     0.277 HD
ATOM     23  H41 UNL     1      24.157  65.331   9.515  1.00  0.00     0.277 HD
ENDBRANCH  15  20
ENDBRANCH   5  15
BRANCH  11  24
HETATM   24  N6  UNL     1      32.451  64.945  10.035  1.00  0.00    -0.234 N 
ATOM     25  H62 UNL     1      32.789  64.010  10.269  1.00  0.00     0.174 HD
ATOM     26  H61 UNL     1      33.137  65.693   9.935  1.00  0.00     0.174 HD
ENDBRANCH  11  24
TORSDOF 4
ENDMDL
MODEL 4
REMARK VINA RESULT: -6.240468281      1.371      1.572
REMARK  4 active torsions:
REMARK  status: ('A' for Active; 'I' for Inactive)
REMARK    1  A    between atoms: C2_5  and  C3_6 
REMARK    2  A    between atoms: C3_6  and  N3_7 
REMARK    3  A    between atoms: C3_6  and  N4_11 
REMARK    4  A    between atoms: C6_20  and  N6_21 
ROOT
HETATM    1  C1  UNL     1      28.128  65.688  13.148  1.00  0.00     0.179 C 
HETATM    2  N1  UNL     1      28.605  65.609  11.764  1.00  0.00    -0.280 N 
HETATM    3  N2  UNL     1      29.838  65.407  11.395  1.00  0.00    -0.296 N 
ATOM      4  H2  UNL     1      30.629  65.279  12.027  1.00  0.00     0.187 HD
HETATM    5  C2  UNL     1      29.907  65.395  10.036  1.00  0.00     0.102 A 
HETATM    6  C4  UNL     1      28.626  65.604   9.581  1.00  0.00     0.106 A 
HETATM    7  C5  UNL     1      28.035  65.698   8.341  1.00  0.00     0.275 A 
HETATM    8  O1  UNL     1      28.687  65.589   7.297  1.00  0.00    -0.267 OA
HETATM    9  N5  UNL     1      26.724  65.911   8.242  1.00  0.00    -0.155 N 
ATOM     10  H5  UNL     1      26.305  65.978   7.314  1.00  0.00     0.187 HD
HETATM   11  C6  UNL     1      25.927  66.043   9.330  1.00  0.00     0.680 A 
HETATM   12  N7  UNL     1      26.490  65.952  10.539  1.00  0.00    -0.174 N 
ATOM     13  H7  UNL     1      25.908  66.048  11.370  1.00  0.00     0.186 HD
HETATM   14  C7  UNL     1      27.798  65.740  10.679  1.00  0.00     0.155 A 
ENDROOT
BRANCH   5  15
HETATM   15  C3  UNL     1      31.096  65.206   9.188  1.00  0.00     0.429 C 
BRANCH  15  16
HETATM   16  N3  UNL     1      31.345  66.393   8.382  1.00  0.00    -0.045 N 
ATOM     17  H33 UNL     1      31.958  66.192   7.592  1.00  0.00     0.277 HD
ATOM     18  H32 UNL     1      30.514  66.678   7.863  1.00  0.00     0.277 HD
ATOM     19  H31 UNL     1      31.708  67.150   8.961  1.00  0.00     0.277 HD
ENDBRANCH  15  16
BRANCH  15  20
HETATM   20  N4  UNL     1      32.246  64.856   9.999  1.00  0.00    -0.045 N 
ATOM     21  H43 UNL     1      33.103  65.281   9.646  1.00  0.00     0.277 HD
ATOM     22  H42 UNL     1      32.218  65.308  10.913  1.00  0.00     0.277 HD
ATOM     23  H41 UNL     1      32.329  63.843  10.080  1.00  0.00     0.277 HD
ENDBRANCH  15  20
ENDBRANCH   5  15
BRANCH  11  24
HETATM   24  N6  UNL     1      24.660  66.249   9.199  1.00  0.00    -0.234 N 
ATOM     25  H62 UNL     1      24.223  66.271   8.277  1.00  0.00     0.174 HD
ATOM     26  H61 UNL     1      24.068  66.396  10.016  1.00  0.00     0.174 HD
ENDBRANCH  11  24
TORSDOF 4
ENDMDL
MODEL 5
REMARK VINA RESULT: -6.234208161      1.757      3.445
REMARK  4 active torsions:
REMARK  status: ('A' for Active; 'I' for Inactive)
REMARK    1  A    between atoms: C2_5  and  C3_6 
REMARK    2  A    between atoms: C3_6  and  N3_7 
REMARK    3  A    between atoms: C3_6  and  N4_11 
REMARK    4  A    between atoms: C6_20  and  N6_21 
ROOT
HETATM    1  C1  UNL     1      25.364  65.850   9.256  1.00  0.00     0.179 C 
HETATM    2  N1  UNL     1      26.795  65.799   8.940  1.00  0.00    -0.280 N 
HETATM    3  N2  UNL     1      27.318  65.948   7.756  1.00  0.00    -0.296 N 
ATOM      4  H2  UNL     1      26.793  66.119   6.898  1.00  0.00     0.187 HD
HETATM    5  C2  UNL     1      28.672  65.840   7.842  1.00  0.00     0.102 A 
HETATM    6  C4  UNL     1      28.958  65.611   9.168  1.00  0.00     0.106 A 
HETATM    7  C5  UNL     1      30.110  65.418   9.897  1.00  0.00     0.275 A 
HETATM    8  O1  UNL     1      31.226  65.423   9.367  1.00  0.00    -0.267 OA
HETATM    9  N5  UNL     1      30.041  65.216  11.212  1.00  0.00    -0.155 N 
ATOM     10  H5  UNL     1      30.905  65.075  11.734  1.00  0.00     0.187 HD
HETATM   11  C6  UNL     1      28.863  65.194  11.880  1.00  0.00     0.680 A 
HETATM   12  N7  UNL     1      27.737  65.382  11.182  1.00  0.00    -0.174 N 
ATOM     13  H7  UNL     1      26.840  65.369  11.667  1.00  0.00     0.186 HD
HETATM   14  C7  UNL     1      27.765  65.585   9.866  1.00  0.00     0.155 A 
ENDROOT
BRANCH   5  15
HETATM   15  C3  UNL     1      29.662  65.935   6.756  1.00  0.00     0.429 C 
BRANCH  15  16
HETATM   16  N3  UNL     1      30.547  67.071   6.968  1.00  0.00    -0.045 N 
ATOM     17  H33 UNL     1      30.241  67.649   7.751  1.00  0.00     0.277 HD
ATOM     18  H32 UNL     1      31.453  66.782   7.336  1.00  0.00     0.277 HD
ATOM     19  H31 UNL     1      30.642  67.616   6.111  1.00  0.00     0.277 HD
ENDBRANCH  15  16
BRANCH  15  20
HETATM   20  N4  UNL     1      30.400  64.693   6.636  1.00  0.00    -0.045 N 
ATOM     21  H43 UNL     1      29.860  63.896   6.972  1.00  0.00     0.277 HD
ATOM     22  H42 UNL     1      30.505  64.406   5.663  1.00  0.00     0.277 HD
ATOM     23  H41 UNL     1      31.301  64.768   7.108  1.00  0.00     0.277 HD
ENDBRANCH  15  20
ENDBRANCH   5  15
BRANCH  11  24
HETATM   24  N6  UNL     1      28.830  64.996  13.155  1.00  0.00    -0.234 N 
ATOM     25  H62 UNL     1      27.944  64.921  13.654  1.00  0.00     0.174 HD
ATOM     26  H61 UNL     1      29.694  64.910  13.692  1.00  0.00     0.174 HD
ENDBRANCH  11  24
TORSDOF 4
ENDMDL
