MODEL 1
REMARK VINA RESULT: -6.414670307      0.000      0.000
REMARK  5 active torsions:
REMARK  status: ('A' for Active; 'I' for Inactive)
REMARK       I    between atoms: C1_4  and  N3_6 
REMARK    1  A    between atoms: N3_6  and  O1_8 
REMARK    2  A    between atoms: O1_8  and  C2_9 
REMARK       I    between atoms: C2_9  and  N4_11 
REMARK    3  A    between atoms: N4_11  and  C3_13 
REMARK    4  A    between atoms: C3_13  and  C4_14 
REMARK       I    between atoms: C4_14  and  N5_16 
REMARK    5  A    between atoms: N5_16  and  N6_18 
ROOT
HETATM    1  C2  UNL     1      28.796  66.185   7.785  1.00  0.00     0.383 C 
HETATM    2  O2  UNL     1      28.297  65.273   7.079  1.00  0.00    -0.236 OA
HETATM    3  N4  UNL     1      28.461  66.366   9.150  1.00  0.00    -0.327 N 
ATOM      4  H4  UNL     1      28.902  67.132   9.659  1.00  0.00     0.165 HD
ENDROOT
BRANCH   1   5
HETATM    5  O1  UNL     1      29.706  67.011   7.130  1.00  0.00    -0.179 OA
BRANCH   5   6
HETATM    6  N3  UNL     1      31.002  66.618   6.907  1.00  0.00    -0.228 N 
HETATM    7  C1  UNL     1      31.897  66.262   7.953  1.00  0.00     0.206 C 
HETATM    8  N1  UNL     1      33.161  66.247   7.727  1.00  0.00    -0.372 N 
HETATM    9  N2  UNL     1      31.460  65.918   9.255  1.00  0.00    -0.062 NA
ATOM     10  H12 UNL     1      33.803  65.992   8.478  1.00  0.00     0.158 HD
ATOM     11  H11 UNL     1      33.476  66.495   6.789  1.00  0.00     0.158 HD
ATOM     12  H3  UNL     1      31.339  66.578   5.945  1.00  0.00     0.198 HD
ENDBRANCH   5   6
ENDBRANCH   1   5
BRANCH   3  13
HETATM   13  C3  UNL     1      27.544  65.537   9.844  1.00  0.00     0.229 C 
BRANCH  13  14
HETATM   14  C4  UNL     1      28.260  64.587  10.731  1.00  0.00     0.253 C 
HETATM   15  O3  UNL     1      28.601  63.440  10.291  1.00  0.00    -0.270 OA
HETATM   16  N5  UNL     1      28.557  64.968  12.068  1.00  0.00    -0.275 N 
ATOM     17  H5  UNL     1      28.281  65.887  12.415  1.00  0.00     0.189 HD
BRANCH  16  18
HETATM   18  N6  UNL     1      29.227  64.077  12.896  1.00  0.00    -0.343 N 
ATOM     19  H62 UNL     1      30.246  64.091  12.925  1.00  0.00     0.176 HD
ATOM     20  H61 UNL     1      28.690  63.422  13.465  1.00  0.00     0.176 HD
ENDBRANCH  16  18
ENDBRANCH  13  14
ENDBRANCH   3  13
TORSDOF 5
ENDMDL
MODEL 2
REMARK VINA RESULT: -6.360637924      3.112      5.761
REMARK  5 active torsions:
REMARK  status: ('A' for Active; 'I' for Inactive)
REMARK       I    between atoms: C1_4  and  N3_6 
REMARK    1  A    between atoms: N3_6  and  O1_8 
REMARK    2  A    between atoms: O1_8  and  C2_9 
REMARK       I    between atoms: C2_9  and  N4_11 
REMARK    3  A    between atoms: N4_11  and  C3_13 
REMARK    4  A    between atoms: C3_13  and  C4_14 
REMARK       I    between atoms: C4_14  and  N5_16 
REMARK    5  A    between atoms: N5_16  and  N6_18 
ROOT
HETATM    1  C2  UNL     1      27.801  63.501  11.372  1.00  0.00     0.383 C 
HETATM    2  O2  UNL     1      28.692  63.643  12.248  1.00  0.00    -0.236 OA
HETATM    3  N4  UNL     1      27.628  64.413  10.303  1.00  0.00    -0.327 N 
ATOM      4  H4  UNL     1      26.880  64.236   9.632  1.00  0.00     0.165 HD
ENDROOT
BRANCH   1   5
HETATM    5  O1  UNL     1      26.993  62.378  11.526  1.00  0.00    -0.179 OA
BRANCH   5   6
HETATM    6  N3  UNL     1      26.401  61.765  10.450  1.00  0.00    -0.228 N 
HETATM    7  C1  UNL     1      25.065  62.033  10.042  1.00  0.00     0.206 C 
HETATM    8  N1  UNL     1      24.458  61.200   9.275  1.00  0.00    -0.372 N 
HETATM    9  N2  UNL     1      24.355  63.189  10.445  1.00  0.00    -0.062 NA
ATOM     10  H12 UNL     1      23.500  61.392   8.983  1.00  0.00     0.158 HD
ATOM     11  H11 UNL     1      24.970  60.367   8.984  1.00  0.00     0.158 HD
ATOM     12  H3  UNL     1      26.944  61.086   9.916  1.00  0.00     0.198 HD
ENDBRANCH   5   6
ENDBRANCH   1   5
BRANCH   3  13
HETATM   13  C3  UNL     1      28.440  65.560  10.117  1.00  0.00     0.229 C 
BRANCH  13  14
HETATM   14  C4  UNL     1      29.779  65.180   9.605  1.00  0.00     0.253 C 
HETATM   15  O3  UNL     1      29.915  64.807   8.394  1.00  0.00    -0.270 OA
HETATM   16  N5  UNL     1      30.901  65.235  10.476  1.00  0.00    -0.275 N 
ATOM     17  H5  UNL     1      30.787  65.534  11.445  1.00  0.00     0.189 HD
BRANCH  16  18
HETATM   18  N6  UNL     1      32.155  64.879   9.995  1.00  0.00    -0.343 N 
ATOM     19  H62 UNL     1      32.629  64.066  10.389  1.00  0.00     0.176 HD
ATOM     20  H61 UNL     1      32.583  65.434   9.255  1.00  0.00     0.176 HD
ENDBRANCH  16  18
ENDBRANCH  13  14
ENDBRANCH   3  13
TORSDOF 5
ENDMDL
MODEL 3
REMARK VINA RESULT: -6.271210458      1.518      5.336
REMARK  5 active torsions:
REMARK  status: ('A' for Active; 'I' for Inactive)
REMARK       I    between atoms: C1_4  and  N3_6 
REMARK    1  A    between atoms: N3_6  and  O1_8 
REMARK    2  A    between atoms: O1_8  and  C2_9 
REMARK       I    between atoms: C2_9  and  N4_11 
REMARK    3  A    between atoms: N4_11  and  C3_13 
REMARK    4  A    between atoms: C3_13  and  C4_14 
REMARK       I    between atoms: C4_14  and  N5_16 
REMARK    5  A    between atoms: N5_16  and  N6_18 
ROOT
HETATM    1  C2  UNL     1      29.188  64.983  10.247  1.00  0.00     0.383 C 
HETATM    2  O2  UNL     1      29.517  63.826   9.881  1.00  0.00    -0.236 OA
HETATM    3  N4  UNL     1      29.058  66.064   9.340  1.00  0.00    -0.327 N 
ATOM      4  H4  UNL     1      28.793  66.977   9.711  1.00  0.00     0.165 HD
ENDROOT
BRANCH   1   5
HETATM    5  O1  UNL     1      28.960  65.131  11.612  1.00  0.00    -0.179 OA
BRANCH   5   6
HETATM    6  N3  UNL     1      29.151  64.092  12.489  1.00  0.00    -0.228 N 
HETATM    7  C1  UNL     1      28.116  63.191  12.862  1.00  0.00     0.206 C 
HETATM    8  N1  UNL     1      28.248  62.479  13.923  1.00  0.00    -0.372 N 
HETATM    9  N2  UNL     1      26.925  63.035  12.113  1.00  0.00    -0.062 NA
ATOM     10  H12 UNL     1      27.505  61.833  14.191  1.00  0.00     0.158 HD
ATOM     11  H11 UNL     1      29.106  62.592  14.463  1.00  0.00     0.158 HD
ATOM     12  H3  UNL     1      30.079  63.959  12.892  1.00  0.00     0.198 HD
ENDBRANCH   5   6
ENDBRANCH   1   5
BRANCH   3  13
HETATM   13  C3  UNL     1      29.276  65.942   7.945  1.00  0.00     0.229 C 
BRANCH  13  14
HETATM   14  C4  UNL     1      30.676  66.291   7.599  1.00  0.00     0.253 C 
HETATM   15  O3  UNL     1      30.914  67.050   6.602  1.00  0.00    -0.270 OA
HETATM   16  N5  UNL     1      31.741  65.773   8.385  1.00  0.00    -0.275 N 
ATOM     17  H5  UNL     1      31.545  65.166   9.182  1.00  0.00     0.189 HD
BRANCH  16  18
HETATM   18  N6  UNL     1      33.050  66.102   8.060  1.00  0.00    -0.343 N 
ATOM     19  H62 UNL     1      33.240  66.979   7.573  1.00  0.00     0.176 HD
ATOM     20  H61 UNL     1      33.804  65.463   8.311  1.00  0.00     0.176 HD
ENDBRANCH  16  18
ENDBRANCH  13  14
ENDBRANCH   3  13
TORSDOF 5
ENDMDL
MODEL 4
REMARK VINA RESULT: -6.268770479      2.302      5.857
REMARK  5 active torsions:
REMARK  status: ('A' for Active; 'I' for Inactive)
REMARK       I    between atoms: C1_4  and  N3_6 
REMARK    1  A    between atoms: N3_6  and  O1_8 
REMARK    2  A    between atoms: O1_8  and  C2_9 
REMARK       I    between atoms: C2_9  and  N4_11 
REMARK    3  A    between atoms: N4_11  and  C3_13 
REMARK    4  A    between atoms: C3_13  and  C4_14 
REMARK       I    between atoms: C4_14  and  N5_16 
REMARK    5  A    between atoms: N5_16  and  N6_18 
ROOT
HETATM    1  C2  UNL     1      28.501  64.101  10.686  1.00  0.00     0.383 C 
HETATM    2  O2  UNL     1      27.739  64.461   9.753  1.00  0.00    -0.236 OA
HETATM    3  N4  UNL     1      29.709  64.776  10.990  1.00  0.00    -0.327 N 
ATOM      4  H4  UNL     1      30.279  64.424  11.759  1.00  0.00     0.165 HD
ENDROOT
BRANCH   1   5
HETATM    5  O1  UNL     1      28.074  62.988  11.405  1.00  0.00    -0.179 OA
BRANCH   5   6
HETATM    6  N3  UNL     1      28.194  62.925  12.771  1.00  0.00    -0.228 N 
HETATM    7  C1  UNL     1      27.079  62.992  13.651  1.00  0.00     0.206 C 
HETATM    8  N1  UNL     1      27.267  63.280  14.889  1.00  0.00    -0.372 N 
HETATM    9  N2  UNL     1      25.750  62.754  13.229  1.00  0.00    -0.062 NA
ATOM     10  H12 UNL     1      26.468  63.328  15.521  1.00  0.00     0.158 HD
ATOM     11  H11 UNL     1      28.226  63.451  15.194  1.00  0.00     0.158 HD
ATOM     12  H3  UNL     1      29.126  62.825  13.173  1.00  0.00     0.198 HD
ENDBRANCH   5   6
ENDBRANCH   1   5
BRANCH   3  13
HETATM   13  C3  UNL     1      30.165  65.916  10.281  1.00  0.00     0.229 C 
BRANCH  13  14
HETATM   14  C4  UNL     1      31.455  65.634   9.606  1.00  0.00     0.253 C 
HETATM   15  O3  UNL     1      32.244  64.755  10.084  1.00  0.00    -0.270 OA
HETATM   16  N5  UNL     1      31.800  66.353   8.429  1.00  0.00    -0.275 N 
ATOM     17  H5  UNL     1      31.165  67.057   8.051  1.00  0.00     0.189 HD
BRANCH  16  18
HETATM   18  N6  UNL     1      33.009  66.088   7.799  1.00  0.00    -0.343 N 
ATOM     19  H62 UNL     1      33.862  66.035   8.356  1.00  0.00     0.176 HD
ATOM     20  H61 UNL     1      33.027  65.950   6.788  1.00  0.00     0.176 HD
ENDBRANCH  16  18
ENDBRANCH  13  14
ENDBRANCH   3  13
TORSDOF 5
ENDMDL
MODEL 5
REMARK VINA RESULT: -6.268027754      2.386      5.956
REMARK  5 active torsions:
REMARK  status: ('A' for Active; 'I' for Inactive)
REMARK       I    between atoms: C1_4  and  N3_6 
REMARK    1  A    between atoms: N3_6  and  O1_8 
REMARK    2  A    between atoms: O1_8  and  C2_9 
REMARK       I    between atoms: C2_9  and  N4_11 
REMARK    3  A    between atoms: N4_11  and  C3_13 
REMARK    4  A    between atoms: C3_13  and  C4_14 
REMARK       I    between atoms: C4_14  and  N5_16 
REMARK    5  A    between atoms: N5_16  and  N6_18 
ROOT
HETATM    1  C2  UNL     1      27.726  62.945  11.442  1.00  0.00     0.383 C 
HETATM    2  O2  UNL     1      26.995  62.532  10.506  1.00  0.00    -0.236 OA
HETATM    3  N4  UNL     1      28.518  64.115  11.334  1.00  0.00    -0.327 N 
ATOM      4  H4  UNL     1      29.091  64.386  12.133  1.00  0.00     0.165 HD
ENDROOT
BRANCH   1   5
HETATM    5  O1  UNL     1      27.704  62.170  12.598  1.00  0.00    -0.179 OA
BRANCH   5   6
HETATM    6  N3  UNL     1      26.902  62.492  13.664  1.00  0.00    -0.228 N 
HETATM    7  C1  UNL     1      27.231  63.507  14.604  1.00  0.00     0.206 C 
HETATM    8  N1  UNL     1      26.645  63.526  15.747  1.00  0.00    -0.372 N 
HETATM    9  N2  UNL     1      28.189  64.516  14.343  1.00  0.00    -0.062 NA
ATOM     10  H12 UNL     1      26.881  64.254  16.421  1.00  0.00     0.158 HD
ATOM     11  H11 UNL     1      25.954  62.799  15.935  1.00  0.00     0.158 HD
ATOM     12  H3  UNL     1      26.028  61.980  13.788  1.00  0.00     0.198 HD
ENDBRANCH   5   6
ENDBRANCH   1   5
BRANCH   3  13
HETATM   13  C3  UNL     1      28.555  64.927  10.173  1.00  0.00     0.229 C 
BRANCH  13  14
HETATM   14  C4  UNL     1      29.916  64.942   9.584  1.00  0.00     0.253 C 
HETATM   15  O3  UNL     1      30.062  64.902   8.318  1.00  0.00    -0.270 OA
HETATM   16  N5  UNL     1      31.049  64.999  10.441  1.00  0.00    -0.275 N 
ATOM     17  H5  UNL     1      30.927  65.030  11.454  1.00  0.00     0.189 HD
BRANCH  16  18
HETATM   18  N6  UNL     1      32.322  65.012   9.888  1.00  0.00    -0.343 N 
ATOM     19  H62 UNL     1      32.552  65.708   9.178  1.00  0.00     0.176 HD
ATOM     20  H61 UNL     1      33.010  64.325  10.198  1.00  0.00     0.176 HD
ENDBRANCH  16  18
ENDBRANCH  13  14
ENDBRANCH   3  13
TORSDOF 5
ENDMDL
