MODEL 1
REMARK VINA RESULT: -7.190220832      0.000      0.000
REMARK  3 active torsions:
REMARK  status: ('A' for Active; 'I' for Inactive)
REMARK    1  A    between atoms: N1_1  and  C1_4 
REMARK    2  A    between atoms: C4_13  and  C5_14 
REMARK       I    between atoms: C5_14  and  N5_16 
REMARK    3  A    between atoms: N5_16  and  N6_18 
ROOT
HETATM    1  C1  UNL     1      28.849  66.055   8.348  1.00  0.00     0.131 A 
HETATM    2  N2  UNL     1      29.318  66.746   7.270  1.00  0.00    -0.282 N 
ATOM      3  H2  UNL     1      28.649  67.156   6.618  1.00  0.00     0.188 HD
HETATM    4  N3  UNL     1      30.608  66.902   7.045  1.00  0.00    -0.263 N 
ATOM      5  H3  UNL     1      30.917  67.426   6.227  1.00  0.00     0.190 HD
HETATM    6  C2  UNL     1      31.521  66.378   7.880  1.00  0.00     0.285 A 
HETATM    7  O1  UNL     1      32.761  66.506   7.698  1.00  0.00    -0.265 OA
HETATM    8  C3  UNL     1      31.064  65.678   8.971  1.00  0.00     0.135 A 
HETATM    9  N4  UNL     1      32.018  65.115   9.869  1.00  0.00    -0.095 NA
HETATM   10  C4  UNL     1      29.705  65.485   9.255  1.00  0.00     0.108 A 
ENDROOT
BRANCH  10  11
HETATM   11  C5  UNL     1      29.319  64.730  10.435  1.00  0.00     0.275 C 
HETATM   12  O2  UNL     1      28.671  63.641  10.211  1.00  0.00    -0.266 OA
HETATM   13  N5  UNL     1      29.553  65.026  11.769  1.00  0.00    -0.272 N 
ATOM     14  H5  UNL     1      30.060  65.875  12.018  1.00  0.00     0.189 HD
BRANCH  13  15
HETATM   15  N6  UNL     1      29.093  64.158  12.789  1.00  0.00    -0.342 N 
ATOM     16  H62 UNL     1      28.437  63.417  12.544  1.00  0.00     0.176 HD
ATOM     17  H61 UNL     1      29.413  64.273  13.751  1.00  0.00     0.176 HD
ENDBRANCH  13  15
ENDBRANCH  10  11
BRANCH   1  18
HETATM   18  N1  UNL     1      27.584  65.950   8.495  1.00  0.00    -0.384 N 
ATOM     19  H12 UNL     1      27.154  66.094   9.408  1.00  0.00     0.157 HD
ATOM     20  H11 UNL     1      27.021  65.720   7.676  1.00  0.00     0.157 HD
ENDBRANCH   1  18
TORSDOF 3
ENDMDL
MODEL 2
REMARK VINA RESULT: -6.672068885      1.210      3.183
REMARK  3 active torsions:
REMARK  status: ('A' for Active; 'I' for Inactive)
REMARK    1  A    between atoms: N1_1  and  C1_4 
REMARK    2  A    between atoms: C4_13  and  C5_14 
REMARK       I    between atoms: C5_14  and  N5_16 
REMARK    3  A    between atoms: N5_16  and  N6_18 
ROOT
HETATM    1  C1  UNL     1      30.210  65.270  10.368  1.00  0.00     0.131 A 
HETATM    2  N2  UNL     1      31.567  65.143  10.323  1.00  0.00    -0.282 N 
ATOM      3  H2  UNL     1      32.048  64.702  11.108  1.00  0.00     0.188 HD
HETATM    4  N3  UNL     1      32.278  65.572   9.299  1.00  0.00    -0.263 N 
ATOM      5  H3  UNL     1      33.291  65.457   9.305  1.00  0.00     0.190 HD
HETATM    6  C2  UNL     1      31.684  66.158   8.246  1.00  0.00     0.285 A 
HETATM    7  O1  UNL     1      32.330  66.581   7.249  1.00  0.00    -0.265 OA
HETATM    8  C3  UNL     1      30.317  66.294   8.276  1.00  0.00     0.135 A 
HETATM    9  N4  UNL     1      29.668  66.914   7.167  1.00  0.00    -0.095 NA
HETATM   10  C4  UNL     1      29.517  65.856   9.339  1.00  0.00     0.108 A 
ENDROOT
BRANCH  10  11
HETATM   11  C5  UNL     1      28.077  66.043   9.280  1.00  0.00     0.275 C 
HETATM   12  O2  UNL     1      27.532  66.513  10.347  1.00  0.00    -0.266 OA
HETATM   13  N5  UNL     1      27.211  65.782   8.229  1.00  0.00    -0.272 N 
ATOM     14  H5  UNL     1      27.576  65.407   7.353  1.00  0.00     0.189 HD
BRANCH  13  15
HETATM   15  N6  UNL     1      25.824  66.032   8.362  1.00  0.00    -0.342 N 
ATOM     16  H62 UNL     1      25.463  66.949   8.098  1.00  0.00     0.176 HD
ATOM     17  H61 UNL     1      25.198  65.308   8.715  1.00  0.00     0.176 HD
ENDBRANCH  13  15
ENDBRANCH  10  11
BRANCH   1  18
HETATM   18  N1  UNL     1      29.596  64.828  11.397  1.00  0.00    -0.384 N 
ATOM     19  H12 UNL     1      30.111  64.577  12.240  1.00  0.00     0.157 HD
ATOM     20  H11 UNL     1      28.581  64.737  11.350  1.00  0.00     0.157 HD
ENDBRANCH   1  18
TORSDOF 3
ENDMDL
MODEL 3
REMARK VINA RESULT: -6.659393797      1.676      2.735
REMARK  3 active torsions:
REMARK  status: ('A' for Active; 'I' for Inactive)
REMARK    1  A    between atoms: N1_1  and  C1_4 
REMARK    2  A    between atoms: C4_13  and  C5_14 
REMARK       I    between atoms: C5_14  and  N5_16 
REMARK    3  A    between atoms: N5_16  and  N6_18 
ROOT
HETATM    1  C1  UNL     1      31.864  65.720   9.266  1.00  0.00     0.131 A 
HETATM    2  N2  UNL     1      32.538  66.053   8.128  1.00  0.00    -0.282 N 
ATOM      3  H2  UNL     1      33.551  66.157   8.167  1.00  0.00     0.188 HD
HETATM    4  N3  UNL     1      31.920  66.244   6.979  1.00  0.00    -0.263 N 
ATOM      5  H3  UNL     1      32.461  66.492   6.151  1.00  0.00     0.190 HD
HETATM    6  C2  UNL     1      30.586  66.116   6.884  1.00  0.00     0.285 A 
HETATM    7  O1  UNL     1      29.960  66.292   5.804  1.00  0.00    -0.265 OA
HETATM    8  C3  UNL     1      29.892  65.781   8.023  1.00  0.00     0.135 A 
HETATM    9  N4  UNL     1      28.475  65.641   7.942  1.00  0.00    -0.095 NA
HETATM   10  C4  UNL     1      30.501  65.567   9.267  1.00  0.00     0.108 A 
ENDROOT
BRANCH  10  11
HETATM   11  C5  UNL     1      29.683  65.215  10.415  1.00  0.00     0.275 C 
HETATM   12  O2  UNL     1      29.518  66.147  11.288  1.00  0.00    -0.266 OA
HETATM   13  N5  UNL     1      29.058  64.011  10.698  1.00  0.00    -0.272 N 
ATOM     14  H5  UNL     1      29.148  63.229  10.050  1.00  0.00     0.189 HD
BRANCH  13  15
HETATM   15  N6  UNL     1      28.295  63.858  11.881  1.00  0.00    -0.342 N 
ATOM     16  H62 UNL     1      28.779  63.638  12.752  1.00  0.00     0.176 HD
ATOM     17  H61 UNL     1      27.281  63.966  11.862  1.00  0.00     0.176 HD
ENDBRANCH  13  15
ENDBRANCH  10  11
BRANCH   1  18
HETATM   18  N1  UNL     1      32.537  65.552  10.339  1.00  0.00    -0.384 N 
ATOM     19  H12 UNL     1      33.182  64.767  10.429  1.00  0.00     0.157 HD
ATOM     20  H11 UNL     1      32.411  66.223  11.097  1.00  0.00     0.157 HD
ENDBRANCH   1  18
TORSDOF 3
ENDMDL
MODEL 4
REMARK VINA RESULT: -6.642902611      1.547      2.855
REMARK  3 active torsions:
REMARK  status: ('A' for Active; 'I' for Inactive)
REMARK    1  A    between atoms: N1_1  and  C1_4 
REMARK    2  A    between atoms: C4_13  and  C5_14 
REMARK       I    between atoms: C5_14  and  N5_16 
REMARK    3  A    between atoms: N5_16  and  N6_18 
ROOT
HETATM    1  C1  UNL     1      31.364  65.520   9.495  1.00  0.00     0.131 A 
HETATM    2  N2  UNL     1      32.560  65.764   8.887  1.00  0.00    -0.282 N 
ATOM      3  H2  UNL     1      33.422  65.542   9.385  1.00  0.00     0.188 HD
HETATM    4  N3  UNL     1      32.637  66.278   7.674  1.00  0.00    -0.263 N 
ATOM      5  H3  UNL     1      33.552  66.445   7.255  1.00  0.00     0.190 HD
HETATM    6  C2  UNL     1      31.526  66.584   6.984  1.00  0.00     0.285 A 
HETATM    7  O1  UNL     1      31.560  67.077   5.824  1.00  0.00    -0.265 OA
HETATM    8  C3  UNL     1      30.312  66.344   7.584  1.00  0.00     0.135 A 
HETATM    9  N4  UNL     1      29.122  66.662   6.867  1.00  0.00    -0.095 NA
HETATM   10  C4  UNL     1      30.177  65.800   8.868  1.00  0.00     0.108 A 
ENDROOT
BRANCH  10  11
HETATM   11  C5  UNL     1      28.850  65.581   9.418  1.00  0.00     0.275 C 
HETATM   12  O2  UNL     1      28.601  64.380   9.810  1.00  0.00    -0.266 OA
HETATM   13  N5  UNL     1      27.815  66.490   9.577  1.00  0.00    -0.272 N 
ATOM     14  H5  UNL     1      27.944  67.459   9.286  1.00  0.00     0.189 HD
BRANCH  13  15
HETATM   15  N6  UNL     1      26.581  66.084  10.139  1.00  0.00    -0.342 N 
ATOM     16  H62 UNL     1      26.448  65.100  10.372  1.00  0.00     0.176 HD
ATOM     17  H61 UNL     1      25.840  66.764  10.308  1.00  0.00     0.176 HD
ENDBRANCH  13  15
ENDBRANCH  10  11
BRANCH   1  18
HETATM   18  N1  UNL     1      31.376  65.020  10.671  1.00  0.00    -0.384 N 
ATOM     19  H12 UNL     1      31.748  64.084  10.832  1.00  0.00     0.157 HD
ATOM     20  H11 UNL     1      31.006  65.582  11.437  1.00  0.00     0.157 HD
ENDBRANCH   1  18
TORSDOF 3
ENDMDL
MODEL 5
REMARK VINA RESULT: -6.349513715      1.011      1.011
REMARK  3 active torsions:
REMARK  status: ('A' for Active; 'I' for Inactive)
REMARK    1  A    between atoms: N1_1  and  C1_4 
REMARK    2  A    between atoms: C4_13  and  C5_14 
REMARK       I    between atoms: C5_14  and  N5_16 
REMARK    3  A    between atoms: N5_16  and  N6_18 
ROOT
HETATM    1  C1  UNL     1      28.629  66.142   8.003  1.00  0.00     0.131 A 
HETATM    2  N2  UNL     1      29.277  66.699   6.940  1.00  0.00    -0.282 N 
ATOM      3  H2  UNL     1      28.727  67.064   6.163  1.00  0.00     0.188 HD
HETATM    4  N3  UNL     1      30.592  66.780   6.884  1.00  0.00    -0.263 N 
ATOM      5  H3  UNL     1      31.037  67.204   6.071  1.00  0.00     0.190 HD
HETATM    6  C2  UNL     1      31.354  66.311   7.887  1.00  0.00     0.285 A 
HETATM    7  O1  UNL     1      32.613  66.371   7.870  1.00  0.00    -0.265 OA
HETATM    8  C3  UNL     1      30.716  65.747   8.966  1.00  0.00     0.135 A 
HETATM    9  N4  UNL     1      31.508  65.244  10.041  1.00  0.00    -0.095 NA
HETATM   10  C4  UNL     1      29.323  65.637   9.073  1.00  0.00     0.108 A 
ENDROOT
BRANCH  10  11
HETATM   11  C5  UNL     1      28.740  65.025  10.255  1.00  0.00     0.275 C 
HETATM   12  O2  UNL     1      28.031  65.806  10.994  1.00  0.00    -0.266 OA
HETATM   13  N5  UNL     1      28.845  63.715  10.695  1.00  0.00    -0.272 N 
ATOM     14  H5  UNL     1      29.393  63.043  10.158  1.00  0.00     0.189 HD
BRANCH  13  15
HETATM   15  N6  UNL     1      28.198  63.302  11.885  1.00  0.00    -0.342 N 
ATOM     16  H62 UNL     1      28.616  63.549  12.782  1.00  0.00     0.176 HD
ATOM     17  H61 UNL     1      27.330  62.768  11.844  1.00  0.00     0.176 HD
ENDBRANCH  13  15
ENDBRANCH  10  11
BRANCH   1  18
HETATM   18  N1  UNL     1      27.353  66.103   7.979  1.00  0.00    -0.384 N 
ATOM     19  H12 UNL     1      26.861  65.707   7.178  1.00  0.00     0.157 HD
ATOM     20  H11 UNL     1      26.844  66.476   8.781  1.00  0.00     0.157 HD
ENDBRANCH   1  18
TORSDOF 3
ENDMDL
