MODEL 1
REMARK VINA RESULT: -6.650590021      0.000      0.000
REMARK  3 active torsions:
REMARK  status: ('A' for Active; 'I' for Inactive)
REMARK    1  A    between atoms: N1_1  and  C1_4 
REMARK    2  A    between atoms: C4_13  and  C5_14 
REMARK       I    between atoms: C5_14  and  N5_16 
REMARK    3  A    between atoms: N5_16  and  N6_18 
ROOT
HETATM    1  C1  UNL     1      29.044  65.954   8.573  1.00  0.00     0.122 A 
HETATM    2  N2  UNL     1      29.613  66.599   7.513  1.00  0.00    -0.294 N 
ATOM      3  H2  UNL     1      29.001  67.071   6.849  1.00  0.00     0.172 HD
HETATM    4  C2  UNL     1      30.929  66.641   7.303  1.00  0.00     0.327 A 
HETATM    5  O1  UNL     1      31.435  67.252   6.304  1.00  0.00    -0.247 OA
HETATM    6  N3  UNL     1      31.700  66.008   8.200  1.00  0.00    -0.296 N 
ATOM      7  H3  UNL     1      32.710  66.026   8.062  1.00  0.00     0.171 HD
HETATM    8  C3  UNL     1      31.221  65.358   9.259  1.00  0.00     0.139 A 
HETATM    9  N4  UNL     1      32.101  64.714  10.159  1.00  0.00    -0.081 NA
HETATM   10  C4  UNL     1      29.825  65.308   9.489  1.00  0.00     0.118 A 
ENDROOT
BRANCH  10  11
HETATM   11  C5  UNL     1      29.343  64.600  10.637  1.00  0.00     0.276 C 
HETATM   12  O2  UNL     1      28.557  63.606  10.411  1.00  0.00    -0.266 OA
HETATM   13  N5  UNL     1      29.617  64.847  11.979  1.00  0.00    -0.272 N 
ATOM     14  H5  UNL     1      30.233  65.619  12.237  1.00  0.00     0.189 HD
BRANCH  13  15
HETATM   15  N6  UNL     1      29.040  64.024  12.997  1.00  0.00    -0.342 N 
ATOM     16  H62 UNL     1      29.477  63.128  13.212  1.00  0.00     0.176 HD
ATOM     17  H61 UNL     1      28.206  64.333  13.497  1.00  0.00     0.176 HD
ENDBRANCH  13  15
ENDBRANCH  10  11
BRANCH   1  18
HETATM   18  N1  UNL     1      27.768  65.961   8.703  1.00  0.00    -0.384 N 
ATOM     19  H12 UNL     1      27.292  66.792   9.054  1.00  0.00     0.157 HD
ATOM     20  H11 UNL     1      27.235  65.128   8.452  1.00  0.00     0.157 HD
ENDBRANCH   1  18
TORSDOF 3
ENDMDL
MODEL 2
REMARK VINA RESULT: -6.464435541      0.267      2.268
REMARK  3 active torsions:
REMARK  status: ('A' for Active; 'I' for Inactive)
REMARK    1  A    between atoms: N1_1  and  C1_4 
REMARK    2  A    between atoms: C4_13  and  C5_14 
REMARK       I    between atoms: C5_14  and  N5_16 
REMARK    3  A    between atoms: N5_16  and  N6_18 
ROOT
HETATM    1  C1  UNL     1      31.408  65.415   9.267  1.00  0.00     0.122 A 
HETATM    2  N2  UNL     1      31.879  66.109   8.190  1.00  0.00    -0.294 N 
ATOM      3  H2  UNL     1      32.887  66.228   8.093  1.00  0.00     0.172 HD
HETATM    4  C2  UNL     1      31.086  66.641   7.259  1.00  0.00     0.327 A 
HETATM    5  O1  UNL     1      31.552  67.286   6.262  1.00  0.00    -0.247 OA
HETATM    6  N3  UNL     1      29.767  66.463   7.423  1.00  0.00    -0.296 N 
ATOM      7  H3  UNL     1      29.139  66.860   6.724  1.00  0.00     0.171 HD
HETATM    8  C3  UNL     1      29.231  65.799   8.445  1.00  0.00     0.139 A 
HETATM    9  N4  UNL     1      27.828  65.655   8.546  1.00  0.00    -0.081 NA
HETATM   10  C4  UNL     1      30.066  65.231   9.437  1.00  0.00     0.118 A 
ENDROOT
BRANCH  10  11
HETATM   11  C5  UNL     1      29.457  64.523  10.524  1.00  0.00     0.276 C 
HETATM   12  O2  UNL     1      28.900  63.399  10.237  1.00  0.00    -0.266 OA
HETATM   13  N5  UNL     1      29.389  64.896  11.863  1.00  0.00    -0.272 N 
ATOM     14  H5  UNL     1      29.809  65.775  12.167  1.00  0.00     0.189 HD
BRANCH  13  15
HETATM   15  N6  UNL     1      28.735  64.051  12.815  1.00  0.00    -0.342 N 
ATOM     16  H62 UNL     1      27.795  63.713  12.609  1.00  0.00     0.176 HD
ATOM     17  H61 UNL     1      29.204  63.796  13.684  1.00  0.00     0.176 HD
ENDBRANCH  13  15
ENDBRANCH  10  11
BRANCH   1  18
HETATM   18  N1  UNL     1      32.239  64.935  10.118  1.00  0.00    -0.384 N 
ATOM     19  H12 UNL     1      32.119  65.121  11.114  1.00  0.00     0.157 HD
ATOM     20  H11 UNL     1      33.019  64.365   9.790  1.00  0.00     0.157 HD
ENDBRANCH   1  18
TORSDOF 3
ENDMDL
MODEL 3
REMARK VINA RESULT: -6.161099522      2.091      4.262
REMARK  3 active torsions:
REMARK  status: ('A' for Active; 'I' for Inactive)
REMARK    1  A    between atoms: N1_1  and  C1_4 
REMARK    2  A    between atoms: C4_13  and  C5_14 
REMARK       I    between atoms: C5_14  and  N5_16 
REMARK    3  A    between atoms: N5_16  and  N6_18 
ROOT
HETATM    1  C1  UNL     1      28.924  66.234  10.546  1.00  0.00     0.122 A 
HETATM    2  N2  UNL     1      27.572  66.357  10.682  1.00  0.00    -0.294 N 
ATOM      3  H2  UNL     1      27.195  66.571  11.605  1.00  0.00     0.172 HD
HETATM    4  C2  UNL     1      26.719  66.212   9.668  1.00  0.00     0.327 A 
HETATM    5  O1  UNL     1      25.458  66.333   9.821  1.00  0.00    -0.247 OA
HETATM    6  N3  UNL     1      27.253  65.931   8.470  1.00  0.00    -0.296 N 
ATOM      7  H3  UNL     1      26.622  65.815   7.678  1.00  0.00     0.171 HD
HETATM    8  C3  UNL     1      28.561  65.795   8.258  1.00  0.00     0.139 A 
HETATM    9  N4  UNL     1      29.047  65.497   6.963  1.00  0.00    -0.081 NA
HETATM   10  C4  UNL     1      29.473  65.948   9.329  1.00  0.00     0.118 A 
ENDROOT
BRANCH  10  11
HETATM   11  C5  UNL     1      30.874  65.794   9.066  1.00  0.00     0.276 C 
HETATM   12  O2  UNL     1      31.515  64.980   9.829  1.00  0.00    -0.266 OA
HETATM   13  N5  UNL     1      31.638  66.417   8.084  1.00  0.00    -0.272 N 
ATOM     14  H5  UNL     1      31.199  67.077   7.441  1.00  0.00     0.189 HD
BRANCH  13  15
HETATM   15  N6  UNL     1      33.036  66.135   7.972  1.00  0.00    -0.342 N 
ATOM     16  H62 UNL     1      33.409  65.300   8.424  1.00  0.00     0.176 HD
ATOM     17  H61 UNL     1      33.647  66.762   7.447  1.00  0.00     0.176 HD
ENDBRANCH  13  15
ENDBRANCH  10  11
BRANCH   1  18
HETATM   18  N1  UNL     1      29.677  66.389  11.574  1.00  0.00    -0.384 N 
ATOM     19  H12 UNL     1      29.335  66.143  12.503  1.00  0.00     0.157 HD
ATOM     20  H11 UNL     1      30.619  66.759  11.452  1.00  0.00     0.157 HD
ENDBRANCH   1  18
TORSDOF 3
ENDMDL
MODEL 4
REMARK VINA RESULT: -6.083373040      1.600      4.261
REMARK  3 active torsions:
REMARK  status: ('A' for Active; 'I' for Inactive)
REMARK    1  A    between atoms: N1_1  and  C1_4 
REMARK    2  A    between atoms: C4_13  and  C5_14 
REMARK       I    between atoms: C5_14  and  N5_16 
REMARK    3  A    between atoms: N5_16  and  N6_18 
ROOT
HETATM    1  C1  UNL     1      28.008  65.688   9.300  1.00  0.00     0.122 A 
HETATM    2  N2  UNL     1      27.515  65.428  10.545  1.00  0.00    -0.294 N 
ATOM      3  H2  UNL     1      26.511  65.521  10.698  1.00  0.00     0.172 HD
HETATM    4  C2  UNL     1      28.280  65.059  11.573  1.00  0.00     0.327 A 
HETATM    5  O1  UNL     1      27.793  64.821  12.728  1.00  0.00    -0.247 OA
HETATM    6  N3  UNL     1      29.594  64.948  11.332  1.00  0.00    -0.296 N 
ATOM      7  H3  UNL     1      30.202  64.667  12.101  1.00  0.00     0.171 HD
HETATM    8  C3  UNL     1      30.151  65.184  10.145  1.00  0.00     0.139 A 
HETATM    9  N4  UNL     1      31.548  65.046   9.971  1.00  0.00    -0.081 NA
HETATM   10  C4  UNL     1      29.345  65.576   9.050  1.00  0.00     0.118 A 
ENDROOT
BRANCH  10  11
HETATM   11  C5  UNL     1      29.976  65.824   7.787  1.00  0.00     0.276 C 
HETATM   12  O2  UNL     1      29.514  65.174   6.777  1.00  0.00    -0.266 OA
HETATM   13  N5  UNL     1      31.034  66.684   7.507  1.00  0.00    -0.272 N 
ATOM     14  H5  UNL     1      31.453  67.233   8.258  1.00  0.00     0.189 HD
BRANCH  13  15
HETATM   15  N6  UNL     1      31.535  66.802   6.172  1.00  0.00    -0.342 N 
ATOM     16  H62 UNL     1      31.640  65.957   5.609  1.00  0.00     0.176 HD
ATOM     17  H61 UNL     1      31.781  67.716   5.794  1.00  0.00     0.176 HD
ENDBRANCH  13  15
ENDBRANCH  10  11
BRANCH   1  18
HETATM   18  N1  UNL     1      27.203  66.038   8.364  1.00  0.00    -0.384 N 
ATOM     19  H12 UNL     1      26.258  66.349   8.590  1.00  0.00     0.157 HD
ATOM     20  H11 UNL     1      27.517  66.004   7.395  1.00  0.00     0.157 HD
ENDBRANCH   1  18
TORSDOF 3
ENDMDL
MODEL 5
REMARK VINA RESULT: -5.965854183      1.496      3.069
REMARK  3 active torsions:
REMARK  status: ('A' for Active; 'I' for Inactive)
REMARK    1  A    between atoms: N1_1  and  C1_4 
REMARK    2  A    between atoms: C4_13  and  C5_14 
REMARK       I    between atoms: C5_14  and  N5_16 
REMARK    3  A    between atoms: N5_16  and  N6_18 
ROOT
HETATM    1  C1  UNL     1      30.040  65.566   9.935  1.00  0.00     0.122 A 
HETATM    2  N2  UNL     1      31.322  65.822   9.545  1.00  0.00    -0.294 N 
ATOM      3  H2  UNL     1      32.069  65.708  10.230  1.00  0.00     0.172 HD
HETATM    4  C2  UNL     1      31.647  66.215   8.313  1.00  0.00     0.327 A 
HETATM    5  O1  UNL     1      32.855  66.448   7.974  1.00  0.00    -0.247 OA
HETATM    6  N3  UNL     1      30.638  66.353   7.441  1.00  0.00    -0.296 N 
ATOM      7  H3  UNL     1      30.860  66.652   6.492  1.00  0.00     0.171 HD
HETATM    8  C3  UNL     1      29.362  66.122   7.745  1.00  0.00     0.139 A 
HETATM    9  N4  UNL     1      28.353  66.291   6.769  1.00  0.00    -0.081 NA
HETATM   10  C4  UNL     1      29.008  65.705   9.051  1.00  0.00     0.118 A 
ENDROOT
BRANCH  10  11
HETATM   11  C5  UNL     1      27.626  65.466   9.345  1.00  0.00     0.276 C 
HETATM   12  O2  UNL     1      27.325  64.289   9.770  1.00  0.00    -0.266 OA
HETATM   13  N5  UNL     1      26.557  66.349   9.231  1.00  0.00    -0.272 N 
ATOM     14  H5  UNL     1      26.718  67.301   8.900  1.00  0.00     0.189 HD
BRANCH  13  15
HETATM   15  N6  UNL     1      25.233  65.928   9.575  1.00  0.00    -0.342 N 
ATOM     16  H62 UNL     1      25.076  64.952   9.825  1.00  0.00     0.176 HD
ATOM     17  H61 UNL     1      24.463  66.597   9.571  1.00  0.00     0.176 HD
ENDBRANCH  13  15
ENDBRANCH  10  11
BRANCH   1  18
HETATM   18  N1  UNL     1      29.812  65.192  11.140  1.00  0.00    -0.384 N 
ATOM     19  H12 UNL     1      29.070  64.519  11.337  1.00  0.00     0.157 HD
ATOM     20  H11 UNL     1      30.378  65.572  11.899  1.00  0.00     0.157 HD
ENDBRANCH   1  18
TORSDOF 3
ENDMDL
