MODEL 1
REMARK VINA RESULT: -8.084628802      0.000      0.000
REMARK  6 active torsions:
REMARK  status: ('A' for Active; 'I' for Inactive)
REMARK    1  A    between atoms: C2_2  and  N1_3 
REMARK    2  A    between atoms: C2_2  and  C3_7 
REMARK    3  A    between atoms: C3_7  and  N2_8 
REMARK    4  A    between atoms: N2_8  and  C4_10 
REMARK    5  A    between atoms: C7_15  and  C8_16 
REMARK    6  A    between atoms: C11_22  and  N6_23 
ROOT
HETATM    1  C8  UNL     1      25.666  63.200  14.522  1.00  0.00     0.117 A 
HETATM    2  N4  UNL     1      26.321  63.533  15.674  1.00  0.00    -0.339 N 
ATOM      3  H4  UNL     1      27.338  63.611  15.660  1.00  0.00     0.167 HD
HETATM    4  C9  UNL     1      25.676  63.758  16.806  1.00  0.00     0.158 A 
HETATM    5  C10 UNL     1      26.363  64.113  18.034  1.00  0.00     0.121 C 
HETATM    6  N5  UNL     1      26.923  64.392  18.992  1.00  0.00    -0.190 NA
HETATM    7  C11 UNL     1      24.299  63.662  16.866  1.00  0.00     0.139 A 
HETATM    8  N7  UNL     1      23.610  63.337  15.760  1.00  0.00    -0.315 N 
ATOM      9  H7  UNL     1      22.592  63.260  15.779  1.00  0.00     0.170 HD
HETATM   10  C12 UNL     1      24.311  63.112  14.609  1.00  0.00     0.219 A 
HETATM   11  F1  UNL     1      23.556  62.795  13.559  1.00  0.00    -0.184 F 
ENDROOT
BRANCH   7  12
HETATM   12  N6  UNL     1      23.693  63.890  17.996  1.00  0.00    -0.383 N 
ATOM     13  H62 UNL     1      23.896  63.332  18.826  1.00  0.00     0.157 HD
ATOM     14  H61 UNL     1      23.003  64.639  18.050  1.00  0.00     0.157 HD
ENDBRANCH   7  12
BRANCH   1  15
HETATM   15  C7  UNL     1      26.460  62.968  13.313  1.00  0.00     0.069 A 
HETATM   16  C6  UNL     1      27.529  63.850  13.097  1.00  0.00     0.064 A 
HETATM   17  C5  UNL     1      28.330  63.712  11.990  1.00  0.00     0.084 A 
HETATM   18  N3  UNL     1      29.410  64.425  11.563  1.00  0.00    -0.189 N 
HETATM   19  C14 UNL     1      28.080  62.702  11.090  1.00  0.00     0.144 A 
HETATM   20  C4  UNL     1      29.820  63.867  10.419  1.00  0.00     0.679 A 
ATOM     21  H3  UNL     1      29.827  65.232  12.029  1.00  0.00     0.184 HD
HETATM   22  N9  UNL     1      29.023  62.826  10.125  1.00  0.00    -0.184 N 
ATOM     23  H9  UNL     1      29.114  62.224   9.307  1.00  0.00     0.184 HD
HETATM   24  C13 UNL     1      27.034  61.832  11.293  1.00  0.00     0.275 A 
HETATM   25  N8  UNL     1      26.276  62.022  12.410  1.00  0.00    -0.319 N 
HETATM   26  O1  UNL     1      26.785  60.902  10.483  1.00  0.00    -0.266 OA
ATOM     27  H8  UNL     1      25.501  61.379  12.562  1.00  0.00     0.169 HD
BRANCH  20  28
HETATM   28  N2  UNL     1      30.817  64.261   9.712  1.00  0.00    -0.224 N 
ATOM     29  H2  UNL     1      31.661  63.688   9.715  1.00  0.00     0.177 HD
BRANCH  28  30
HETATM   30  C3  UNL     1      30.818  65.451   8.920  1.00  0.00     0.170 C 
BRANCH  30  31
HETATM   31  C2  UNL     1      30.685  65.153   7.438  1.00  0.00     0.197 C 
HETATM   32  C1  UNL     1      29.222  65.212   7.062  1.00  0.00     0.041 C 
BRANCH  31  33
HETATM   33  N1  UNL     1      31.385  66.150   6.686  1.00  0.00    -0.074 N 
ATOM     34  H13 UNL     1      31.472  65.908   5.699  1.00  0.00     0.274 HD
ATOM     35  H12 UNL     1      30.844  67.007   6.572  1.00  0.00     0.274 HD
ATOM     36  H11 UNL     1      32.289  66.312   7.131  1.00  0.00     0.274 HD
ENDBRANCH  31  33
ENDBRANCH  30  31
ENDBRANCH  28  30
ENDBRANCH  20  28
ENDBRANCH   1  15
TORSDOF 6
ENDMDL
MODEL 2
REMARK VINA RESULT: -8.029197231      2.286      8.076
REMARK  6 active torsions:
REMARK  status: ('A' for Active; 'I' for Inactive)
REMARK    1  A    between atoms: C2_2  and  N1_3 
REMARK    2  A    between atoms: C2_2  and  C3_7 
REMARK    3  A    between atoms: C3_7  and  N2_8 
REMARK    4  A    between atoms: N2_8  and  C4_10 
REMARK    5  A    between atoms: C7_15  and  C8_16 
REMARK    6  A    between atoms: C11_22  and  N6_23 
ROOT
HETATM    1  C8  UNL     1      28.402  64.434  10.592  1.00  0.00     0.117 A 
HETATM    2  N4  UNL     1      29.698  64.671  10.231  1.00  0.00    -0.339 N 
ATOM      3  H4  UNL     1      30.443  64.474  10.900  1.00  0.00     0.167 HD
HETATM    4  C9  UNL     1      30.017  65.148   9.039  1.00  0.00     0.158 A 
HETATM    5  C10 UNL     1      31.391  65.403   8.647  1.00  0.00     0.121 C 
HETATM    6  N5  UNL     1      32.481  65.597   8.356  1.00  0.00    -0.190 NA
HETATM    7  C11 UNL     1      29.038  65.429   8.105  1.00  0.00     0.139 A 
HETATM    8  N7  UNL     1      27.749  65.213   8.412  1.00  0.00    -0.315 N 
ATOM      9  H7  UNL     1      27.009  65.412   7.739  1.00  0.00     0.170 HD
HETATM   10  C12 UNL     1      27.459  64.719   9.652  1.00  0.00     0.219 A 
HETATM   11  F1  UNL     1      26.160  64.533   9.880  1.00  0.00    -0.184 F 
ENDROOT
BRANCH   7  12
HETATM   12  N6  UNL     1      29.386  65.898   6.940  1.00  0.00    -0.383 N 
ATOM     13  H62 UNL     1      30.281  65.653   6.518  1.00  0.00     0.157 HD
ATOM     14  H61 UNL     1      28.750  66.523   6.445  1.00  0.00     0.157 HD
ENDBRANCH   7  12
BRANCH   1  15
HETATM   15  C7  UNL     1      28.139  63.905  11.932  1.00  0.00     0.069 A 
HETATM   16  C6  UNL     1      28.016  64.854  12.958  1.00  0.00     0.064 A 
HETATM   17  C5  UNL     1      27.770  64.453  14.248  1.00  0.00     0.084 A 
HETATM   18  N3  UNL     1      27.610  65.164  15.399  1.00  0.00    -0.189 N 
HETATM   19  C14 UNL     1      27.644  63.112  14.533  1.00  0.00     0.144 A 
HETATM   20  C4  UNL     1      27.391  64.280  16.378  1.00  0.00     0.679 A 
ATOM     21  H3  UNL     1      27.651  66.179  15.495  1.00  0.00     0.184 HD
HETATM   22  N9  UNL     1      27.408  63.039  15.865  1.00  0.00    -0.184 N 
ATOM     23  H9  UNL     1      27.267  62.178  16.393  1.00  0.00     0.184 HD
HETATM   24  C13 UNL     1      27.763  62.174  13.533  1.00  0.00     0.275 A 
HETATM   25  N8  UNL     1      28.007  62.637  12.274  1.00  0.00    -0.319 N 
HETATM   26  O1  UNL     1      27.653  60.944  13.770  1.00  0.00    -0.266 OA
ATOM     27  H8  UNL     1      28.096  61.943  11.533  1.00  0.00     0.169 HD
BRANCH  20  28
HETATM   28  N2  UNL     1      27.193  64.569  17.614  1.00  0.00    -0.224 N 
ATOM     29  H2  UNL     1      26.569  63.967  18.151  1.00  0.00     0.177 HD
BRANCH  28  30
HETATM   30  C3  UNL     1      27.792  65.680  18.284  1.00  0.00     0.170 C 
BRANCH  30  31
HETATM   31  C2  UNL     1      28.296  65.311  19.667  1.00  0.00     0.197 C 
HETATM   32  C1  UNL     1      27.153  64.712  20.455  1.00  0.00     0.041 C 
BRANCH  31  33
HETATM   33  N1  UNL     1      29.329  64.327  19.551  1.00  0.00    -0.074 N 
ATOM     34  H13 UNL     1      29.914  64.467  18.728  1.00  0.00     0.274 HD
ATOM     35  H12 UNL     1      30.055  64.436  20.259  1.00  0.00     0.274 HD
ATOM     36  H11 UNL     1      28.896  63.403  19.571  1.00  0.00     0.274 HD
ENDBRANCH  31  33
ENDBRANCH  30  31
ENDBRANCH  28  30
ENDBRANCH  20  28
ENDBRANCH   1  15
TORSDOF 6
ENDMDL
MODEL 3
REMARK VINA RESULT: -7.997136337      1.938      7.995
REMARK  6 active torsions:
REMARK  status: ('A' for Active; 'I' for Inactive)
REMARK    1  A    between atoms: C2_2  and  N1_3 
REMARK    2  A    between atoms: C2_2  and  C3_7 
REMARK    3  A    between atoms: C3_7  and  N2_8 
REMARK    4  A    between atoms: N2_8  and  C4_10 
REMARK    5  A    between atoms: C7_15  and  C8_16 
REMARK    6  A    between atoms: C11_22  and  N6_23 
ROOT
HETATM    1  C8  UNL     1      28.085  64.334  10.733  1.00  0.00     0.117 A 
HETATM    2  N4  UNL     1      29.389  64.555  10.390  1.00  0.00    -0.339 N 
ATOM      3  H4  UNL     1      30.125  64.289  11.044  1.00  0.00     0.167 HD
HETATM    4  C9  UNL     1      29.725  65.105   9.235  1.00  0.00     0.158 A 
HETATM    5  C10 UNL     1      31.107  65.345   8.862  1.00  0.00     0.121 C 
HETATM    6  N5  UNL     1      32.204  65.525   8.586  1.00  0.00    -0.190 NA
HETATM    7  C11 UNL     1      28.758  65.481   8.323  1.00  0.00     0.139 A 
HETATM    8  N7  UNL     1      27.462  65.284   8.614  1.00  0.00    -0.315 N 
ATOM      9  H7  UNL     1      26.729  65.553   7.957  1.00  0.00     0.170 HD
HETATM   10  C12 UNL     1      27.153  64.713   9.817  1.00  0.00     0.219 A 
HETATM   11  F1  UNL     1      25.849  64.552  10.030  1.00  0.00    -0.184 F 
ENDROOT
BRANCH   7  12
HETATM   12  N6  UNL     1      29.122  66.020   7.195  1.00  0.00    -0.383 N 
ATOM     13  H62 UNL     1      29.614  65.479   6.485  1.00  0.00     0.157 HD
ATOM     14  H61 UNL     1      28.911  67.004   7.021  1.00  0.00     0.157 HD
ENDBRANCH   7  12
BRANCH   1  15
HETATM   15  C7  UNL     1      27.803  63.720  12.033  1.00  0.00     0.069 A 
HETATM   16  C6  UNL     1      27.282  64.571  13.019  1.00  0.00     0.064 A 
HETATM   17  C5  UNL     1      26.986  64.086  14.269  1.00  0.00     0.084 A 
HETATM   18  N3  UNL     1      26.480  64.696  15.377  1.00  0.00    -0.189 N 
HETATM   19  C14 UNL     1      27.204  62.757  14.553  1.00  0.00     0.144 A 
HETATM   20  C4  UNL     1      26.387  63.762  16.330  1.00  0.00     0.679 A 
ATOM     21  H3  UNL     1      26.221  65.679  15.463  1.00  0.00     0.184 HD
HETATM   22  N9  UNL     1      26.821  62.588  15.842  1.00  0.00    -0.184 N 
ATOM     23  H9  UNL     1      26.857  61.710  16.359  1.00  0.00     0.184 HD
HETATM   24  C13 UNL     1      27.715  61.914  13.593  1.00  0.00     0.275 A 
HETATM   25  N8  UNL     1      27.987  62.457  12.373  1.00  0.00    -0.319 N 
HETATM   26  O1  UNL     1      27.923  60.697  13.830  1.00  0.00    -0.266 OA
ATOM     27  H8  UNL     1      28.366  61.834  11.660  1.00  0.00     0.169 HD
BRANCH  20  28
HETATM   28  N2  UNL     1      25.952  63.954  17.523  1.00  0.00    -0.224 N 
ATOM     29  H2  UNL     1      26.601  63.811  18.297  1.00  0.00     0.177 HD
BRANCH  28  30
HETATM   30  C3  UNL     1      24.616  64.355  17.835  1.00  0.00     0.170 C 
BRANCH  30  31
HETATM   31  C2  UNL     1      23.582  63.522  17.100  1.00  0.00     0.197 C 
HETATM   32  C1  UNL     1      22.767  62.755  18.117  1.00  0.00     0.041 C 
BRANCH  31  33
HETATM   33  N1  UNL     1      22.701  64.386  16.375  1.00  0.00    -0.074 N 
ATOM     34  H13 UNL     1      21.986  63.874  15.859  1.00  0.00     0.274 HD
ATOM     35  H12 UNL     1      22.079  64.914  16.986  1.00  0.00     0.274 HD
ATOM     36  H11 UNL     1      23.264  64.987  15.773  1.00  0.00     0.274 HD
ENDBRANCH  31  33
ENDBRANCH  30  31
ENDBRANCH  28  30
ENDBRANCH  20  28
ENDBRANCH   1  15
TORSDOF 6
ENDMDL
MODEL 4
REMARK VINA RESULT: -7.946740034      1.923      2.533
REMARK  6 active torsions:
REMARK  status: ('A' for Active; 'I' for Inactive)
REMARK    1  A    between atoms: C2_2  and  N1_3 
REMARK    2  A    between atoms: C2_2  and  C3_7 
REMARK    3  A    between atoms: C3_7  and  N2_8 
REMARK    4  A    between atoms: N2_8  and  C4_10 
REMARK    5  A    between atoms: C7_15  and  C8_16 
REMARK    6  A    between atoms: C11_22  and  N6_23 
ROOT
HETATM    1  C8  UNL     1      27.433  64.332  16.383  1.00  0.00     0.117 A 
HETATM    2  N4  UNL     1      28.493  64.443  17.239  1.00  0.00    -0.339 N 
ATOM      3  H4  UNL     1      29.436  64.289  16.883  1.00  0.00     0.167 HD
HETATM    4  C9  UNL     1      28.331  64.743  18.517  1.00  0.00     0.158 A 
HETATM    5  C10 UNL     1      29.450  64.863  19.434  1.00  0.00     0.121 C 
HETATM    6  N5  UNL     1      30.346  64.953  20.141  1.00  0.00    -0.190 NA
HETATM    7  C11 UNL     1      27.071  64.957  19.039  1.00  0.00     0.139 A 
HETATM    8  N7  UNL     1      25.997  64.860  18.238  1.00  0.00    -0.315 N 
ATOM      9  H7  UNL     1      25.056  65.014  18.600  1.00  0.00     0.170 HD
HETATM   10  C12 UNL     1      26.203  64.548  16.924  1.00  0.00     0.219 A 
HETATM   11  F1  UNL     1      25.091  64.470  16.197  1.00  0.00    -0.184 F 
ENDROOT
BRANCH   7  12
HETATM   12  N6  UNL     1      26.946  65.252  20.302  1.00  0.00    -0.383 N 
ATOM     13  H62 UNL     1      27.411  64.699  21.022  1.00  0.00     0.157 HD
ATOM     14  H61 UNL     1      26.371  66.050  20.574  1.00  0.00     0.157 HD
ENDBRANCH   7  12
BRANCH   1  15
HETATM   15  C7  UNL     1      27.703  63.996  14.984  1.00  0.00     0.069 A 
HETATM   16  C6  UNL     1      28.126  65.053  14.164  1.00  0.00     0.064 A 
HETATM   17  C5  UNL     1      28.402  64.835  12.837  1.00  0.00     0.084 A 
HETATM   18  N3  UNL     1      28.821  65.678  11.852  1.00  0.00    -0.189 N 
HETATM   19  C14 UNL     1      28.264  63.571  12.311  1.00  0.00     0.144 A 
HETATM   20  C4  UNL     1      28.938  64.949  10.736  1.00  0.00     0.679 A 
ATOM     21  H3  UNL     1      29.009  66.676  11.947  1.00  0.00     0.184 HD
HETATM   22  N9  UNL     1      28.604  63.676  11.004  1.00  0.00    -0.184 N 
ATOM     23  H9  UNL     1      28.606  62.910  10.330  1.00  0.00     0.184 HD
HETATM   24  C13 UNL     1      27.850  62.527  13.106  1.00  0.00     0.275 A 
HETATM   25  N8  UNL     1      27.591  62.809  14.415  1.00  0.00    -0.319 N 
HETATM   26  O1  UNL     1      27.715  61.364  12.648  1.00  0.00    -0.266 OA
ATOM     27  H8  UNL     1      27.284  62.037  15.005  1.00  0.00     0.169 HD
BRANCH  20  28
HETATM   28  N2  UNL     1      29.310  65.394   9.591  1.00  0.00    -0.224 N 
ATOM     29  H2  UNL     1      28.706  66.067   9.120  1.00  0.00     0.177 HD
BRANCH  28  30
HETATM   30  C3  UNL     1      30.518  65.005   8.933  1.00  0.00     0.170 C 
BRANCH  30  31
HETATM   31  C2  UNL     1      30.394  65.071   7.422  1.00  0.00     0.197 C 
HETATM   32  C1  UNL     1      28.968  65.430   7.069  1.00  0.00     0.041 C 
BRANCH  31  33
HETATM   33  N1  UNL     1      31.256  66.096   6.917  1.00  0.00    -0.074 N 
ATOM     34  H13 UNL     1      31.183  66.207   5.905  1.00  0.00     0.274 HD
ATOM     35  H12 UNL     1      30.950  67.032   7.182  1.00  0.00     0.274 HD
ATOM     36  H11 UNL     1      32.209  65.894   7.221  1.00  0.00     0.274 HD
ENDBRANCH  31  33
ENDBRANCH  30  31
ENDBRANCH  28  30
ENDBRANCH  20  28
ENDBRANCH   1  15
TORSDOF 6
ENDMDL
MODEL 5
REMARK VINA RESULT: -7.926563166      1.242      1.388
REMARK  6 active torsions:
REMARK  status: ('A' for Active; 'I' for Inactive)
REMARK    1  A    between atoms: C2_2  and  N1_3 
REMARK    2  A    between atoms: C2_2  and  C3_7 
REMARK    3  A    between atoms: C3_7  and  N2_8 
REMARK    4  A    between atoms: N2_8  and  C4_10 
REMARK    5  A    between atoms: C7_15  and  C8_16 
REMARK    6  A    between atoms: C11_22  and  N6_23 
ROOT
HETATM    1  C8  UNL     1      24.746  63.009  14.665  1.00  0.00     0.117 A 
HETATM    2  N4  UNL     1      25.090  63.571  15.862  1.00  0.00    -0.339 N 
ATOM      3  H4  UNL     1      26.029  63.953  15.978  1.00  0.00     0.167 HD
HETATM    4  C9  UNL     1      24.243  63.633  16.876  1.00  0.00     0.158 A 
HETATM    5  C10 UNL     1      24.600  64.228  18.151  1.00  0.00     0.121 C 
HETATM    6  N5  UNL     1      24.901  64.701  19.149  1.00  0.00    -0.190 NA
HETATM    7  C11 UNL     1      22.963  63.126  16.760  1.00  0.00     0.139 A 
HETATM    8  N7  UNL     1      22.577  62.564  15.603  1.00  0.00    -0.315 N 
ATOM      9  H7  UNL     1      21.637  62.183  15.493  1.00  0.00     0.170 HD
HETATM   10  C12 UNL     1      23.479  62.518  14.579  1.00  0.00     0.219 A 
HETATM   11  F1  UNL     1      23.021  61.946  13.467  1.00  0.00    -0.184 F 
ENDROOT
BRANCH   7  12
HETATM   12  N6  UNL     1      22.153  63.204  17.777  1.00  0.00    -0.383 N 
ATOM     13  H62 UNL     1      22.360  62.728  18.655  1.00  0.00     0.157 HD
ATOM     14  H61 UNL     1      21.295  63.750  17.691  1.00  0.00     0.157 HD
ENDBRANCH   7  12
BRANCH   1  15
HETATM   15  C7  UNL     1      25.746  62.982  13.596  1.00  0.00     0.069 A 
HETATM   16  C6  UNL     1      26.698  64.013  13.614  1.00  0.00     0.064 A 
HETATM   17  C5  UNL     1      27.676  64.072  12.652  1.00  0.00     0.084 A 
HETATM   18  N3  UNL     1      28.695  64.954  12.454  1.00  0.00    -0.189 N 
HETATM   19  C14 UNL     1      27.721  63.112  11.667  1.00  0.00     0.144 A 
HETATM   20  C4  UNL     1      29.358  64.548  11.365  1.00  0.00     0.679 A 
ATOM     21  H3  UNL     1      28.911  65.770  13.027  1.00  0.00     0.184 HD
HETATM   22  N9  UNL     1      28.777  63.437  10.884  1.00  0.00    -0.184 N 
ATOM     23  H9  UNL     1      29.083  62.920  10.059  1.00  0.00     0.184 HD
HETATM   24  C13 UNL     1      26.792  62.097  11.641  1.00  0.00     0.275 A 
HETATM   25  N8  UNL     1      25.848  62.095  12.624  1.00  0.00    -0.319 N 
HETATM   26  O1  UNL     1      26.813  61.210  10.750  1.00  0.00    -0.266 OA
ATOM     27  H8  UNL     1      25.159  61.344  12.606  1.00  0.00     0.169 HD
BRANCH  20  28
HETATM   28  N2  UNL     1      30.387  65.127  10.860  1.00  0.00    -0.224 N 
ATOM     29  H2  UNL     1      30.672  66.024  11.253  1.00  0.00     0.177 HD
BRANCH  28  30
HETATM   30  C3  UNL     1      31.158  64.594   9.781  1.00  0.00     0.170 C 
BRANCH  30  31
HETATM   31  C2  UNL     1      30.795  65.227   8.450  1.00  0.00     0.197 C 
HETATM   32  C1  UNL     1      32.052  65.780   7.818  1.00  0.00     0.041 C 
BRANCH  31  33
HETATM   33  N1  UNL     1      30.253  64.228   7.578  1.00  0.00    -0.074 N 
ATOM     34  H13 UNL     1      30.341  64.478   6.593  1.00  0.00     0.274 HD
ATOM     35  H12 UNL     1      30.817  63.379   7.558  1.00  0.00     0.274 HD
ATOM     36  H11 UNL     1      29.287  64.052   7.853  1.00  0.00     0.274 HD
ENDBRANCH  31  33
ENDBRANCH  30  31
ENDBRANCH  28  30
ENDBRANCH  20  28
ENDBRANCH   1  15
TORSDOF 6
ENDMDL
