MODEL 1
REMARK VINA RESULT: -7.927702418      0.000      0.000
REMARK  7 active torsions:
REMARK  status: ('A' for Active; 'I' for Inactive)
REMARK    1  A    between atoms: C3_5  and  N2_6 
REMARK    2  A    between atoms: N2_6  and  C4_8 
REMARK    3  A    between atoms: C4_8  and  C5_9 
REMARK    4  A    between atoms: C5_9  and  N3_10 
REMARK    5  A    between atoms: N3_10  and  C6_12 
REMARK    6  A    between atoms: C9_26  and  N8_27 
REMARK    7  A    between atoms: N8_27  and  O2_29 
ROOT
HETATM    1  C1  UNL     1      29.434  65.391   6.377  1.00  0.00     0.070 C 
HETATM    2  C2  UNL     1      28.745  65.244   7.684  1.00  0.00     0.047 A 
HETATM    3  N1  UNL     1      27.422  65.090   7.812  1.00  0.00    -0.194 N 
ATOM      4  H1  UNL     1      26.845  65.073   6.971  1.00  0.00     0.184 HD
HETATM    5  C3  UNL     1      26.815  64.957   9.029  1.00  0.00     0.680 A 
HETATM    6  N7  UNL     1      27.593  64.984  10.120  1.00  0.00    -0.173 N 
ATOM      7  H7  UNL     1      27.155  64.887  11.036  1.00  0.00     0.186 HD
HETATM    8  C9  UNL     1      28.924  65.134  10.059  1.00  0.00     0.163 A 
HETATM    9  C10 UNL     1      29.523  65.267   8.822  1.00  0.00     0.113 A 
HETATM   10  C11 UNL     1      30.948  65.431   8.723  1.00  0.00     0.105 C 
HETATM   11  N9  UNL     1      32.080  65.543   8.641  1.00  0.00    -0.191 NA
ENDROOT
BRANCH   8  12
HETATM   12  N8  UNL     1      29.614  65.151  11.149  1.00  0.00    -0.251 N 
ATOM     13  H8  UNL     1      30.002  66.032  11.488  1.00  0.00     0.196 HD
BRANCH  12  14
HETATM   14  O2  UNL     1      29.829  64.001  11.854  1.00  0.00    -0.288 OA
ATOM     15  H2  UNL     1      29.506  63.912  12.743  1.00  0.00     0.244 HD
ENDBRANCH  12  14
ENDBRANCH   8  12
BRANCH   5  16
HETATM   16  N2  UNL     1      25.557  64.814   9.089  1.00  0.00    -0.221 N 
ATOM     17  H2  UNL     1      25.004  65.553   9.521  1.00  0.00     0.178 HD
BRANCH  16  18
HETATM   18  C4  UNL     1      24.881  63.668   8.581  1.00  0.00     0.182 C 
BRANCH  18  19
HETATM   19  C5  UNL     1      24.366  62.754   9.684  1.00  0.00     0.083 C 
BRANCH  19  20
HETATM   20  N3  UNL     1      25.329  61.892  10.202  1.00  0.00    -0.350 N 
ATOM     21  H3  UNL     1      25.611  61.102   9.622  1.00  0.00     0.166 HD
BRANCH  20  22
HETATM   22  C6  UNL     1      25.893  62.010  11.354  1.00  0.00     0.177 A 
HETATM   23  N4  UNL     1      24.976  62.139  12.372  1.00  0.00    -0.317 N 
HETATM   24  C7  UNL     1      25.245  62.277  13.659  1.00  0.00     0.160 A 
ATOM     25  H4  UNL     1      23.990  62.126  12.107  1.00  0.00     0.169 HD
HETATM   26  N5  UNL     1      24.309  62.391  14.543  1.00  0.00    -0.379 N 
HETATM   27  S1  UNL     1      26.903  62.295  14.070  1.00  0.00     0.025 SA
ATOM     28  H52 UNL     1      23.320  62.379  14.298  1.00  0.00     0.158 HD
ATOM     29  H51 UNL     1      24.517  62.498  15.536  1.00  0.00     0.158 HD
HETATM   30  N6  UNL     1      27.895  62.130  12.726  1.00  0.00    -0.287 N 
HETATM   31  C8  UNL     1      27.238  62.009  11.544  1.00  0.00     0.295 A 
ATOM     32  H6  UNL     1      28.913  62.122  12.793  1.00  0.00     0.177 HD
HETATM   33  O1  UNL     1      28.026  61.885  10.543  1.00  0.00    -0.263 OA
ENDBRANCH  20  22
ENDBRANCH  19  20
ENDBRANCH  18  19
ENDBRANCH  16  18
ENDBRANCH   5  16
TORSDOF 7
ENDMDL
MODEL 2
REMARK VINA RESULT: -7.841941796      2.215      3.155
REMARK  7 active torsions:
REMARK  status: ('A' for Active; 'I' for Inactive)
REMARK    1  A    between atoms: C3_5  and  N2_6 
REMARK    2  A    between atoms: N2_6  and  C4_8 
REMARK    3  A    between atoms: C4_8  and  C5_9 
REMARK    4  A    between atoms: C5_9  and  N3_10 
REMARK    5  A    between atoms: N3_10  and  C6_12 
REMARK    6  A    between atoms: C9_26  and  N8_27 
REMARK    7  A    between atoms: N8_27  and  O2_29 
ROOT
HETATM    1  C1  UNL     1      27.685  65.187   7.745  1.00  0.00     0.070 C 
HETATM    2  C2  UNL     1      28.403  64.927   9.017  1.00  0.00     0.047 A 
HETATM    3  N1  UNL     1      27.797  64.547  10.149  1.00  0.00    -0.194 N 
ATOM      4  H1  UNL     1      26.784  64.428  10.147  1.00  0.00     0.184 HD
HETATM    5  C3  UNL     1      28.485  64.314  11.306  1.00  0.00     0.680 A 
HETATM    6  N7  UNL     1      29.815  64.478  11.284  1.00  0.00    -0.173 N 
ATOM      7  H7  UNL     1      30.342  64.308  12.141  1.00  0.00     0.186 HD
HETATM    8  C9  UNL     1      30.482  64.855  10.184  1.00  0.00     0.163 A 
HETATM    9  C10 UNL     1      29.772  65.087   9.022  1.00  0.00     0.113 A 
HETATM   10  C11 UNL     1      30.459  65.495   7.826  1.00  0.00     0.105 C 
HETATM   11  N9  UNL     1      31.003  65.800   6.872  1.00  0.00    -0.191 NA
ENDROOT
BRANCH   8  12
HETATM   12  N8  UNL     1      31.763  64.995  10.233  1.00  0.00    -0.251 N 
ATOM     13  H8  UNL     1      32.168  65.928  10.311  1.00  0.00     0.196 HD
BRANCH  12  14
HETATM   14  O2  UNL     1      32.583  63.903  10.180  1.00  0.00    -0.288 OA
ATOM     15  H2  UNL     1      33.516  64.006  10.030  1.00  0.00     0.244 HD
ENDBRANCH  12  14
ENDBRANCH   8  12
BRANCH   5  16
HETATM   16  N2  UNL     1      27.856  63.956  12.346  1.00  0.00    -0.221 N 
ATOM     17  H2  UNL     1      27.043  64.499  12.634  1.00  0.00     0.178 HD
BRANCH  16  18
HETATM   18  C4  UNL     1      28.233  62.829  13.133  1.00  0.00     0.182 C 
BRANCH  18  19
HETATM   19  C5  UNL     1      27.048  62.180  13.833  1.00  0.00     0.083 C 
BRANCH  19  20
HETATM   20  N3  UNL     1      25.971  61.909  12.992  1.00  0.00    -0.350 N 
ATOM     21  H3  UNL     1      26.123  61.239  12.238  1.00  0.00     0.166 HD
BRANCH  20  22
HETATM   22  C6  UNL     1      24.800  62.436  13.089  1.00  0.00     0.177 A 
HETATM   23  N4  UNL     1      24.132  62.016  14.216  1.00  0.00    -0.317 N 
HETATM   24  C7  UNL     1      22.916  62.379  14.590  1.00  0.00     0.160 A 
ATOM     25  H4  UNL     1      24.622  61.359  14.823  1.00  0.00     0.169 HD
HETATM   26  N5  UNL     1      22.371  61.927  15.671  1.00  0.00    -0.379 N 
HETATM   27  S1  UNL     1      22.120  63.478  13.551  1.00  0.00     0.025 SA
ATOM     28  H52 UNL     1      22.846  61.271  16.291  1.00  0.00     0.158 HD
ATOM     29  H51 UNL     1      21.434  62.206  15.959  1.00  0.00     0.158 HD
HETATM   30  N6  UNL     1      23.059  63.895  12.224  1.00  0.00    -0.287 N 
HETATM   31  C8  UNL     1      24.282  63.306  12.183  1.00  0.00     0.295 A 
ATOM     32  H6  UNL     1      22.736  64.541  11.504  1.00  0.00     0.177 HD
HETATM   33  O1  UNL     1      24.969  63.648  11.158  1.00  0.00    -0.263 OA
ENDBRANCH  20  22
ENDBRANCH  19  20
ENDBRANCH  18  19
ENDBRANCH  16  18
ENDBRANCH   5  16
TORSDOF 7
ENDMDL
MODEL 3
REMARK VINA RESULT: -7.732972134      2.151      3.463
REMARK  7 active torsions:
REMARK  status: ('A' for Active; 'I' for Inactive)
REMARK    1  A    between atoms: C3_5  and  N2_6 
REMARK    2  A    between atoms: N2_6  and  C4_8 
REMARK    3  A    between atoms: C4_8  and  C5_9 
REMARK    4  A    between atoms: C5_9  and  N3_10 
REMARK    5  A    between atoms: N3_10  and  C6_12 
REMARK    6  A    between atoms: C9_26  and  N8_27 
REMARK    7  A    between atoms: N8_27  and  O2_29 
ROOT
HETATM    1  C1  UNL     1      27.519  65.201   8.067  1.00  0.00     0.070 C 
HETATM    2  C2  UNL     1      28.443  64.862   9.178  1.00  0.00     0.047 A 
HETATM    3  N1  UNL     1      28.037  64.392  10.364  1.00  0.00    -0.194 N 
ATOM      4  H1  UNL     1      27.039  64.255  10.523  1.00  0.00     0.184 HD
HETATM    5  C3  UNL     1      28.911  64.089  11.370  1.00  0.00     0.680 A 
HETATM    6  N7  UNL     1      30.217  64.277  11.138  1.00  0.00    -0.173 N 
ATOM      7  H7  UNL     1      30.882  64.056  11.880  1.00  0.00     0.186 HD
HETATM    8  C9  UNL     1      30.688  64.744   9.973  1.00  0.00     0.163 A 
HETATM    9  C10 UNL     1      29.792  65.046   8.966  1.00  0.00     0.113 A 
HETATM   10  C11 UNL     1      30.266  65.550   7.705  1.00  0.00     0.105 C 
HETATM   11  N9  UNL     1      30.640  65.932   6.699  1.00  0.00    -0.191 NA
ENDROOT
BRANCH   8  12
HETATM   12  N8  UNL     1      31.959  64.902   9.817  1.00  0.00    -0.251 N 
ATOM     13  H8  UNL     1      32.322  65.805   9.511  1.00  0.00     0.196 HD
BRANCH  12  14
HETATM   14  O2  UNL     1      32.822  63.871  10.058  1.00  0.00    -0.288 OA
ATOM     15  H2  UNL     1      33.715  64.043  10.331  1.00  0.00     0.244 HD
ENDBRANCH  12  14
ENDBRANCH   8  12
BRANCH   5  16
HETATM   16  N2  UNL     1      28.468  63.646  12.471  1.00  0.00    -0.221 N 
ATOM     17  H2  UNL     1      28.586  64.217  13.308  1.00  0.00     0.178 HD
BRANCH  16  18
HETATM   18  C4  UNL     1      27.812  62.387  12.596  1.00  0.00     0.182 C 
BRANCH  18  19
HETATM   19  C5  UNL     1      26.673  62.417  13.606  1.00  0.00     0.083 C 
BRANCH  19  20
HETATM   20  N3  UNL     1      25.414  62.212  13.046  1.00  0.00    -0.350 N 
ATOM     21  H3  UNL     1      24.700  61.793  13.643  1.00  0.00     0.166 HD
BRANCH  20  22
HETATM   22  C6  UNL     1      25.078  62.507  11.839  1.00  0.00     0.177 A 
HETATM   23  N4  UNL     1      24.812  61.388  11.084  1.00  0.00    -0.317 N 
HETATM   24  C7  UNL     1      24.444  61.366   9.815  1.00  0.00     0.160 A 
ATOM     25  H4  UNL     1      24.908  60.485  11.550  1.00  0.00     0.169 HD
HETATM   26  N5  UNL     1      24.216  60.258   9.189  1.00  0.00    -0.379 N 
HETATM   27  S1  UNL     1      24.293  62.893   9.062  1.00  0.00     0.025 SA
ATOM     28  H52 UNL     1      24.306  59.347   9.638  1.00  0.00     0.158 HD
ATOM     29  H51 UNL     1      23.933  60.241   8.209  1.00  0.00     0.158 HD
HETATM   30  N6  UNL     1      24.649  64.157  10.107  1.00  0.00    -0.287 N 
HETATM   31  C8  UNL     1      24.995  63.777  11.364  1.00  0.00     0.295 A 
ATOM     32  H6  UNL     1      24.609  65.134   9.819  1.00  0.00     0.177 HD
HETATM   33  O1  UNL     1      25.259  64.766  12.132  1.00  0.00    -0.263 OA
ENDBRANCH  20  22
ENDBRANCH  19  20
ENDBRANCH  18  19
ENDBRANCH  16  18
ENDBRANCH   5  16
TORSDOF 7
ENDMDL
MODEL 4
REMARK VINA RESULT: -7.726609113      2.113      3.252
REMARK  7 active torsions:
REMARK  status: ('A' for Active; 'I' for Inactive)
REMARK    1  A    between atoms: C3_5  and  N2_6 
REMARK    2  A    between atoms: N2_6  and  C4_8 
REMARK    3  A    between atoms: C4_8  and  C5_9 
REMARK    4  A    between atoms: C5_9  and  N3_10 
REMARK    5  A    between atoms: N3_10  and  C6_12 
REMARK    6  A    between atoms: C9_26  and  N8_27 
REMARK    7  A    between atoms: N8_27  and  O2_29 
ROOT
HETATM    1  C1  UNL     1      27.505  65.171   8.024  1.00  0.00     0.070 C 
HETATM    2  C2  UNL     1      28.350  64.902   9.215  1.00  0.00     0.047 A 
HETATM    3  N1  UNL     1      27.863  64.501  10.395  1.00  0.00    -0.194 N 
ATOM      4  H1  UNL     1      26.856  64.370  10.493  1.00  0.00     0.184 HD
HETATM    5  C3  UNL     1      28.666  64.261  11.475  1.00  0.00     0.680 A 
HETATM    6  N7  UNL     1      29.985  64.441  11.323  1.00  0.00    -0.173 N 
ATOM      7  H7  UNL     1      30.597  64.266  12.120  1.00  0.00     0.186 HD
HETATM    8  C9  UNL     1      30.535  64.840  10.167  1.00  0.00     0.163 A 
HETATM    9  C10 UNL     1      29.711  65.079   9.085  1.00  0.00     0.113 A 
HETATM   10  C11 UNL     1      30.270  65.509   7.832  1.00  0.00     0.105 C 
HETATM   11  N9  UNL     1      30.713  65.833   6.833  1.00  0.00    -0.191 NA
ENDROOT
BRANCH   8  12
HETATM   12  N8  UNL     1      31.814  64.994  10.090  1.00  0.00    -0.251 N 
ATOM     13  H8  UNL     1      32.204  65.927   9.960  1.00  0.00     0.196 HD
BRANCH  12  14
HETATM   14  O2  UNL     1      32.649  63.917  10.180  1.00  0.00    -0.288 OA
ATOM     15  H2  UNL     1      33.586  64.039  10.283  1.00  0.00     0.244 HD
ENDBRANCH  12  14
ENDBRANCH   8  12
BRANCH   5  16
HETATM   16  N2  UNL     1      28.148  63.883  12.568  1.00  0.00    -0.221 N 
ATOM     17  H2  UNL     1      27.975  64.580  13.291  1.00  0.00     0.178 HD
BRANCH  16  18
HETATM   18  C4  UNL     1      27.796  62.528  12.832  1.00  0.00     0.182 C 
BRANCH  18  19
HETATM   19  C5  UNL     1      26.360  62.379  13.314  1.00  0.00     0.083 C 
BRANCH  19  20
HETATM   20  N3  UNL     1      25.489  61.872  12.352  1.00  0.00    -0.350 N 
ATOM     21  H3  UNL     1      25.187  60.903  12.458  1.00  0.00     0.166 HD
BRANCH  20  22
HETATM   22  C6  UNL     1      25.033  62.526  11.341  1.00  0.00     0.177 A 
HETATM   23  N4  UNL     1      24.380  63.677  11.717  1.00  0.00    -0.317 N 
HETATM   24  C7  UNL     1      23.807  64.554  10.911  1.00  0.00     0.160 A 
ATOM     25  H4  UNL     1      24.333  63.873  12.717  1.00  0.00     0.169 HD
HETATM   26  N5  UNL     1      23.215  65.610  11.362  1.00  0.00    -0.379 N 
HETATM   27  S1  UNL     1      23.902  64.197   9.242  1.00  0.00     0.025 SA
ATOM     28  H52 UNL     1      23.158  65.823  12.357  1.00  0.00     0.158 HD
ATOM     29  H51 UNL     1      22.772  66.287  10.739  1.00  0.00     0.158 HD
HETATM   30  N6  UNL     1      24.726  62.766   8.942  1.00  0.00    -0.287 N 
HETATM   31  C8  UNL     1      25.180  62.127  10.051  1.00  0.00     0.295 A 
ATOM     32  H6  UNL     1      24.873  62.404   8.000  1.00  0.00     0.177 HD
HETATM   33  O1  UNL     1      25.803  61.041   9.783  1.00  0.00    -0.263 OA
ENDBRANCH  20  22
ENDBRANCH  19  20
ENDBRANCH  18  19
ENDBRANCH  16  18
ENDBRANCH   5  16
TORSDOF 7
ENDMDL
MODEL 5
REMARK VINA RESULT: -7.658069397      2.439      3.448
REMARK  7 active torsions:
REMARK  status: ('A' for Active; 'I' for Inactive)
REMARK    1  A    between atoms: C3_5  and  N2_6 
REMARK    2  A    between atoms: N2_6  and  C4_8 
REMARK    3  A    between atoms: C4_8  and  C5_9 
REMARK    4  A    between atoms: C5_9  and  N3_10 
REMARK    5  A    between atoms: N3_10  and  C6_12 
REMARK    6  A    between atoms: C9_26  and  N8_27 
REMARK    7  A    between atoms: N8_27  and  O2_29 
ROOT
HETATM    1  C1  UNL     1      28.044  65.479   7.396  1.00  0.00     0.070 C 
HETATM    2  C2  UNL     1      28.685  65.050   8.665  1.00  0.00     0.047 A 
HETATM    3  N1  UNL     1      28.005  64.575   9.716  1.00  0.00    -0.194 N 
ATOM      4  H1  UNL     1      26.990  64.499   9.652  1.00  0.00     0.184 HD
HETATM    5  C3  UNL     1      28.622  64.187  10.872  1.00  0.00     0.680 A 
HETATM    6  N7  UNL     1      29.957  64.296  10.933  1.00  0.00    -0.173 N 
ATOM      7  H7  UNL     1      30.432  64.011  11.790  1.00  0.00     0.186 HD
HETATM    8  C9  UNL     1      30.694  64.763   9.916  1.00  0.00     0.163 A 
HETATM    9  C10 UNL     1      30.056  65.151   8.754  1.00  0.00     0.113 A 
HETATM   10  C11 UNL     1      30.820  65.658   7.645  1.00  0.00     0.105 C 
HETATM   11  N9  UNL     1      31.424  66.042   6.759  1.00  0.00    -0.191 NA
ENDROOT
BRANCH   8  12
HETATM   12  N8  UNL     1      31.976  64.842  10.042  1.00  0.00    -0.251 N 
ATOM     13  H8  UNL     1      32.458  65.702   9.780  1.00  0.00     0.196 HD
BRANCH  12  14
HETATM   14  O2  UNL     1      32.693  63.783  10.523  1.00  0.00    -0.288 OA
ATOM     15  H2  UNL     1      33.371  63.916  11.174  1.00  0.00     0.244 HD
ENDBRANCH  12  14
ENDBRANCH   8  12
BRANCH   5  16
HETATM   16  N2  UNL     1      27.927  63.744  11.834  1.00  0.00    -0.221 N 
ATOM     17  H2  UNL     1      27.535  64.411  12.498  1.00  0.00     0.178 HD
BRANCH  16  18
HETATM   18  C4  UNL     1      27.667  62.357  12.032  1.00  0.00     0.182 C 
BRANCH  18  19
HETATM   19  C5  UNL     1      27.883  61.920  13.473  1.00  0.00     0.083 C 
BRANCH  19  20
HETATM   20  N3  UNL     1      26.707  61.777  14.205  1.00  0.00    -0.350 N 
ATOM     21  H3  UNL     1      26.261  60.859  14.200  1.00  0.00     0.166 HD
BRANCH  20  22
HETATM   22  C6  UNL     1      26.136  62.708  14.888  1.00  0.00     0.177 A 
HETATM   23  N4  UNL     1      26.751  62.916  16.101  1.00  0.00    -0.317 N 
HETATM   24  C7  UNL     1      26.399  63.800  17.019  1.00  0.00     0.160 A 
ATOM     25  H4  UNL     1      27.558  62.329  16.313  1.00  0.00     0.169 HD
HETATM   26  N5  UNL     1      27.042  63.919  18.133  1.00  0.00    -0.379 N 
HETATM   27  S1  UNL     1      25.042  64.765  16.634  1.00  0.00     0.025 SA
ATOM     28  H52 UNL     1      27.851  63.343  18.363  1.00  0.00     0.158 HD
ATOM     29  H51 UNL     1      26.770  64.601  18.842  1.00  0.00     0.158 HD
HETATM   30  N6  UNL     1      24.403  64.396  15.127  1.00  0.00    -0.287 N 
HETATM   31  C8  UNL     1      25.052  63.406  14.460  1.00  0.00     0.295 A 
ATOM     32  H6  UNL     1      23.591  64.877  14.741  1.00  0.00     0.177 HD
HETATM   33  O1  UNL     1      24.537  63.152  13.315  1.00  0.00    -0.263 OA
ENDBRANCH  20  22
ENDBRANCH  19  20
ENDBRANCH  18  19
ENDBRANCH  16  18
ENDBRANCH   5  16
TORSDOF 7
ENDMDL
