MODEL 1
REMARK VINA RESULT: -7.602229239      0.000      0.000
REMARK  8 active torsions:
REMARK  status: ('A' for Active; 'I' for Inactive)
REMARK    1  A    between atoms: C3_3  and  C4_4 
REMARK    2  A    between atoms: C5_5  and  C6_6 
REMARK    3  A    between atoms: N1_7  and  N2_9 
REMARK    4  A    between atoms: N2_9  and  C7_11 
REMARK    5  A    between atoms: C8_14  and  N4_15 
REMARK    6  A    between atoms: C10_21  and  N6_22 
REMARK    7  A    between atoms: N7_25  and  C11_26 
REMARK    8  A    between atoms: C12_28  and  N8_29 
ROOT
HETATM    1  C1  UNL     1      25.326  66.237  21.483  1.00  0.00     0.112 C 
HETATM    2  C2  UNL     1      26.018  65.835  20.252  1.00  0.00    -0.106 C 
HETATM    3  C3  UNL     1      26.584  65.524  19.231  1.00  0.00    -0.079 C 
ENDROOT
BRANCH   3   4
HETATM    4  C4  UNL     1      27.251  65.174  18.016  1.00  0.00     0.066 C 
HETATM    5  C5  UNL     1      26.659  64.458  17.088  1.00  0.00     0.027 C 
BRANCH   5   6
HETATM    6  C6  UNL     1      27.287  64.076  15.840  1.00  0.00     0.108 C 
HETATM    7  N1  UNL     1      27.379  62.854  15.454  1.00  0.00    -0.298 N 
ATOM      8  H1  UNL     1      26.992  62.126  16.053  1.00  0.00     0.186 HD
BRANCH   7   9
HETATM    9  N2  UNL     1      27.979  62.476  14.258  1.00  0.00    -0.132 N 
ATOM     10  H2  UNL     1      28.878  61.995  14.284  1.00  0.00     0.205 HD
BRANCH   9  11
HETATM   11  C7  UNL     1      27.425  62.720  13.108  1.00  0.00     0.700 A 
HETATM   12  N3  UNL     1      26.274  62.089  12.817  1.00  0.00    -0.173 N 
HETATM   13  C8  UNL     1      25.699  62.336  11.633  1.00  0.00     0.146 A 
ATOM     14  H3  UNL     1      25.851  61.439  13.480  1.00  0.00     0.186 HD
HETATM   15  C9  UNL     1      26.236  63.212  10.698  1.00  0.00     0.138 A 
HETATM   16  N5  UNL     1      25.883  63.636   9.471  1.00  0.00    -0.184 N 
HETATM   17  C14 UNL     1      27.416  63.839  11.032  1.00  0.00     0.173 A 
HETATM   18  C10 UNL     1      26.799  64.509   9.017  1.00  0.00     0.682 A 
ATOM     19  H5  UNL     1      25.049  63.339   8.964  1.00  0.00     0.184 HD
HETATM   20  N7  UNL     1      27.744  64.626   9.995  1.00  0.00    -0.135 N 
HETATM   21  N9  UNL     1      27.977  63.575  12.229  1.00  0.00    -0.172 N 
ATOM     22  H9  UNL     1      28.850  64.039  12.477  1.00  0.00     0.186 HD
BRANCH  13  23
HETATM   23  N4  UNL     1      24.598  61.741  11.339  1.00  0.00    -0.383 N 
ATOM     24  H42 UNL     1      24.654  60.847  10.850  1.00  0.00     0.157 HD
ATOM     25  H41 UNL     1      23.715  62.177  11.601  1.00  0.00     0.157 HD
ENDBRANCH  13  23
BRANCH  18  26
HETATM   26  N6  UNL     1      26.830  65.146   7.882  1.00  0.00    -0.234 N 
ATOM     27  H62 UNL     1      27.246  64.779   7.026  1.00  0.00     0.174 HD
ATOM     28  H61 UNL     1      26.467  66.072   7.656  1.00  0.00     0.174 HD
ENDBRANCH  18  26
BRANCH  20  29
HETATM   29  C11 UNL     1      28.919  65.471   9.927  1.00  0.00     0.288 C 
HETATM   30  O1  UNL     1      29.824  65.149  10.928  1.00  0.00    -0.328 OA
HETATM   31  C12 UNL     1      30.435  64.267  10.070  1.00  0.00     0.359 C 
HETATM   32  C13 UNL     1      29.952  65.051   8.901  1.00  0.00     0.275 C 
HETATM   33  F1  UNL     1      30.746  66.104   8.498  1.00  0.00    -0.240 F 
BRANCH  31  34
HETATM   34  N8  UNL     1      31.870  64.189  10.238  1.00  0.00    -0.050 N 
ATOM     35  H83 UNL     1      32.108  63.979  11.207  1.00  0.00     0.277 HD
ATOM     36  H82 UNL     1      32.241  63.354   9.787  1.00  0.00     0.277 HD
ATOM     37  H81 UNL     1      32.366  65.021   9.919  1.00  0.00     0.277 HD
ENDBRANCH  31  34
ENDBRANCH  20  29
ENDBRANCH   9  11
ENDBRANCH   7   9
ENDBRANCH   5   6
ENDBRANCH   3   4
TORSDOF 8
ENDMDL
MODEL 2
REMARK VINA RESULT: -7.443714469      4.149      4.778
REMARK  8 active torsions:
REMARK  status: ('A' for Active; 'I' for Inactive)
REMARK    1  A    between atoms: C3_3  and  C4_4 
REMARK    2  A    between atoms: C5_5  and  C6_6 
REMARK    3  A    between atoms: N1_7  and  N2_9 
REMARK    4  A    between atoms: N2_9  and  C7_11 
REMARK    5  A    between atoms: C8_14  and  N4_15 
REMARK    6  A    between atoms: C10_21  and  N6_22 
REMARK    7  A    between atoms: N7_25  and  C11_26 
REMARK    8  A    between atoms: C12_28  and  N8_29 
ROOT
HETATM    1  C1  UNL     1      35.145  70.716  16.311  1.00  0.00     0.112 C 
HETATM    2  C2  UNL     1      34.157  69.768  15.780  1.00  0.00    -0.106 C 
HETATM    3  C3  UNL     1      33.347  68.977  15.360  1.00  0.00    -0.079 C 
ENDROOT
BRANCH   3   4
HETATM    4  C4  UNL     1      32.390  68.029  14.882  1.00  0.00     0.066 C 
HETATM    5  C5  UNL     1      31.100  68.266  14.937  1.00  0.00     0.027 C 
BRANCH   5   6
HETATM    6  C6  UNL     1      30.088  67.343  14.467  1.00  0.00     0.108 C 
HETATM    7  N1  UNL     1      29.887  66.196  15.012  1.00  0.00    -0.298 N 
ATOM      8  H1  UNL     1      30.465  65.929  15.808  1.00  0.00     0.186 HD
BRANCH   7   9
HETATM    9  N2  UNL     1      28.919  65.302  14.569  1.00  0.00    -0.132 N 
ATOM     10  H2  UNL     1      28.646  64.526  15.172  1.00  0.00     0.205 HD
BRANCH   9  11
HETATM   11  C7  UNL     1      28.352  65.428  13.407  1.00  0.00     0.700 A 
HETATM   12  N3  UNL     1      27.134  65.994  13.359  1.00  0.00    -0.173 N 
HETATM   13  C8  UNL     1      26.545  66.126  12.163  1.00  0.00     0.146 A 
ATOM     14  H3  UNL     1      26.670  66.314  14.209  1.00  0.00     0.186 HD
HETATM   15  C9  UNL     1      27.135  65.707  10.977  1.00  0.00     0.138 A 
HETATM   16  N5  UNL     1      26.784  65.716   9.678  1.00  0.00    -0.184 N 
HETATM   17  C14 UNL     1      28.383  65.131  11.067  1.00  0.00     0.173 A 
HETATM   18  C10 UNL     1      27.766  65.166   8.944  1.00  0.00     0.682 A 
ATOM     19  H5  UNL     1      25.907  66.083   9.309  1.00  0.00     0.184 HD
HETATM   20  N7  UNL     1      28.752  64.808   9.818  1.00  0.00    -0.135 N 
HETATM   21  N9  UNL     1      28.956  65.008  12.282  1.00  0.00    -0.172 N 
ATOM     22  H9  UNL     1      29.880  64.583  12.349  1.00  0.00     0.186 HD
BRANCH  13  23
HETATM   23  N4  UNL     1      25.380  66.666  12.099  1.00  0.00    -0.383 N 
ATOM     24  H42 UNL     1      25.048  67.186  12.911  1.00  0.00     0.157 HD
ATOM     25  H41 UNL     1      24.831  66.556  11.246  1.00  0.00     0.157 HD
ENDBRANCH  13  23
BRANCH  18  26
HETATM   26  N6  UNL     1      27.822  64.985   7.656  1.00  0.00    -0.234 N 
ATOM     27  H62 UNL     1      28.151  65.683   6.988  1.00  0.00     0.174 HD
ATOM     28  H61 UNL     1      27.562  64.162   7.112  1.00  0.00     0.174 HD
ENDBRANCH  18  26
BRANCH  20  29
HETATM   29  C11 UNL     1      30.004  64.177   9.454  1.00  0.00     0.288 C 
HETATM   30  O1  UNL     1      30.357  64.483   8.147  1.00  0.00    -0.328 OA
HETATM   31  C12 UNL     1      31.063  65.567   8.610  1.00  0.00     0.359 C 
HETATM   32  C13 UNL     1      31.249  64.900   9.927  1.00  0.00     0.275 C 
HETATM   33  F1  UNL     1      32.332  64.055  10.039  1.00  0.00    -0.240 F 
BRANCH  31  34
HETATM   34  N8  UNL     1      32.268  65.841   7.857  1.00  0.00    -0.050 N 
ATOM     35  H83 UNL     1      32.419  65.126   7.147  1.00  0.00     0.277 HD
ATOM     36  H82 UNL     1      32.140  66.655   7.255  1.00  0.00     0.277 HD
ATOM     37  H81 UNL     1      33.099  65.952   8.438  1.00  0.00     0.277 HD
ENDBRANCH  31  34
ENDBRANCH  20  29
ENDBRANCH   9  11
ENDBRANCH   7   9
ENDBRANCH   5   6
ENDBRANCH   3   4
TORSDOF 8
ENDMDL
MODEL 3
REMARK VINA RESULT: -7.320925632      3.153      3.885
REMARK  8 active torsions:
REMARK  status: ('A' for Active; 'I' for Inactive)
REMARK    1  A    between atoms: C3_3  and  C4_4 
REMARK    2  A    between atoms: C5_5  and  C6_6 
REMARK    3  A    between atoms: N1_7  and  N2_9 
REMARK    4  A    between atoms: N2_9  and  C7_11 
REMARK    5  A    between atoms: C8_14  and  N4_15 
REMARK    6  A    between atoms: C10_21  and  N6_22 
REMARK    7  A    between atoms: N7_25  and  C11_26 
REMARK    8  A    between atoms: C12_28  and  N8_29 
ROOT
HETATM    1  C1  UNL     1      34.356  69.526  15.381  1.00  0.00     0.112 C 
HETATM    2  C2  UNL     1      33.118  68.737  15.343  1.00  0.00    -0.106 C 
HETATM    3  C3  UNL     1      32.092  68.100  15.328  1.00  0.00    -0.079 C 
ENDROOT
BRANCH   3   4
HETATM    4  C4  UNL     1      30.869  67.360  15.323  1.00  0.00     0.066 C 
HETATM    5  C5  UNL     1      30.512  66.617  16.346  1.00  0.00     0.027 C 
BRANCH   5   6
HETATM    6  C6  UNL     1      29.286  65.848  16.394  1.00  0.00     0.108 C 
HETATM    7  N1  UNL     1      29.148  64.721  15.792  1.00  0.00    -0.298 N 
ATOM      8  H1  UNL     1      29.937  64.356  15.259  1.00  0.00     0.186 HD
BRANCH   7   9
HETATM    9  N2  UNL     1      27.976  63.973  15.832  1.00  0.00    -0.132 N 
ATOM     10  H2  UNL     1      27.636  63.631  16.731  1.00  0.00     0.205 HD
BRANCH   9  11
HETATM   11  C7  UNL     1      27.303  63.700  14.756  1.00  0.00     0.700 A 
HETATM   12  N3  UNL     1      26.300  62.810  14.849  1.00  0.00    -0.173 N 
HETATM   13  C8  UNL     1      25.603  62.524  13.741  1.00  0.00     0.146 A 
ATOM     14  H3  UNL     1      26.076  62.363  15.738  1.00  0.00     0.186 HD
HETATM   15  C9  UNL     1      25.868  63.105  12.507  1.00  0.00     0.138 A 
HETATM   16  N5  UNL     1      25.346  63.008  11.272  1.00  0.00    -0.184 N 
HETATM   17  C14 UNL     1      26.904  64.012  12.452  1.00  0.00     0.173 A 
HETATM   18  C10 UNL     1      26.015  63.821  10.436  1.00  0.00     0.682 A 
ATOM     19  H5  UNL     1      24.563  62.408  11.010  1.00  0.00     0.184 HD
HETATM   20  N7  UNL     1      26.978  64.438  11.181  1.00  0.00    -0.135 N 
HETATM   21  N9  UNL     1      27.592  64.284  13.579  1.00  0.00    -0.172 N 
ATOM     22  H9  UNL     1      28.357  64.955  13.539  1.00  0.00     0.186 HD
BRANCH  13  23
HETATM   23  N4  UNL     1      24.640  61.675  13.813  1.00  0.00    -0.383 N 
ATOM     24  H42 UNL     1      23.797  61.949  14.317  1.00  0.00     0.157 HD
ATOM     25  H41 UNL     1      24.751  60.764  13.367  1.00  0.00     0.157 HD
ENDBRANCH  13  23
BRANCH  18  26
HETATM   26  N6  UNL     1      25.826  64.021   9.163  1.00  0.00    -0.234 N 
ATOM     27  H62 UNL     1      26.004  63.327   8.437  1.00  0.00     0.174 HD
ATOM     28  H61 UNL     1      25.488  64.858   8.689  1.00  0.00     0.174 HD
ENDBRANCH  18  26
BRANCH  20  29
HETATM   29  C11 UNL     1      27.933  65.405  10.679  1.00  0.00     0.288 C 
HETATM   30  O1  UNL     1      29.068  65.445  11.475  1.00  0.00    -0.328 OA
HETATM   31  C12 UNL     1      29.645  64.491  10.672  1.00  0.00     0.359 C 
HETATM   32  C13 UNL     1      28.793  64.920   9.530  1.00  0.00     0.275 C 
HETATM   33  F1  UNL     1      29.274  65.961   8.763  1.00  0.00    -0.240 F 
BRANCH  31  34
HETATM   34  N8  UNL     1      31.073  64.658  10.502  1.00  0.00    -0.050 N 
ATOM     35  H83 UNL     1      31.552  64.588  11.399  1.00  0.00     0.277 HD
ATOM     36  H82 UNL     1      31.476  63.850  10.029  1.00  0.00     0.277 HD
ATOM     37  H81 UNL     1      31.331  65.521  10.024  1.00  0.00     0.277 HD
ENDBRANCH  31  34
ENDBRANCH  20  29
ENDBRANCH   9  11
ENDBRANCH   7   9
ENDBRANCH   5   6
ENDBRANCH   3   4
TORSDOF 8
ENDMDL
MODEL 4
REMARK VINA RESULT: -7.309036219      2.560      4.102
REMARK  8 active torsions:
REMARK  status: ('A' for Active; 'I' for Inactive)
REMARK    1  A    between atoms: C3_3  and  C4_4 
REMARK    2  A    between atoms: C5_5  and  C6_6 
REMARK    3  A    between atoms: N1_7  and  N2_9 
REMARK    4  A    between atoms: N2_9  and  C7_11 
REMARK    5  A    between atoms: C8_14  and  N4_15 
REMARK    6  A    between atoms: C10_21  and  N6_22 
REMARK    7  A    between atoms: N7_25  and  C11_26 
REMARK    8  A    between atoms: C12_28  and  N8_29 
ROOT
HETATM    1  C1  UNL     1      25.750  65.886  20.702  1.00  0.00     0.112 C 
HETATM    2  C2  UNL     1      26.332  65.410  19.441  1.00  0.00    -0.106 C 
HETATM    3  C3  UNL     1      26.818  65.001  18.414  1.00  0.00    -0.079 C 
ENDROOT
BRANCH   3   4
HETATM    4  C4  UNL     1      27.400  64.500  17.208  1.00  0.00     0.066 C 
HETATM    5  C5  UNL     1      28.127  65.264  16.426  1.00  0.00     0.027 C 
BRANCH   5   6
HETATM    6  C6  UNL     1      28.739  64.808  15.195  1.00  0.00     0.108 C 
HETATM    7  N1  UNL     1      28.546  63.631  14.717  1.00  0.00    -0.298 N 
ATOM      8  H1  UNL     1      27.935  62.994  15.228  1.00  0.00     0.186 HD
BRANCH   7   9
HETATM    9  N2  UNL     1      29.128  63.183  13.536  1.00  0.00    -0.132 N 
ATOM     10  H2  UNL     1      29.857  62.472  13.581  1.00  0.00     0.205 HD
BRANCH   9  11
HETATM   11  C7  UNL     1      28.767  63.647  12.378  1.00  0.00     0.700 A 
HETATM   12  N3  UNL     1      29.686  64.304  11.648  1.00  0.00    -0.173 N 
HETATM   13  C8  UNL     1      29.319  64.784  10.453  1.00  0.00     0.146 A 
ATOM     14  H3  UNL     1      30.636  64.433  11.996  1.00  0.00     0.186 HD
HETATM   15  C9  UNL     1      28.038  64.634   9.936  1.00  0.00     0.138 A 
HETATM   16  N5  UNL     1      27.415  65.001   8.802  1.00  0.00    -0.184 N 
HETATM   17  C14 UNL     1      27.125  63.955  10.713  1.00  0.00     0.173 A 
HETATM   18  C10 UNL     1      26.139  64.579   8.834  1.00  0.00     0.682 A 
ATOM     19  H5  UNL     1      27.845  65.520   8.036  1.00  0.00     0.184 HD
HETATM   20  N7  UNL     1      25.973  63.931  10.024  1.00  0.00    -0.135 N 
HETATM   21  N9  UNL     1      27.517  63.481  11.913  1.00  0.00    -0.172 N 
ATOM     22  H9  UNL     1      26.841  62.978  12.487  1.00  0.00     0.186 HD
BRANCH  13  23
HETATM   23  N4  UNL     1      30.185  65.415   9.743  1.00  0.00    -0.383 N 
ATOM     24  H42 UNL     1      31.010  65.789  10.214  1.00  0.00     0.157 HD
ATOM     25  H41 UNL     1      30.021  65.521   8.742  1.00  0.00     0.157 HD
ENDBRANCH  13  23
BRANCH  18  26
HETATM   26  N6  UNL     1      25.205  64.728   7.939  1.00  0.00    -0.234 N 
ATOM     27  H62 UNL     1      24.413  65.364   8.033  1.00  0.00     0.174 HD
ATOM     28  H61 UNL     1      25.101  64.263   7.037  1.00  0.00     0.174 HD
ENDBRANCH  18  26
BRANCH  20  29
HETATM   29  C11 UNL     1      24.743  63.313  10.476  1.00  0.00     0.288 C 
HETATM   30  O1  UNL     1      24.132  62.607   9.449  1.00  0.00    -0.328 OA
HETATM   31  C12 UNL     1      24.816  61.481   9.839  1.00  0.00     0.359 C 
HETATM   32  C13 UNL     1      24.918  62.008  11.226  1.00  0.00     0.275 C 
HETATM   33  F1  UNL     1      23.856  61.742  12.064  1.00  0.00    -0.240 F 
BRANCH  31  34
HETATM   34  N8  UNL     1      24.062  60.257   9.675  1.00  0.00    -0.050 N 
ATOM     35  H83 UNL     1      24.137  59.674  10.508  1.00  0.00     0.277 HD
ATOM     36  H82 UNL     1      23.060  60.446   9.688  1.00  0.00     0.277 HD
ATOM     37  H81 UNL     1      24.316  59.727   8.841  1.00  0.00     0.277 HD
ENDBRANCH  31  34
ENDBRANCH  20  29
ENDBRANCH   9  11
ENDBRANCH   7   9
ENDBRANCH   5   6
ENDBRANCH   3   4
TORSDOF 8
ENDMDL
MODEL 5
REMARK VINA RESULT: -7.289104624      1.854      1.915
REMARK  8 active torsions:
REMARK  status: ('A' for Active; 'I' for Inactive)
REMARK    1  A    between atoms: C3_3  and  C4_4 
REMARK    2  A    between atoms: C5_5  and  C6_6 
REMARK    3  A    between atoms: N1_7  and  N2_9 
REMARK    4  A    between atoms: N2_9  and  C7_11 
REMARK    5  A    between atoms: C8_14  and  N4_15 
REMARK    6  A    between atoms: C10_21  and  N6_22 
REMARK    7  A    between atoms: N7_25  and  C11_26 
REMARK    8  A    between atoms: C12_28  and  N8_29 
ROOT
HETATM    1  C1  UNL     1      30.680  68.213  19.743  1.00  0.00     0.112 C 
HETATM    2  C2  UNL     1      30.244  67.119  18.867  1.00  0.00    -0.106 C 
HETATM    3  C3  UNL     1      29.906  66.215  18.141  1.00  0.00    -0.079 C 
ENDROOT
BRANCH   3   4
HETATM    4  C4  UNL     1      29.525  65.142  17.276  1.00  0.00     0.066 C 
HETATM    5  C5  UNL     1      28.762  65.343  16.226  1.00  0.00     0.027 C 
BRANCH   5   6
HETATM    6  C6  UNL     1      28.347  64.294  15.318  1.00  0.00     0.108 C 
HETATM    7  N1  UNL     1      29.183  63.523  14.718  1.00  0.00    -0.298 N 
ATOM      8  H1  UNL     1      30.178  63.658  14.892  1.00  0.00     0.186 HD
BRANCH   7   9
HETATM    9  N2  UNL     1      28.796  62.513  13.844  1.00  0.00    -0.132 N 
ATOM     10  H2  UNL     1      29.084  61.553  14.036  1.00  0.00     0.205 HD
BRANCH   9  11
HETATM   11  C7  UNL     1      28.078  62.759  12.791  1.00  0.00     0.700 A 
HETATM   12  N3  UNL     1      26.904  62.116  12.664  1.00  0.00    -0.173 N 
HETATM   13  C8  UNL     1      26.160  62.367  11.579  1.00  0.00     0.146 A 
ATOM     14  H3  UNL     1      26.588  61.457  13.375  1.00  0.00     0.186 HD
HETATM   15  C9  UNL     1      26.545  63.256  10.583  1.00  0.00     0.138 A 
HETATM   16  N5  UNL     1      26.013  63.685   9.425  1.00  0.00    -0.184 N 
HETATM   17  C14 UNL     1      27.755  63.894  10.748  1.00  0.00     0.173 A 
HETATM   18  C10 UNL     1      26.843  64.573   8.851  1.00  0.00     0.682 A 
ATOM     19  H5  UNL     1      25.117  63.383   9.042  1.00  0.00     0.184 HD
HETATM   20  N7  UNL     1      27.920  64.693   9.682  1.00  0.00    -0.135 N 
HETATM   21  N9  UNL     1      28.487  63.627  11.849  1.00  0.00    -0.172 N 
ATOM     22  H9  UNL     1      29.382  64.099  11.971  1.00  0.00     0.186 HD
BRANCH  13  23
HETATM   23  N4  UNL     1      25.034  61.761  11.442  1.00  0.00    -0.383 N 
ATOM     24  H42 UNL     1      24.668  61.638  10.498  1.00  0.00     0.157 HD
ATOM     25  H41 UNL     1      24.548  61.427  12.275  1.00  0.00     0.157 HD
ENDBRANCH  13  23
BRANCH  18  26
HETATM   26  N6  UNL     1      26.703  65.219   7.730  1.00  0.00    -0.234 N 
ATOM     27  H62 UNL     1      26.052  65.992   7.587  1.00  0.00     0.174 HD
ATOM     28  H61 UNL     1      27.188  65.079   6.844  1.00  0.00     0.174 HD
ENDBRANCH  18  26
BRANCH  20  29
HETATM   29  C11 UNL     1      29.064  65.552   9.451  1.00  0.00     0.288 C 
HETATM   30  O1  UNL     1      29.984  65.445  10.484  1.00  0.00    -0.328 OA
HETATM   31  C12 UNL     1      30.622  64.446   9.791  1.00  0.00     0.359 C 
HETATM   32  C13 UNL     1      30.106  64.991   8.506  1.00  0.00     0.275 C 
HETATM   33  F1  UNL     1      30.860  65.982   7.913  1.00  0.00    -0.240 F 
BRANCH  31  34
HETATM   34  N8  UNL     1      32.060  64.449   9.955  1.00  0.00    -0.050 N 
ATOM     35  H83 UNL     1      32.309  64.489  10.942  1.00  0.00     0.277 HD
ATOM     36  H82 UNL     1      32.452  63.538   9.717  1.00  0.00     0.277 HD
ATOM     37  H81 UNL     1      32.531  65.190   9.435  1.00  0.00     0.277 HD
ENDBRANCH  31  34
ENDBRANCH  20  29
ENDBRANCH   9  11
ENDBRANCH   7   9
ENDBRANCH   5   6
ENDBRANCH   3   4
TORSDOF 8
ENDMDL
