MODEL 1
REMARK VINA RESULT: -8.151676135      0.000      0.000
REMARK  7 active torsions:
REMARK  status: ('A' for Active; 'I' for Inactive)
REMARK    1  A    between atoms: C2_2  and  N1_3 
REMARK    2  A    between atoms: N1_3  and  C4_5 
REMARK    3  A    between atoms: N2_8  and  C7_9 
REMARK    4  A    between atoms: C9_15  and  N5_16 
REMARK    5  A    between atoms: C10_21  and  N7_22 
REMARK    6  A    between atoms: N7_22  and  O1_24 
REMARK    7  A    between atoms: C12_27  and  N8_28 
ROOT
HETATM    1  C7  UNL     1      26.691  64.272   9.928  1.00  0.00     0.683 A 
HETATM    2  N3  UNL     1      27.889  64.066  10.514  1.00  0.00    -0.175 N 
ATOM      3  H3  UNL     1      27.899  63.605  11.424  1.00  0.00     0.186 HD
HETATM    4  C8  UNL     1      29.068  64.425   9.986  1.00  0.00     0.154 A 
HETATM    5  N4  UNL     1      30.242  64.194  10.614  1.00  0.00    -0.175 N 
ATOM      6  H4  UNL     1      30.220  63.731  11.522  1.00  0.00     0.186 HD
HETATM    7  C9  UNL     1      31.437  64.542  10.107  1.00  0.00     0.679 A 
HETATM    8  N6  UNL     1      31.440  65.151   8.911  1.00  0.00    -0.174 N 
ATOM      9  H6  UNL     1      32.330  65.430   8.495  1.00  0.00     0.186 HD
HETATM   10  C10 UNL     1      30.297  65.403   8.247  1.00  0.00     0.158 A 
HETATM   11  C11 UNL     1      29.069  65.042   8.775  1.00  0.00     0.099 A 
HETATM   12  C12 UNL     1      27.865  65.268   8.150  1.00  0.00     0.132 A 
HETATM   13  N9  UNL     1      26.697  64.886   8.723  1.00  0.00    -0.176 N 
ATOM     14  H9  UNL     1      25.816  65.064   8.241  1.00  0.00     0.186 HD
ENDROOT
BRANCH   1  15
HETATM   15  N2  UNL     1      25.476  63.869  10.545  1.00  0.00    -0.215 N 
HETATM   16  C6  UNL     1      24.745  62.658  10.238  1.00  0.00     0.143 C 
HETATM   17  C5  UNL     1      24.174  62.360  11.638  1.00  0.00     0.047 C 
HETATM   18  C4  UNL     1      23.632  63.709  11.967  1.00  0.00     0.098 C 
HETATM   19  C13 UNL     1      24.789  64.616  11.576  1.00  0.00     0.166 C 
BRANCH  18  20
HETATM   20  N1  UNL     1      23.109  63.919  13.225  1.00  0.00    -0.411 N 
HETATM   21  C3  UNL     1      21.995  64.795  13.280  1.00  0.00     0.143 C 
BRANCH  20  22
HETATM   22  C2  UNL     1      23.316  63.059  14.299  1.00  0.00     0.112 C 
HETATM   23  C1  UNL     1      22.065  62.294  14.758  1.00  0.00     0.026 C 
ENDBRANCH  20  22
ENDBRANCH  18  20
ENDBRANCH   1  15
BRANCH  12  24
HETATM   24  N8  UNL     1      27.905  65.854   7.006  1.00  0.00    -0.384 N 
ATOM     25  H82 UNL     1      28.397  66.738   6.866  1.00  0.00     0.157 HD
ATOM     26  H81 UNL     1      27.420  65.395   6.235  1.00  0.00     0.157 HD
ENDBRANCH  12  24
BRANCH   7  27
HETATM   27  N5  UNL     1      32.549  64.311  10.729  1.00  0.00    -0.234 N 
ATOM     28  H52 UNL     1      33.379  64.869  10.529  1.00  0.00     0.174 HD
ATOM     29  H51 UNL     1      32.641  63.578  11.433  1.00  0.00     0.174 HD
ENDBRANCH   7  27
BRANCH  10  30
HETATM   30  N7  UNL     1      30.307  65.992   7.093  1.00  0.00    -0.252 N 
ATOM     31  H7  UNL     1      29.460  66.046   6.526  1.00  0.00     0.196 HD
BRANCH  30  32
HETATM   32  O1  UNL     1      31.488  66.542   6.651  1.00  0.00    -0.288 OA
ATOM     33  H1  UNL     1      31.569  67.488   6.642  1.00  0.00     0.244 HD
ENDBRANCH  30  32
ENDBRANCH  10  30
TORSDOF 7
ENDMDL
MODEL 2
REMARK VINA RESULT: -8.105357255      1.990      3.255
REMARK  7 active torsions:
REMARK  status: ('A' for Active; 'I' for Inactive)
REMARK    1  A    between atoms: C2_2  and  N1_3 
REMARK    2  A    between atoms: N1_3  and  C4_5 
REMARK    3  A    between atoms: N2_8  and  C7_9 
REMARK    4  A    between atoms: C9_15  and  N5_16 
REMARK    5  A    between atoms: C10_21  and  N7_22 
REMARK    6  A    between atoms: N7_22  and  O1_24 
REMARK    7  A    between atoms: C12_27  and  N8_28 
ROOT
HETATM    1  C7  UNL     1      26.994  64.940   9.461  1.00  0.00     0.683 A 
HETATM    2  N3  UNL     1      27.738  65.337   8.406  1.00  0.00    -0.175 N 
ATOM      3  H3  UNL     1      27.245  65.615   7.558  1.00  0.00     0.186 HD
HETATM    4  C8  UNL     1      29.077  65.393   8.395  1.00  0.00     0.154 A 
HETATM    5  N4  UNL     1      29.775  65.799   7.312  1.00  0.00    -0.175 N 
ATOM      6  H4  UNL     1      29.255  66.071   6.478  1.00  0.00     0.186 HD
HETATM    7  C9  UNL     1      31.116  65.866   7.273  1.00  0.00     0.679 A 
HETATM    8  N6  UNL     1      31.779  65.502   8.383  1.00  0.00    -0.174 N 
ATOM      9  H6  UNL     1      32.798  65.540   8.390  1.00  0.00     0.186 HD
HETATM   10  C10 UNL     1      31.128  65.089   9.487  1.00  0.00     0.158 A 
HETATM   11  C11 UNL     1      29.745  65.023   9.519  1.00  0.00     0.099 A 
HETATM   12  C12 UNL     1      29.019  64.613  10.613  1.00  0.00     0.132 A 
HETATM   13  N9  UNL     1      27.665  64.574  10.578  1.00  0.00    -0.176 N 
ATOM     14  H9  UNL     1      27.146  64.267  11.401  1.00  0.00     0.186 HD
ENDROOT
BRANCH   1  15
HETATM   15  N2  UNL     1      25.575  64.902   9.406  1.00  0.00    -0.215 N 
HETATM   16  C6  UNL     1      24.795  64.042   8.541  1.00  0.00     0.143 C 
HETATM   17  C5  UNL     1      23.585  63.805   9.464  1.00  0.00     0.047 C 
HETATM   18  C4  UNL     1      23.307  65.216   9.860  1.00  0.00     0.098 C 
HETATM   19  C13 UNL     1      24.698  65.722  10.213  1.00  0.00     0.166 C 
BRANCH  18  20
HETATM   20  N1  UNL     1      22.329  65.455  10.802  1.00  0.00    -0.411 N 
HETATM   21  C3  UNL     1      22.674  65.109  12.133  1.00  0.00     0.143 C 
BRANCH  20  22
HETATM   22  C2  UNL     1      21.274  66.342  10.610  1.00  0.00     0.112 C 
HETATM   23  C1  UNL     1      21.223  67.504  11.613  1.00  0.00     0.026 C 
ENDBRANCH  20  22
ENDBRANCH  18  20
ENDBRANCH   1  15
BRANCH  12  24
HETATM   24  N8  UNL     1      29.686  64.271  11.658  1.00  0.00    -0.384 N 
ATOM     25  H82 UNL     1      29.948  64.945  12.378  1.00  0.00     0.157 HD
ATOM     26  H81 UNL     1      29.944  63.288  11.739  1.00  0.00     0.157 HD
ENDBRANCH  12  24
BRANCH   7  27
HETATM   27  N5  UNL     1      31.763  66.258   6.222  1.00  0.00    -0.234 N 
ATOM     28  H52 UNL     1      31.811  67.249   5.984  1.00  0.00     0.174 HD
ATOM     29  H51 UNL     1      32.243  65.608   5.600  1.00  0.00     0.174 HD
ENDBRANCH   7  27
BRANCH  10  30
HETATM   30  N7  UNL     1      31.773  64.739  10.554  1.00  0.00    -0.252 N 
ATOM     31  H7  UNL     1      31.720  65.301  11.405  1.00  0.00     0.196 HD
BRANCH  30  32
HETATM   32  O1  UNL     1      32.532  63.592  10.512  1.00  0.00    -0.288 OA
ATOM     33  H1  UNL     1      33.409  63.618  10.876  1.00  0.00     0.244 HD
ENDBRANCH  30  32
ENDBRANCH  10  30
TORSDOF 7
ENDMDL
MODEL 3
REMARK VINA RESULT: -7.665354021      1.361      1.830
REMARK  7 active torsions:
REMARK  status: ('A' for Active; 'I' for Inactive)
REMARK    1  A    between atoms: C2_2  and  N1_3 
REMARK    2  A    between atoms: N1_3  and  C4_5 
REMARK    3  A    between atoms: N2_8  and  C7_9 
REMARK    4  A    between atoms: C9_15  and  N5_16 
REMARK    5  A    between atoms: C10_21  and  N7_22 
REMARK    6  A    between atoms: N7_22  and  O1_24 
REMARK    7  A    between atoms: C12_27  and  N8_28 
ROOT
HETATM    1  C7  UNL     1      26.636  63.784  11.525  1.00  0.00     0.683 A 
HETATM    2  N3  UNL     1      27.980  63.765  11.660  1.00  0.00    -0.175 N 
ATOM      3  H3  UNL     1      28.364  63.364  12.514  1.00  0.00     0.186 HD
HETATM    4  C8  UNL     1      28.843  64.237  10.750  1.00  0.00     0.154 A 
HETATM    5  N4  UNL     1      30.181  64.194  10.932  1.00  0.00    -0.175 N 
ATOM      6  H4  UNL     1      30.537  63.786  11.796  1.00  0.00     0.186 HD
HETATM    7  C9  UNL     1      31.069  64.658  10.037  1.00  0.00     0.679 A 
HETATM    8  N6  UNL     1      30.577  65.192   8.907  1.00  0.00    -0.174 N 
ATOM      9  H6  UNL     1      31.222  65.555   8.205  1.00  0.00     0.186 HD
HETATM   10  C10 UNL     1      29.252  65.258   8.680  1.00  0.00     0.158 A 
HETATM   11  C11 UNL     1      28.343  64.777   9.607  1.00  0.00     0.099 A 
HETATM   12  C12 UNL     1      26.978  64.813   9.438  1.00  0.00     0.132 A 
HETATM   13  N9  UNL     1      26.143  64.321  10.386  1.00  0.00    -0.176 N 
ATOM     14  H9  UNL     1      25.134  64.357  10.239  1.00  0.00     0.186 HD
ENDROOT
BRANCH   1  15
HETATM   15  N2  UNL     1      25.775  63.268  12.531  1.00  0.00    -0.215 N 
HETATM   16  C6  UNL     1      26.204  62.750  13.813  1.00  0.00     0.143 C 
HETATM   17  C5  UNL     1      24.994  63.180  14.664  1.00  0.00     0.047 C 
HETATM   18  C4  UNL     1      23.896  62.681  13.785  1.00  0.00     0.098 C 
HETATM   19  C13 UNL     1      24.335  63.186  12.419  1.00  0.00     0.166 C 
BRANCH  18  20
HETATM   20  N1  UNL     1      22.593  62.966  14.135  1.00  0.00    -0.411 N 
HETATM   21  C3  UNL     1      21.938  63.915  13.310  1.00  0.00     0.143 C 
BRANCH  20  22
HETATM   22  C2  UNL     1      21.805  62.129  14.920  1.00  0.00     0.112 C 
HETATM   23  C1  UNL     1      21.775  62.491  16.412  1.00  0.00     0.026 C 
ENDBRANCH  20  22
ENDBRANCH  18  20
ENDBRANCH   1  15
BRANCH  12  24
HETATM   24  N8  UNL     1      26.542  65.330   8.345  1.00  0.00    -0.384 N 
ATOM     25  H82 UNL     1      25.545  65.434   8.154  1.00  0.00     0.157 HD
ATOM     26  H81 UNL     1      27.240  65.637   7.668  1.00  0.00     0.157 HD
ENDBRANCH  12  24
BRANCH   7  27
HETATM   27  N5  UNL     1      32.348  64.606  10.235  1.00  0.00    -0.234 N 
ATOM     28  H52 UNL     1      32.726  64.635  11.182  1.00  0.00     0.174 HD
ATOM     29  H51 UNL     1      33.018  64.535   9.470  1.00  0.00     0.174 HD
ENDBRANCH   7  27
BRANCH  10  30
HETATM   30  N7  UNL     1      28.783  65.774   7.589  1.00  0.00    -0.252 N 
ATOM     31  H7  UNL     1      28.366  66.705   7.587  1.00  0.00     0.196 HD
BRANCH  30  32
HETATM   32  O1  UNL     1      28.862  65.035   6.431  1.00  0.00    -0.288 OA
ATOM     33  H1  UNL     1      28.065  64.651   6.086  1.00  0.00     0.244 HD
ENDBRANCH  30  32
ENDBRANCH  10  30
TORSDOF 7
ENDMDL
MODEL 4
REMARK VINA RESULT: -7.597187026      1.764      2.837
REMARK  7 active torsions:
REMARK  status: ('A' for Active; 'I' for Inactive)
REMARK    1  A    between atoms: C2_2  and  N1_3 
REMARK    2  A    between atoms: N1_3  and  C4_5 
REMARK    3  A    between atoms: N2_8  and  C7_9 
REMARK    4  A    between atoms: C9_15  and  N5_16 
REMARK    5  A    between atoms: C10_21  and  N7_22 
REMARK    6  A    between atoms: N7_22  and  O1_24 
REMARK    7  A    between atoms: C12_27  and  N8_28 
ROOT
HETATM    1  C7  UNL     1      26.727  65.215  10.342  1.00  0.00     0.683 A 
HETATM    2  N3  UNL     1      27.349  65.573   9.199  1.00  0.00    -0.175 N 
ATOM      3  H3  UNL     1      26.790  66.028   8.478  1.00  0.00     0.186 HD
HETATM    4  C8  UNL     1      28.650  65.372   8.943  1.00  0.00     0.154 A 
HETATM    5  N4  UNL     1      29.226  65.751   7.782  1.00  0.00    -0.175 N 
ATOM      6  H4  UNL     1      28.641  66.205   7.080  1.00  0.00     0.186 HD
HETATM    7  C9  UNL     1      30.526  65.564   7.500  1.00  0.00     0.679 A 
HETATM    8  N6  UNL     1      31.275  64.964   8.439  1.00  0.00    -0.174 N 
ATOM      9  H6  UNL     1      32.266  64.804   8.260  1.00  0.00     0.186 HD
HETATM   10  C10 UNL     1      30.747  64.567   9.612  1.00  0.00     0.158 A 
HETATM   11  C11 UNL     1      29.406  64.764   9.895  1.00  0.00     0.099 A 
HETATM   12  C12 UNL     1      28.804  64.385  11.073  1.00  0.00     0.132 A 
HETATM   13  N9  UNL     1      27.484  64.611  11.287  1.00  0.00    -0.176 N 
ATOM     14  H9  UNL     1      27.058  64.322  12.168  1.00  0.00     0.186 HD
ENDROOT
BRANCH   1  15
HETATM   15  N2  UNL     1      25.342  65.455  10.548  1.00  0.00    -0.215 N 
HETATM   16  C6  UNL     1      24.319  65.380   9.526  1.00  0.00     0.143 C 
HETATM   17  C5  UNL     1      23.150  64.872  10.392  1.00  0.00     0.047 C 
HETATM   18  C4  UNL     1      23.256  65.836  11.524  1.00  0.00     0.098 C 
HETATM   19  C13 UNL     1      24.748  65.811  11.819  1.00  0.00     0.166 C 
BRANCH  18  20
HETATM   20  N1  UNL     1      22.430  65.663  12.615  1.00  0.00    -0.411 N 
HETATM   21  C3  UNL     1      21.223  66.404  12.584  1.00  0.00     0.143 C 
BRANCH  20  22
HETATM   22  C2  UNL     1      22.502  64.566  13.470  1.00  0.00     0.112 C 
HETATM   23  C1  UNL     1      21.235  63.698  13.506  1.00  0.00     0.026 C 
ENDBRANCH  20  22
ENDBRANCH  18  20
ENDBRANCH   1  15
BRANCH  12  24
HETATM   24  N8  UNL     1      29.550  63.813  11.949  1.00  0.00    -0.384 N 
ATOM     25  H82 UNL     1      30.554  63.695  11.813  1.00  0.00     0.157 HD
ATOM     26  H81 UNL     1      29.092  63.478  12.797  1.00  0.00     0.157 HD
ENDBRANCH  12  24
BRANCH   7  27
HETATM   27  N5  UNL     1      31.055  65.935   6.377  1.00  0.00    -0.234 N 
ATOM     28  H52 UNL     1      31.026  66.914   6.091  1.00  0.00     0.174 HD
ATOM     29  H51 UNL     1      31.514  65.280   5.745  1.00  0.00     0.174 HD
ENDBRANCH   7  27
BRANCH  10  30
HETATM   30  N7  UNL     1      31.474  63.989  10.514  1.00  0.00    -0.252 N 
ATOM     31  H7  UNL     1      31.044  63.531  11.319  1.00  0.00     0.196 HD
BRANCH  30  32
HETATM   32  O1  UNL     1      32.841  64.006  10.360  1.00  0.00    -0.288 OA
ATOM     33  H1  UNL     1      33.378  64.202  11.119  1.00  0.00     0.244 HD
ENDBRANCH  30  32
ENDBRANCH  10  30
TORSDOF 7
ENDMDL
MODEL 5
REMARK VINA RESULT: -7.561922900      1.846      3.316
REMARK  7 active torsions:
REMARK  status: ('A' for Active; 'I' for Inactive)
REMARK    1  A    between atoms: C2_2  and  N1_3 
REMARK    2  A    between atoms: N1_3  and  C4_5 
REMARK    3  A    between atoms: N2_8  and  C7_9 
REMARK    4  A    between atoms: C9_15  and  N5_16 
REMARK    5  A    between atoms: C10_21  and  N7_22 
REMARK    6  A    between atoms: N7_22  and  O1_24 
REMARK    7  A    between atoms: C12_27  and  N8_28 
ROOT
HETATM    1  C7  UNL     1      28.553  63.907  11.541  1.00  0.00     0.683 A 
HETATM    2  N3  UNL     1      27.956  64.342  10.410  1.00  0.00    -0.175 N 
ATOM      3  H3  UNL     1      26.940  64.281  10.358  1.00  0.00     0.186 HD
HETATM    4  C8  UNL     1      28.605  64.847   9.352  1.00  0.00     0.154 A 
HETATM    5  N4  UNL     1      27.960  65.270   8.243  1.00  0.00    -0.175 N 
ATOM      6  H4  UNL     1      26.943  65.197   8.219  1.00  0.00     0.186 HD
HETATM    7  C9  UNL     1      28.584  65.782   7.168  1.00  0.00     0.679 A 
HETATM    8  N6  UNL     1      29.923  65.868   7.223  1.00  0.00    -0.174 N 
ATOM      9  H6  UNL     1      30.431  66.251   6.425  1.00  0.00     0.186 HD
HETATM   10  C10 UNL     1      30.611  65.459   8.305  1.00  0.00     0.158 A 
HETATM   11  C11 UNL     1      29.960  64.932   9.408  1.00  0.00     0.099 A 
HETATM   12  C12 UNL     1      30.601  64.499  10.545  1.00  0.00     0.132 A 
HETATM   13  N9  UNL     1      29.902  63.995  11.592  1.00  0.00    -0.176 N 
ATOM     14  H9  UNL     1      30.398  63.679  12.426  1.00  0.00     0.186 HD
ENDROOT
BRANCH   1  15
HETATM   15  N2  UNL     1      27.805  63.378  12.627  1.00  0.00    -0.215 N 
HETATM   16  C6  UNL     1      28.339  63.069  13.937  1.00  0.00     0.143 C 
HETATM   17  C5  UNL     1      27.098  63.401  14.787  1.00  0.00     0.047 C 
HETATM   18  C4  UNL     1      26.069  62.655  14.009  1.00  0.00     0.098 C 
HETATM   19  C13 UNL     1      26.393  63.071  12.582  1.00  0.00     0.166 C 
BRANCH  18  20
HETATM   20  N1  UNL     1      24.746  62.777  14.380  1.00  0.00    -0.411 N 
HETATM   21  C3  UNL     1      24.429  63.948  15.113  1.00  0.00     0.143 C 
BRANCH  20  22
HETATM   22  C2  UNL     1      23.705  62.094  13.759  1.00  0.00     0.112 C 
HETATM   23  C1  UNL     1      22.407  62.023  14.577  1.00  0.00     0.026 C 
ENDBRANCH  20  22
ENDBRANCH  18  20
ENDBRANCH   1  15
BRANCH  12  24
HETATM   24  N8  UNL     1      31.883  64.594  10.563  1.00  0.00    -0.384 N 
ATOM     25  H82 UNL     1      32.441  64.556   9.710  1.00  0.00     0.157 HD
ATOM     26  H81 UNL     1      32.324  64.713  11.475  1.00  0.00     0.157 HD
ENDBRANCH  12  24
BRANCH   7  27
HETATM   27  N5  UNL     1      27.943  66.180   6.116  1.00  0.00    -0.234 N 
ATOM     28  H52 UNL     1      28.317  66.930   5.535  1.00  0.00     0.174 HD
ATOM     29  H51 UNL     1      27.056  65.768   5.827  1.00  0.00     0.174 HD
ENDBRANCH   7  27
BRANCH  10  30
HETATM   30  N7  UNL     1      31.902  65.544   8.351  1.00  0.00    -0.252 N 
ATOM     31  H7  UNL     1      32.366  66.076   9.088  1.00  0.00     0.196 HD
BRANCH  30  32
HETATM   32  O1  UNL     1      32.634  64.898   7.381  1.00  0.00    -0.288 OA
ATOM     33  H1  UNL     1      32.255  64.131   6.967  1.00  0.00     0.244 HD
ENDBRANCH  30  32
ENDBRANCH  10  30
TORSDOF 7
ENDMDL
