MODEL 1
REMARK VINA RESULT: -8.186115166      0.000      0.000
REMARK  6 active torsions:
REMARK  status: ('A' for Active; 'I' for Inactive)
REMARK    1  A    between atoms: C2_2  and  N1_3 
REMARK    2  A    between atoms: C5_10  and  C6_11 
REMARK    3  A    between atoms: C7_14  and  N5_15 
REMARK    4  A    between atoms: C8_20  and  N7_21 
REMARK    5  A    between atoms: N7_21  and  C9_23 
REMARK    6  A    between atoms: C13_31  and  N9_32 
ROOT
HETATM    1  C6  UNL     1      27.264  63.669  12.885  1.00  0.00     0.122 A 
HETATM    2  N4  UNL     1      26.211  62.861  12.843  1.00  0.00    -0.186 N 
ATOM      3  H4  UNL     1      25.837  62.562  11.943  1.00  0.00     0.184 HD
HETATM    4  C7  UNL     1      25.623  62.426  14.008  1.00  0.00     0.678 A 
HETATM    5  N6  UNL     1      26.096  62.804  15.174  1.00  0.00    -0.174 N 
ATOM      6  H6  UNL     1      25.635  62.463  16.016  1.00  0.00     0.186 HD
HETATM    7  C8  UNL     1      27.171  63.631  15.316  1.00  0.00     0.158 A 
HETATM    8  C12 UNL     1      27.742  64.053  14.149  1.00  0.00     0.190 A 
HETATM    9  F1  UNL     1      28.817  64.879  14.226  1.00  0.00    -0.200 F 
ENDROOT
BRANCH   1  10
HETATM   10  C5  UNL     1      27.933  64.167  11.720  1.00  0.00     0.108 A 
HETATM   11  N3  UNL     1      29.301  64.050  11.708  1.00  0.00    -0.334 N 
HETATM   12  C4  UNL     1      30.029  64.477  10.677  1.00  0.00     0.152 A 
ATOM     13  H3  UNL     1      29.771  63.626  12.507  1.00  0.00     0.168 HD
HETATM   14  N2  UNL     1      31.351  64.459  10.466  1.00  0.00    -0.335 N 
HETATM   15  C14 UNL     1      29.467  65.061   9.561  1.00  0.00     0.155 A 
HETATM   16  C3  UNL     1      31.596  65.018   9.251  1.00  0.00     0.186 A 
ATOM     17  H2  UNL     1      32.054  64.089  11.107  1.00  0.00     0.168 HD
HETATM   18  N1  UNL     1      30.438  65.394   8.683  1.00  0.00    -0.326 N 
HETATM   19  N10 UNL     1      28.146  65.183   9.556  1.00  0.00    -0.324 N 
HETATM   20  C13 UNL     1      27.386  64.746  10.612  1.00  0.00     0.130 A 
ATOM     21  H10 UNL     1      27.686  65.610   8.752  1.00  0.00     0.169 HD
BRANCH  18  22
HETATM   22  C2  UNL     1      30.247  66.033   7.382  1.00  0.00     0.127 C 
HETATM   23  C1  UNL     1      29.242  65.268   6.547  1.00  0.00     0.027 C 
ENDBRANCH  18  22
BRANCH  20  24
HETATM   24  N9  UNL     1      26.121  64.901  10.525  1.00  0.00    -0.384 N 
ATOM     25  H92 UNL     1      25.533  64.127  10.834  1.00  0.00     0.157 HD
ATOM     26  H91 UNL     1      25.734  65.770  10.158  1.00  0.00     0.157 HD
ENDBRANCH  20  24
ENDBRANCH   1  10
BRANCH   4  27
HETATM   27  N5  UNL     1      24.595  61.636  13.902  1.00  0.00    -0.234 N 
ATOM     28  H52 UNL     1      24.261  61.298  12.999  1.00  0.00     0.174 HD
ATOM     29  H51 UNL     1      24.124  61.359  14.763  1.00  0.00     0.174 HD
ENDBRANCH   4  27
BRANCH   7  30
HETATM   30  N7  UNL     1      27.555  63.943  16.478  1.00  0.00    -0.365 N 
ATOM     31  H7  UNL     1      28.258  63.325  16.884  1.00  0.00     0.161 HD
BRANCH  30  32
HETATM   32  C9  UNL     1      27.156  65.020  17.298  1.00  0.00     0.134 C 
HETATM   33  C10 UNL     1      26.319  64.614  18.488  1.00  0.00     0.259 C 
HETATM   34  N8  UNL     1      27.569  64.169  19.128  1.00  0.00    -0.071 N 
HETATM   35  C11 UNL     1      28.215  65.237  18.393  1.00  0.00     0.259 C 
ATOM     36  H82 UNL     1      27.652  64.090  20.142  1.00  0.00     0.277 HD
ATOM     37  H81 UNL     1      27.889  63.203  19.062  1.00  0.00     0.277 HD
ENDBRANCH  30  32
ENDBRANCH   7  30
TORSDOF 6
ENDMDL
MODEL 2
REMARK VINA RESULT: -8.144442975      1.502      2.411
REMARK  6 active torsions:
REMARK  status: ('A' for Active; 'I' for Inactive)
REMARK    1  A    between atoms: C2_2  and  N1_3 
REMARK    2  A    between atoms: C5_10  and  C6_11 
REMARK    3  A    between atoms: C7_14  and  N5_15 
REMARK    4  A    between atoms: C8_20  and  N7_21 
REMARK    5  A    between atoms: N7_21  and  C9_23 
REMARK    6  A    between atoms: C13_31  and  N9_32 
ROOT
HETATM    1  C6  UNL     1      26.250  63.437  13.314  1.00  0.00     0.122 A 
HETATM    2  N4  UNL     1      25.468  62.383  13.106  1.00  0.00    -0.186 N 
ATOM      3  H4  UNL     1      25.640  61.773  12.307  1.00  0.00     0.184 HD
HETATM    4  C7  UNL     1      24.427  62.113  13.964  1.00  0.00     0.678 A 
HETATM    5  N6  UNL     1      24.195  62.891  14.996  1.00  0.00    -0.174 N 
ATOM      6  H6  UNL     1      23.415  62.660  15.610  1.00  0.00     0.186 HD
HETATM    7  C8  UNL     1      24.943  63.993  15.288  1.00  0.00     0.158 A 
HETATM    8  C12 UNL     1      25.972  64.247  14.426  1.00  0.00     0.190 A 
HETATM    9  F1  UNL     1      26.753  65.332  14.666  1.00  0.00    -0.200 F 
ENDROOT
BRANCH   1  10
HETATM   10  C5  UNL     1      27.353  63.789  12.468  1.00  0.00     0.108 A 
HETATM   11  N3  UNL     1      27.038  64.416  11.289  1.00  0.00    -0.334 N 
HETATM   12  C4  UNL     1      27.980  64.790  10.424  1.00  0.00     0.152 A 
ATOM     13  H3  UNL     1      26.059  64.601  11.069  1.00  0.00     0.168 HD
HETATM   14  N2  UNL     1      27.891  65.405   9.238  1.00  0.00    -0.335 N 
HETATM   15  C14 UNL     1      29.323  64.575  10.650  1.00  0.00     0.155 A 
HETATM   16  C3  UNL     1      29.149  65.564   8.746  1.00  0.00     0.186 A 
ATOM     17  H2  UNL     1      27.029  65.703   8.782  1.00  0.00     0.168 HD
HETATM   18  N1  UNL     1      30.042  65.055   9.612  1.00  0.00    -0.326 N 
HETATM   19  N10 UNL     1      29.646  63.970  11.785  1.00  0.00    -0.324 N 
HETATM   20  C13 UNL     1      28.684  63.581  12.683  1.00  0.00     0.130 A 
ATOM     21  H10 UNL     1      30.628  63.789  11.994  1.00  0.00     0.169 HD
BRANCH  18  22
HETATM   22  C2  UNL     1      31.498  65.018   9.475  1.00  0.00     0.127 C 
HETATM   23  C1  UNL     1      31.933  65.644   8.167  1.00  0.00     0.027 C 
ENDBRANCH  18  22
BRANCH  20  24
HETATM   24  N9  UNL     1      29.082  63.004  13.751  1.00  0.00    -0.384 N 
ATOM     25  H92 UNL     1      28.365  62.670  14.396  1.00  0.00     0.157 HD
ATOM     26  H91 UNL     1      30.078  62.891  13.934  1.00  0.00     0.157 HD
ENDBRANCH  20  24
ENDBRANCH   1  10
BRANCH   4  27
HETATM   27  N5  UNL     1      23.697  61.067  13.708  1.00  0.00    -0.234 N 
ATOM     28  H52 UNL     1      22.917  61.097  13.051  1.00  0.00     0.174 HD
ATOM     29  H51 UNL     1      23.930  60.200  14.193  1.00  0.00     0.174 HD
ENDBRANCH   4  27
BRANCH   7  30
HETATM   30  N7  UNL     1      24.646  64.685  16.303  1.00  0.00    -0.365 N 
ATOM     31  H7  UNL     1      24.242  65.600  16.102  1.00  0.00     0.161 HD
BRANCH  30  32
HETATM   32  C9  UNL     1      24.789  64.378  17.673  1.00  0.00     0.134 C 
HETATM   33  C10 UNL     1      26.217  64.406  18.166  1.00  0.00     0.259 C 
HETATM   34  N8  UNL     1      26.112  65.876  18.175  1.00  0.00    -0.071 N 
HETATM   35  C11 UNL     1      24.712  65.680  18.490  1.00  0.00     0.259 C 
ATOM     36  H82 UNL     1      26.718  66.451  18.761  1.00  0.00     0.277 HD
ATOM     37  H81 UNL     1      26.408  66.437  17.377  1.00  0.00     0.277 HD
ENDBRANCH  30  32
ENDBRANCH   7  30
TORSDOF 6
ENDMDL
MODEL 3
REMARK VINA RESULT: -7.824754434      2.171      7.508
REMARK  6 active torsions:
REMARK  status: ('A' for Active; 'I' for Inactive)
REMARK    1  A    between atoms: C2_2  and  N1_3 
REMARK    2  A    between atoms: C5_10  and  C6_11 
REMARK    3  A    between atoms: C7_14  and  N5_15 
REMARK    4  A    between atoms: C8_20  and  N7_21 
REMARK    5  A    between atoms: N7_21  and  C9_23 
REMARK    6  A    between atoms: C13_31  and  N9_32 
ROOT
HETATM    1  C6  UNL     1      27.668  65.137  12.076  1.00  0.00     0.122 A 
HETATM    2  N4  UNL     1      26.426  64.893  11.672  1.00  0.00    -0.186 N 
ATOM      3  H4  UNL     1      25.699  64.689  12.359  1.00  0.00     0.184 HD
HETATM    4  C7  UNL     1      26.116  64.912  10.333  1.00  0.00     0.678 A 
HETATM    5  N6  UNL     1      27.043  65.172   9.439  1.00  0.00    -0.174 N 
ATOM      6  H6  UNL     1      26.777  65.177   8.454  1.00  0.00     0.186 HD
HETATM    7  C8  UNL     1      28.341  65.435   9.758  1.00  0.00     0.158 A 
HETATM    8  C12 UNL     1      28.632  65.411  11.093  1.00  0.00     0.190 A 
HETATM    9  F1  UNL     1      29.910  65.665  11.473  1.00  0.00    -0.200 F 
ENDROOT
BRANCH   1  10
HETATM   10  C5  UNL     1      28.072  65.136  13.451  1.00  0.00     0.108 A 
HETATM   11  N3  UNL     1      27.813  66.281  14.162  1.00  0.00    -0.334 N 
HETATM   12  C4  UNL     1      28.144  66.395  15.447  1.00  0.00     0.152 A 
ATOM     13  H3  UNL     1      27.357  67.064  13.694  1.00  0.00     0.168 HD
HETATM   14  N2  UNL     1      27.984  67.406  16.311  1.00  0.00    -0.335 N 
HETATM   15  C14 UNL     1      28.763  65.381  16.148  1.00  0.00     0.155 A 
HETATM   16  C3  UNL     1      28.492  67.024  17.512  1.00  0.00     0.186 A 
ATOM     17  H2  UNL     1      27.555  68.308  16.103  1.00  0.00     0.168 HD
HETATM   18  N1  UNL     1      28.977  65.773  17.423  1.00  0.00    -0.326 N 
HETATM   19  N10 UNL     1      29.021  64.267  15.477  1.00  0.00    -0.324 N 
HETATM   20  C13 UNL     1      28.685  64.138  14.152  1.00  0.00     0.130 A 
ATOM     21  H10 UNL     1      29.479  63.491  15.954  1.00  0.00     0.169 HD
BRANCH  18  22
HETATM   22  C2  UNL     1      29.609  64.982  18.478  1.00  0.00     0.127 C 
HETATM   23  C1  UNL     1      28.673  64.805  19.654  1.00  0.00     0.027 C 
ENDBRANCH  18  22
BRANCH  20  24
HETATM   24  N9  UNL     1      28.969  63.031  13.582  1.00  0.00    -0.384 N 
ATOM     25  H92 UNL     1      28.435  62.210  13.864  1.00  0.00     0.157 HD
ATOM     26  H91 UNL     1      29.705  62.991  12.877  1.00  0.00     0.157 HD
ENDBRANCH  20  24
ENDBRANCH   1  10
BRANCH   4  27
HETATM   27  N5  UNL     1      24.883  64.665   9.998  1.00  0.00    -0.234 N 
ATOM     28  H52 UNL     1      24.139  65.352  10.124  1.00  0.00     0.174 HD
ATOM     29  H51 UNL     1      24.678  63.748   9.600  1.00  0.00     0.174 HD
ENDBRANCH   4  27
BRANCH   7  30
HETATM   30  N7  UNL     1      29.166  65.674   8.830  1.00  0.00    -0.365 N 
ATOM     31  H7  UNL     1      29.107  66.609   8.427  1.00  0.00     0.161 HD
BRANCH  30  32
HETATM   32  C9  UNL     1      30.155  64.838   8.270  1.00  0.00     0.134 C 
HETATM   33  C10 UNL     1      30.291  64.960   6.771  1.00  0.00     0.259 C 
HETATM   34  N8  UNL     1      31.027  66.214   7.009  1.00  0.00    -0.071 N 
HETATM   35  C11 UNL     1      31.493  65.598   8.234  1.00  0.00     0.259 C 
ATOM     36  H82 UNL     1      31.676  66.593   6.319  1.00  0.00     0.277 HD
ATOM     37  H81 UNL     1      30.555  67.118   7.010  1.00  0.00     0.277 HD
ENDBRANCH  30  32
ENDBRANCH   7  30
TORSDOF 6
ENDMDL
MODEL 4
REMARK VINA RESULT: -7.705050512      2.165      2.955
REMARK  6 active torsions:
REMARK  status: ('A' for Active; 'I' for Inactive)
REMARK    1  A    between atoms: C2_2  and  N1_3 
REMARK    2  A    between atoms: C5_10  and  C6_11 
REMARK    3  A    between atoms: C7_14  and  N5_15 
REMARK    4  A    between atoms: C8_20  and  N7_21 
REMARK    5  A    between atoms: N7_21  and  C9_23 
REMARK    6  A    between atoms: C13_31  and  N9_32 
ROOT
HETATM    1  C6  UNL     1      26.255  63.477  13.159  1.00  0.00     0.122 A 
HETATM    2  N4  UNL     1      25.537  62.369  13.003  1.00  0.00    -0.186 N 
ATOM      3  H4  UNL     1      25.763  61.721  12.249  1.00  0.00     0.184 HD
HETATM    4  C7  UNL     1      24.492  62.095  13.853  1.00  0.00     0.678 A 
HETATM    5  N6  UNL     1      24.191  62.923  14.827  1.00  0.00    -0.174 N 
ATOM      6  H6  UNL     1      23.409  62.687  15.438  1.00  0.00     0.186 HD
HETATM    7  C8  UNL     1      24.869  64.081  15.064  1.00  0.00     0.158 A 
HETATM    8  C12 UNL     1      25.904  64.339  14.210  1.00  0.00     0.190 A 
HETATM    9  F1  UNL     1      26.617  65.479  14.396  1.00  0.00    -0.200 F 
ENDROOT
BRANCH   1  10
HETATM   10  C5  UNL     1      27.357  63.836  12.317  1.00  0.00     0.108 A 
HETATM   11  N3  UNL     1      27.040  64.437  11.124  1.00  0.00    -0.334 N 
HETATM   12  C4  UNL     1      27.982  64.815  10.261  1.00  0.00     0.152 A 
ATOM     13  H3  UNL     1      26.060  64.598  10.893  1.00  0.00     0.168 HD
HETATM   14  N2  UNL     1      27.892  65.408   9.063  1.00  0.00    -0.335 N 
HETATM   15  C14 UNL     1      29.328  64.631  10.501  1.00  0.00     0.155 A 
HETATM   16  C3  UNL     1      29.150  65.584   8.579  1.00  0.00     0.186 A 
ATOM     17  H2  UNL     1      27.027  65.680   8.595  1.00  0.00     0.168 HD
HETATM   18  N1  UNL     1      30.046  65.107   9.461  1.00  0.00    -0.326 N 
HETATM   19  N10 UNL     1      29.652  64.051  11.649  1.00  0.00    -0.324 N 
HETATM   20  C13 UNL     1      28.691  63.658  12.546  1.00  0.00     0.130 A 
ATOM     21  H10 UNL     1      30.636  63.894  11.869  1.00  0.00     0.169 HD
BRANCH  18  22
HETATM   22  C2  UNL     1      31.503  65.097   9.337  1.00  0.00     0.127 C 
HETATM   23  C1  UNL     1      31.933  65.620   7.983  1.00  0.00     0.027 C 
ENDBRANCH  18  22
BRANCH  20  24
HETATM   24  N9  UNL     1      29.090  63.108  13.627  1.00  0.00    -0.384 N 
ATOM     25  H92 UNL     1      28.430  62.502  14.115  1.00  0.00     0.157 HD
ATOM     26  H91 UNL     1      30.034  63.279  13.973  1.00  0.00     0.157 HD
ENDBRANCH  20  24
ENDBRANCH   1  10
BRANCH   4  27
HETATM   27  N5  UNL     1      23.827  60.995  13.650  1.00  0.00    -0.234 N 
ATOM     28  H52 UNL     1      23.862  60.212  14.303  1.00  0.00     0.174 HD
ATOM     29  H51 UNL     1      23.258  60.938  12.805  1.00  0.00     0.174 HD
ENDBRANCH   4  27
BRANCH   7  30
HETATM   30  N7  UNL     1      24.508  64.818  16.025  1.00  0.00    -0.365 N 
ATOM     31  H7  UNL     1      25.181  64.897  16.789  1.00  0.00     0.161 HD
BRANCH  30  32
HETATM   32  C9  UNL     1      23.313  65.548  16.198  1.00  0.00     0.134 C 
HETATM   33  C10 UNL     1      23.425  66.695  17.174  1.00  0.00     0.259 C 
HETATM   34  N8  UNL     1      24.109  67.446  16.107  1.00  0.00    -0.071 N 
HETATM   35  C11 UNL     1      23.279  66.703  15.181  1.00  0.00     0.259 C 
ATOM     36  H82 UNL     1      24.135  68.466  16.103  1.00  0.00     0.277 HD
ATOM     37  H81 UNL     1      25.125  67.455  16.027  1.00  0.00     0.277 HD
ENDBRANCH  30  32
ENDBRANCH   7  30
TORSDOF 6
ENDMDL
MODEL 5
REMARK VINA RESULT: -7.613410554      1.324      1.530
REMARK  6 active torsions:
REMARK  status: ('A' for Active; 'I' for Inactive)
REMARK    1  A    between atoms: C2_2  and  N1_3 
REMARK    2  A    between atoms: C5_10  and  C6_11 
REMARK    3  A    between atoms: C7_14  and  N5_15 
REMARK    4  A    between atoms: C8_20  and  N7_21 
REMARK    5  A    between atoms: N7_21  and  C9_23 
REMARK    6  A    between atoms: C13_31  and  N9_32 
ROOT
HETATM    1  C6  UNL     1      26.179  63.749  12.869  1.00  0.00     0.122 A 
HETATM    2  N4  UNL     1      25.350  62.713  12.788  1.00  0.00    -0.186 N 
ATOM      3  H4  UNL     1      25.264  62.199  11.911  1.00  0.00     0.184 HD
HETATM    4  C7  UNL     1      24.609  62.332  13.881  1.00  0.00     0.678 A 
HETATM    5  N6  UNL     1      24.710  62.986  15.016  1.00  0.00    -0.174 N 
ATOM      6  H6  UNL     1      24.145  62.675  15.805  1.00  0.00     0.186 HD
HETATM    7  C8  UNL     1      25.532  64.059  15.193  1.00  0.00     0.158 A 
HETATM    8  C12 UNL     1      26.261  64.424  14.097  1.00  0.00     0.190 A 
HETATM    9  F1  UNL     1      27.098  65.487  14.212  1.00  0.00    -0.200 F 
ENDROOT
BRANCH   1  10
HETATM   10  C5  UNL     1      26.985  64.210  11.777  1.00  0.00     0.108 A 
HETATM   11  N3  UNL     1      28.335  63.986  11.883  1.00  0.00    -0.334 N 
HETATM   12  C4  UNL     1      29.183  64.370  10.930  1.00  0.00     0.152 A 
ATOM     13  H3  UNL     1      28.698  63.514  12.711  1.00  0.00     0.168 HD
HETATM   14  N2  UNL     1      30.514  64.251  10.835  1.00  0.00    -0.335 N 
HETATM   15  C14 UNL     1      28.769  65.013   9.782  1.00  0.00     0.155 A 
HETATM   16  C3  UNL     1      30.909  64.807   9.659  1.00  0.00     0.186 A 
ATOM     17  H2  UNL     1      31.126  63.818  11.527  1.00  0.00     0.168 HD
HETATM   18  N1  UNL     1      29.837  65.282   9.000  1.00  0.00    -0.326 N 
HETATM   19  N10 UNL     1      27.468  65.239   9.664  1.00  0.00    -0.324 N 
HETATM   20  C13 UNL     1      26.585  64.847  10.639  1.00  0.00     0.130 A 
ATOM     21  H10 UNL     1      27.116  65.712   8.832  1.00  0.00     0.169 HD
BRANCH  18  22
HETATM   22  C2  UNL     1      29.813  65.954   7.701  1.00  0.00     0.127 C 
HETATM   23  C1  UNL     1      31.135  65.787   6.983  1.00  0.00     0.027 C 
ENDBRANCH  18  22
BRANCH  20  24
HETATM   24  N9  UNL     1      25.349  65.103  10.445  1.00  0.00    -0.384 N 
ATOM     25  H92 UNL     1      24.708  64.921  11.217  1.00  0.00     0.157 HD
ATOM     26  H91 UNL     1      25.035  65.472   9.548  1.00  0.00     0.157 HD
ENDBRANCH  20  24
ENDBRANCH   1  10
BRANCH   4  27
HETATM   27  N5  UNL     1      23.815  61.310  13.741  1.00  0.00    -0.234 N 
ATOM     28  H52 UNL     1      24.110  60.359  13.965  1.00  0.00     0.174 HD
ATOM     29  H51 UNL     1      22.873  61.490  13.394  1.00  0.00     0.174 HD
ENDBRANCH   4  27
BRANCH   7  30
HETATM   30  N7  UNL     1      25.564  64.628  16.321  1.00  0.00    -0.365 N 
ATOM     31  H7  UNL     1      25.694  65.639  16.294  1.00  0.00     0.161 HD
BRANCH  30  32
HETATM   32  C9  UNL     1      25.447  64.070  17.612  1.00  0.00     0.134 C 
HETATM   33  C10 UNL     1      26.239  64.796  18.673  1.00  0.00     0.259 C 
HETATM   34  N8  UNL     1      25.179  65.819  18.667  1.00  0.00    -0.071 N 
HETATM   35  C11 UNL     1      24.269  64.740  18.343  1.00  0.00     0.259 C 
ATOM     36  H82 UNL     1      25.021  66.430  19.469  1.00  0.00     0.277 HD
ATOM     37  H81 UNL     1      25.247  66.655  18.087  1.00  0.00     0.277 HD
ENDBRANCH  30  32
ENDBRANCH   7  30
TORSDOF 6
ENDMDL
