MODEL 1
REMARK VINA RESULT: -6.810063300      0.000      0.000
REMARK  5 active torsions:
REMARK  status: ('A' for Active; 'I' for Inactive)
REMARK    1  A    between atoms: O1_2  and  C2_3 
REMARK    2  A    between atoms: C4_6  and  C5_7 
REMARK       I    between atoms: C5_7  and  N2_9 
REMARK    3  A    between atoms: N2_9  and  N3_11 
REMARK       I    between atoms: N3_11  and  C6_13 
REMARK    4  A    between atoms: C10_18  and  N4_19 
REMARK       I    between atoms: N4_19  and  C11_21 
REMARK    5  A    between atoms: N7_26  and  O4_27 
ROOT
HETATM    1  C2  UNL     1      37.426  -4.525  14.153  1.00  0.00     0.254 A 
HETATM    2  N1  UNL     1      37.765  -3.228  14.019  1.00  0.00    -0.310 N 
HETATM    3  C3  UNL     1      38.921  -2.726  14.792  1.00  0.00     0.160 C 
HETATM    4  C4  UNL     1      37.046  -2.402  13.211  1.00  0.00     0.117 A 
HETATM    5  C8  UNL     1      35.965  -2.937  12.534  1.00  0.00     0.017 A 
HETATM    6  C9  UNL     1      35.213  -2.092  11.580  1.00  0.00     0.055 C 
HETATM    7  C10 UNL     1      35.602  -4.282  12.667  1.00  0.00     0.147 A 
HETATM    8  N7  UNL     1      36.355  -5.032  13.479  1.00  0.00    -0.168 N 
ENDROOT
BRANCH   4   9
HETATM    9  C5  UNL     1      37.500  -1.030  13.088  1.00  0.00     0.287 C 
HETATM   10  O2  UNL     1      38.360  -0.835  12.140  1.00  0.00    -0.264 OA
HETATM   11  N2  UNL     1      37.115   0.073  13.881  1.00  0.00    -0.262 N 
ATOM     12  H2  UNL     1      36.447  -0.051  14.642  1.00  0.00     0.190 HD
BRANCH  11  13
HETATM   13  N3  UNL     1      37.650   1.325  13.618  1.00  0.00    -0.268 N 
HETATM   14  C6  UNL     1      36.923   2.546  13.633  1.00  0.00     0.232 C 
HETATM   15  C7  UNL     1      37.538   3.852  13.342  1.00  0.00     0.119 C 
HETATM   16  O3  UNL     1      35.695   2.504  13.910  1.00  0.00    -0.272 OA
ATOM     17  H3  UNL     1      38.644   1.374  13.395  1.00  0.00     0.190 HD
ENDBRANCH  11  13
ENDBRANCH   4   9
BRANCH   1  18
HETATM   18  O1  UNL     1      38.183  -5.316  14.980  1.00  0.00    -0.325 OA
HETATM   19  C1  UNL     1      39.242  -6.131  14.653  1.00  0.00     0.213 C 
ENDBRANCH   1  18
BRANCH   7  20
HETATM   20  N4  UNL     1      34.465  -4.791  12.005  1.00  0.00    -0.315 N 
HETATM   21  C11 UNL     1      34.098  -6.156  11.934  1.00  0.00     0.187 C 
HETATM   22  N5  UNL     1      34.469  -6.810  10.858  1.00  0.00    -0.373 N 
HETATM   23  N6  UNL     1      33.358  -6.839  12.917  1.00  0.00    -0.064 NA
ATOM     24  H52 UNL     1      35.006  -6.315  10.145  1.00  0.00     0.158 HD
ATOM     25  H51 UNL     1      34.205  -7.793  10.806  1.00  0.00     0.158 HD
ATOM     26  H4  UNL     1      33.856  -4.119  11.539  1.00  0.00     0.170 HD
ENDBRANCH   7  20
BRANCH   8  27
HETATM   27  O4  UNL     1      36.061  -6.377  13.648  1.00  0.00    -0.278 OA
ATOM     28  H4  UNL     1      36.085  -6.937  12.880  1.00  0.00     0.245 HD
ENDBRANCH   8  27
TORSDOF 5
ENDMDL
MODEL 2
REMARK VINA RESULT: -6.225569125      2.397      2.763
REMARK  5 active torsions:
REMARK  status: ('A' for Active; 'I' for Inactive)
REMARK    1  A    between atoms: O1_2  and  C2_3 
REMARK    2  A    between atoms: C4_6  and  C5_7 
REMARK       I    between atoms: C5_7  and  N2_9 
REMARK    3  A    between atoms: N2_9  and  N3_11 
REMARK       I    between atoms: N3_11  and  C6_13 
REMARK    4  A    between atoms: C10_18  and  N4_19 
REMARK       I    between atoms: N4_19  and  C11_21 
REMARK    5  A    between atoms: N7_26  and  O4_27 
ROOT
HETATM    1  C2  UNL     1      37.637  -6.635  13.349  1.00  0.00     0.254 A 
HETATM    2  N1  UNL     1      37.870  -5.387  13.797  1.00  0.00    -0.310 N 
HETATM    3  C3  UNL     1      38.995  -5.182  14.735  1.00  0.00     0.160 C 
HETATM    4  C4  UNL     1      37.076  -4.351  13.413  1.00  0.00     0.117 A 
HETATM    5  C8  UNL     1      36.030  -4.621  12.550  1.00  0.00     0.017 A 
HETATM    6  C9  UNL     1      35.198  -3.506  12.042  1.00  0.00     0.055 C 
HETATM    7  C10 UNL     1      35.775  -5.913  12.079  1.00  0.00     0.147 A 
HETATM    8  N7  UNL     1      36.598  -6.881  12.500  1.00  0.00    -0.168 N 
ENDROOT
BRANCH   4   9
HETATM    9  C5  UNL     1      37.419  -3.030  13.907  1.00  0.00     0.287 C 
HETATM   10  O2  UNL     1      38.237  -2.373  13.149  1.00  0.00    -0.264 OA
HETATM   11  N2  UNL     1      36.969  -2.419  15.096  1.00  0.00    -0.262 N 
ATOM     12  H2  UNL     1      36.331  -2.915  15.719  1.00  0.00     0.190 HD
BRANCH  11  13
HETATM   13  N3  UNL     1      37.398  -1.138  15.412  1.00  0.00    -0.268 N 
HETATM   14  C6  UNL     1      38.126  -0.783  16.580  1.00  0.00     0.232 C 
HETATM   15  C7  UNL     1      38.556   0.595  16.871  1.00  0.00     0.119 C 
HETATM   16  O3  UNL     1      38.416  -1.693  17.399  1.00  0.00    -0.272 OA
ATOM     17  H3  UNL     1      37.173  -0.391  14.754  1.00  0.00     0.190 HD
ENDBRANCH  11  13
ENDBRANCH   4   9
BRANCH   1  18
HETATM   18  O1  UNL     1      38.466  -7.645  13.766  1.00  0.00    -0.325 OA
HETATM   19  C1  UNL     1      39.533  -8.207  13.103  1.00  0.00     0.213 C 
ENDBRANCH   1  18
BRANCH   7  20
HETATM   20  N4  UNL     1      34.672  -6.172  11.239  1.00  0.00    -0.315 N 
HETATM   21  C11 UNL     1      33.480  -6.832  11.626  1.00  0.00     0.187 C 
HETATM   22  N5  UNL     1      33.411  -8.117  11.372  1.00  0.00    -0.373 N 
HETATM   23  N6  UNL     1      32.380  -6.203  12.238  1.00  0.00    -0.064 NA
ATOM     24  H52 UNL     1      34.209  -8.573  10.929  1.00  0.00     0.158 HD
ATOM     25  H51 UNL     1      32.553  -8.593  11.651  1.00  0.00     0.158 HD
ATOM     26  H4  UNL     1      34.738  -5.857  10.271  1.00  0.00     0.170 HD
ENDBRANCH   7  20
BRANCH   8  27
HETATM   27  O4  UNL     1      36.413  -8.184  12.063  1.00  0.00    -0.278 OA
ATOM     28  H4  UNL     1      35.677  -8.359  11.488  1.00  0.00     0.245 HD
ENDBRANCH   8  27
TORSDOF 5
ENDMDL
MODEL 3
REMARK VINA RESULT: -6.139045339      1.515      1.708
REMARK  5 active torsions:
REMARK  status: ('A' for Active; 'I' for Inactive)
REMARK    1  A    between atoms: O1_2  and  C2_3 
REMARK    2  A    between atoms: C4_6  and  C5_7 
REMARK       I    between atoms: C5_7  and  N2_9 
REMARK    3  A    between atoms: N2_9  and  N3_11 
REMARK       I    between atoms: N3_11  and  C6_13 
REMARK    4  A    between atoms: C10_18  and  N4_19 
REMARK       I    between atoms: N4_19  and  C11_21 
REMARK    5  A    between atoms: N7_26  and  O4_27 
ROOT
HETATM    1  C2  UNL     1      37.364  -6.240  13.682  1.00  0.00     0.254 A 
HETATM    2  N1  UNL     1      37.720  -4.949  13.831  1.00  0.00    -0.310 N 
HETATM    3  C3  UNL     1      38.801  -4.630  14.788  1.00  0.00     0.160 C 
HETATM    4  C4  UNL     1      37.083  -3.968  13.135  1.00  0.00     0.117 A 
HETATM    5  C8  UNL     1      36.067  -4.340  12.273  1.00  0.00     0.017 A 
HETATM    6  C9  UNL     1      35.411  -3.311  11.434  1.00  0.00     0.055 C 
HETATM    7  C10 UNL     1      35.687  -5.676  12.111  1.00  0.00     0.147 A 
HETATM    8  N7  UNL     1      36.358  -6.584  12.828  1.00  0.00    -0.168 N 
ENDROOT
BRANCH   4   9
HETATM    9  C5  UNL     1      37.553  -2.608  13.320  1.00  0.00     0.287 C 
HETATM   10  O2  UNL     1      38.582  -2.296  12.598  1.00  0.00    -0.264 OA
HETATM   11  N2  UNL     1      37.021  -1.630  14.186  1.00  0.00    -0.262 N 
ATOM     12  H2  UNL     1      36.217  -1.849  14.775  1.00  0.00     0.190 HD
BRANCH  11  13
HETATM   13  N3  UNL     1      37.598  -0.369  14.232  1.00  0.00    -0.268 N 
HETATM   14  C6  UNL     1      37.246   0.723  13.393  1.00  0.00     0.232 C 
HETATM   15  C7  UNL     1      37.893   2.043  13.480  1.00  0.00     0.119 C 
HETATM   16  O3  UNL     1      36.337   0.549  12.540  1.00  0.00    -0.272 OA
ATOM     17  H3  UNL     1      38.333  -0.213  14.922  1.00  0.00     0.190 HD
ENDBRANCH  11  13
ENDBRANCH   4   9
BRANCH   1  18
HETATM   18  O1  UNL     1      38.036  -7.191  14.407  1.00  0.00    -0.325 OA
HETATM   19  C1  UNL     1      39.070  -8.004  14.003  1.00  0.00     0.213 C 
ENDBRANCH   1  18
BRANCH   7  20
HETATM   20  N4  UNL     1      34.614  -6.024  11.264  1.00  0.00    -0.315 N 
HETATM   21  C11 UNL     1      33.446  -6.720  11.659  1.00  0.00     0.187 C 
HETATM   22  N5  UNL     1      33.441  -8.018  11.465  1.00  0.00    -0.373 N 
HETATM   23  N6  UNL     1      32.306  -6.115  12.219  1.00  0.00    -0.064 NA
ATOM     24  H52 UNL     1      34.268  -8.456  11.059  1.00  0.00     0.158 HD
ATOM     25  H51 UNL     1      32.599  -8.519  11.749  1.00  0.00     0.158 HD
ATOM     26  H4  UNL     1      34.686  -5.752  10.283  1.00  0.00     0.170 HD
ENDBRANCH   7  20
BRANCH   8  27
HETATM   27  O4  UNL     1      36.042  -7.930  12.709  1.00  0.00    -0.278 OA
ATOM     28  H4  UNL     1      35.198  -8.219  13.034  1.00  0.00     0.245 HD
ENDBRANCH   8  27
TORSDOF 5
ENDMDL
MODEL 4
REMARK VINA RESULT: -6.041649232      2.859      3.342
REMARK  5 active torsions:
REMARK  status: ('A' for Active; 'I' for Inactive)
REMARK    1  A    between atoms: O1_2  and  C2_3 
REMARK    2  A    between atoms: C4_6  and  C5_7 
REMARK       I    between atoms: C5_7  and  N2_9 
REMARK    3  A    between atoms: N2_9  and  N3_11 
REMARK       I    between atoms: N3_11  and  C6_13 
REMARK    4  A    between atoms: C10_18  and  N4_19 
REMARK       I    between atoms: N4_19  and  C11_21 
REMARK    5  A    between atoms: N7_26  and  O4_27 
ROOT
HETATM    1  C2  UNL     1      37.874  -6.350  14.006  1.00  0.00     0.254 A 
HETATM    2  N1  UNL     1      38.492  -5.200  13.671  1.00  0.00    -0.310 N 
HETATM    3  C3  UNL     1      39.950  -5.102  13.892  1.00  0.00     0.160 C 
HETATM    4  C4  UNL     1      37.784  -4.154  13.164  1.00  0.00     0.117 A 
HETATM    5  C8  UNL     1      36.419  -4.310  13.004  1.00  0.00     0.017 A 
HETATM    6  C9  UNL     1      35.631  -3.226  12.376  1.00  0.00     0.055 C 
HETATM    7  C10 UNL     1      35.766  -5.498  13.350  1.00  0.00     0.147 A 
HETATM    8  N7  UNL     1      36.527  -6.483  13.841  1.00  0.00    -0.168 N 
ENDROOT
BRANCH   4   9
HETATM    9  C5  UNL     1      38.529  -2.966  12.790  1.00  0.00     0.287 C 
HETATM   10  O2  UNL     1      38.599  -2.066  13.718  1.00  0.00    -0.264 OA
HETATM   11  N2  UNL     1      39.155  -2.704  11.552  1.00  0.00    -0.262 N 
ATOM     12  H2  UNL     1      39.108  -3.390  10.798  1.00  0.00     0.190 HD
BRANCH  11  13
HETATM   13  N3  UNL     1      39.833  -1.508  11.369  1.00  0.00    -0.268 N 
HETATM   14  C6  UNL     1      41.079  -1.367  10.699  1.00  0.00     0.232 C 
HETATM   15  C7  UNL     1      41.760  -0.073  10.534  1.00  0.00     0.119 C 
HETATM   16  O3  UNL     1      41.619  -2.401  10.225  1.00  0.00    -0.272 OA
ATOM     17  H3  UNL     1      39.404  -0.662  11.744  1.00  0.00     0.190 HD
ENDBRANCH  11  13
ENDBRANCH   4   9
BRANCH   1  18
HETATM   18  O1  UNL     1      38.632  -7.375  14.512  1.00  0.00    -0.325 OA
HETATM   19  C1  UNL     1      39.131  -8.477  13.856  1.00  0.00     0.213 C 
ENDBRANCH   1  18
BRANCH   7  20
HETATM   20  N4  UNL     1      34.366  -5.615  13.224  1.00  0.00    -0.315 N 
HETATM   21  C11 UNL     1      33.685  -6.664  12.559  1.00  0.00     0.187 C 
HETATM   22  N5  UNL     1      33.334  -6.440  11.315  1.00  0.00    -0.373 N 
HETATM   23  N6  UNL     1      33.352  -7.899  13.144  1.00  0.00    -0.064 NA
ATOM     24  H52 UNL     1      33.576  -5.545  10.891  1.00  0.00     0.158 HD
ATOM     25  H51 UNL     1      32.843  -7.195  10.835  1.00  0.00     0.158 HD
ATOM     26  H4  UNL     1      33.796  -4.883  13.648  1.00  0.00     0.170 HD
ENDBRANCH   7  20
BRANCH   8  27
HETATM   27  O4  UNL     1      35.948  -7.694  14.194  1.00  0.00    -0.278 OA
ATOM     28  H4  UNL     1      35.096  -7.901  13.828  1.00  0.00     0.245 HD
ENDBRANCH   8  27
TORSDOF 5
ENDMDL
MODEL 5
REMARK VINA RESULT: -6.017342359      2.271      2.959
REMARK  5 active torsions:
REMARK  status: ('A' for Active; 'I' for Inactive)
REMARK    1  A    between atoms: O1_2  and  C2_3 
REMARK    2  A    between atoms: C4_6  and  C5_7 
REMARK       I    between atoms: C5_7  and  N2_9 
REMARK    3  A    between atoms: N2_9  and  N3_11 
REMARK       I    between atoms: N3_11  and  C6_13 
REMARK    4  A    between atoms: C10_18  and  N4_19 
REMARK       I    between atoms: N4_19  and  C11_21 
REMARK    5  A    between atoms: N7_26  and  O4_27 
ROOT
HETATM    1  C2  UNL     1      38.098  -7.177  12.634  1.00  0.00     0.254 A 
HETATM    2  N1  UNL     1      38.511  -5.896  12.697  1.00  0.00    -0.310 N 
HETATM    3  C3  UNL     1      39.955  -5.620  12.534  1.00  0.00     0.160 C 
HETATM    4  C4  UNL     1      37.624  -4.890  12.927  1.00  0.00     0.117 A 
HETATM    5  C8  UNL     1      36.292  -5.225  13.090  1.00  0.00     0.017 A 
HETATM    6  C9  UNL     1      35.286  -4.151  13.255  1.00  0.00     0.055 C 
HETATM    7  C10 UNL     1      35.850  -6.551  13.030  1.00  0.00     0.147 A 
HETATM    8  N7  UNL     1      36.780  -7.486  12.800  1.00  0.00    -0.168 N 
ENDROOT
BRANCH   4   9
HETATM    9  C5  UNL     1      38.142  -3.535  12.938  1.00  0.00     0.287 C 
HETATM   10  O2  UNL     1      38.546  -3.128  14.099  1.00  0.00    -0.264 OA
HETATM   11  N2  UNL     1      38.237  -2.647  11.846  1.00  0.00    -0.262 N 
ATOM     12  H2  UNL     1      37.918  -2.935  10.921  1.00  0.00     0.190 HD
BRANCH  11  13
HETATM   13  N3  UNL     1      38.768  -1.379  12.039  1.00  0.00    -0.268 N 
HETATM   14  C6  UNL     1      38.026  -0.231  12.424  1.00  0.00     0.232 C 
HETATM   15  C7  UNL     1      38.638   1.095  12.612  1.00  0.00     0.119 C 
HETATM   16  O3  UNL     1      36.788  -0.358  12.614  1.00  0.00    -0.272 OA
ATOM     17  H3  UNL     1      39.771  -1.263  11.892  1.00  0.00     0.190 HD
ENDBRANCH  11  13
ENDBRANCH   4   9
BRANCH   1  18
HETATM   18  O1  UNL     1      39.032  -8.154  12.401  1.00  0.00    -0.325 OA
HETATM   19  C1  UNL     1      39.299  -8.820  11.227  1.00  0.00     0.213 C 
ENDBRANCH   1  18
BRANCH   7  20
HETATM   20  N4  UNL     1      34.494  -6.872  13.249  1.00  0.00    -0.315 N 
HETATM   21  C11 UNL     1      33.575  -7.285  12.255  1.00  0.00     0.187 C 
HETATM   22  N5  UNL     1      32.812  -6.353  11.736  1.00  0.00    -0.373 N 
HETATM   23  N6  UNL     1      33.420  -8.612  11.811  1.00  0.00    -0.064 NA
ATOM     24  H52 UNL     1      32.925  -5.391  12.058  1.00  0.00     0.158 HD
ATOM     25  H51 UNL     1      32.150  -6.651  11.019  1.00  0.00     0.158 HD
ATOM     26  H4  UNL     1      34.146  -6.799  14.206  1.00  0.00     0.170 HD
ENDBRANCH   7  20
BRANCH   8  27
HETATM   27  O4  UNL     1      36.412  -8.821  12.715  1.00  0.00    -0.278 OA
ATOM     28  H4  UNL     1      35.958  -9.204  13.456  1.00  0.00     0.245 HD
ENDBRANCH   8  27
TORSDOF 5
ENDMDL
