MODEL 1
REMARK VINA RESULT: -6.206003839      0.000      0.000
REMARK  6 active torsions:
REMARK  status: ('A' for Active; 'I' for Inactive)
REMARK    1  A    between atoms: C2_2  and  C3_3 
REMARK    2  A    between atoms: C2_2  and  S2_23 
REMARK       I    between atoms: C3_3  and  N1_5 
REMARK    3  A    between atoms: N1_5  and  C4_7 
REMARK    4  A    between atoms: C5_10  and  S1_11 
REMARK    5  A    between atoms: C6_17  and  N4_18 
REMARK    6  A    between atoms: S2_23  and  N6_24 
ROOT
HETATM    1  C4  UNL     1      37.769  -0.945  14.603  1.00  0.00     0.701 A 
HETATM    2  N2  UNL     1      37.174   0.230  14.307  1.00  0.00    -0.162 N 
ATOM      3  H2  UNL     1      36.156   0.279  14.274  1.00  0.00     0.186 HD
HETATM    4  C5  UNL     1      37.894   1.337  14.053  1.00  0.00     0.254 A 
HETATM    5  N3  UNL     1      39.234   1.225  14.107  1.00  0.00    -0.163 N 
ATOM      6  H3  UNL     1      39.810   2.046  13.919  1.00  0.00     0.186 HD
HETATM    7  C6  UNL     1      39.837   0.049  14.404  1.00  0.00     0.692 A 
HETATM    8  N5  UNL     1      39.107  -1.058  14.657  1.00  0.00    -0.022 N 
ATOM      9  H5  UNL     1      39.555  -1.947  14.882  1.00  0.00     0.203 HD
ENDROOT
BRANCH   1  10
HETATM   10  N1  UNL     1      37.063  -1.997  14.843  1.00  0.00    -0.158 N 
HETATM   11  C3  UNL     1      37.042  -3.155  14.047  1.00  0.00     0.256 C 
HETATM   12  O1  UNL     1      38.028  -3.900  13.957  1.00  0.00    -0.271 OA
ATOM     13  H1  UNL     1      36.474  -1.989  15.676  1.00  0.00     0.187 HD
BRANCH  11  14
HETATM   14  C2  UNL     1      35.804  -3.465  13.308  1.00  0.00     0.217 C 
HETATM   15  C1  UNL     1      35.848  -4.935  12.942  1.00  0.00     0.038 C 
BRANCH  14  16
HETATM   16  S2  UNL     1      35.810  -2.441  11.847  1.00  0.00     0.237 S 
HETATM   17  O5  UNL     1      35.334  -1.065  12.111  1.00  0.00    -0.205 OA
HETATM   18  O6  UNL     1      35.064  -3.132  10.743  1.00  0.00    -0.205 OA
BRANCH  16  19
HETATM   19  N6  UNL     1      37.473  -2.350  11.326  1.00  0.00    -0.328 N 
ATOM     20  H62 UNL     1      38.158  -3.105  11.364  1.00  0.00     0.168 HD
ATOM     21  H61 UNL     1      37.611  -1.399  10.982  1.00  0.00     0.168 HD
ENDBRANCH  16  19
ENDBRANCH  14  16
ENDBRANCH  11  14
ENDBRANCH   1  10
BRANCH   4  22
HETATM   22  S1  UNL     1      37.107   2.866  13.666  1.00  0.00     0.173 S 
HETATM   23  O2  UNL     1      35.615   2.615  13.763  1.00  0.00    -0.589 OA
HETATM   24  O3  UNL     1      37.421   3.289  12.283  1.00  0.00    -0.589 OA
HETATM   25  O4  UNL     1      37.535   3.968  14.831  1.00  0.00    -0.589 OA
ENDBRANCH   4  22
BRANCH   7  26
HETATM   26  N4  UNL     1      41.122  -0.058  14.455  1.00  0.00    -0.234 N 
ATOM     27  H42 UNL     1      41.661   0.796  14.601  1.00  0.00     0.174 HD
ATOM     28  H41 UNL     1      41.587  -0.960  14.354  1.00  0.00     0.174 HD
ENDBRANCH   7  26
TORSDOF 6
ENDMDL
MODEL 2
REMARK VINA RESULT: -5.957921422      1.551      2.504
REMARK  6 active torsions:
REMARK  status: ('A' for Active; 'I' for Inactive)
REMARK    1  A    between atoms: C2_2  and  C3_3 
REMARK    2  A    between atoms: C2_2  and  S2_23 
REMARK       I    between atoms: C3_3  and  N1_5 
REMARK    3  A    between atoms: N1_5  and  C4_7 
REMARK    4  A    between atoms: C5_10  and  S1_11 
REMARK    5  A    between atoms: C6_17  and  N4_18 
REMARK    6  A    between atoms: S2_23  and  N6_24 
ROOT
HETATM    1  C4  UNL     1      37.948  -0.376  11.995  1.00  0.00     0.701 A 
HETATM    2  N2  UNL     1      37.256   0.675  12.483  1.00  0.00    -0.162 N 
ATOM      3  H2  UNL     1      36.246   0.715  12.347  1.00  0.00     0.186 HD
HETATM    4  C5  UNL     1      37.870   1.673  13.145  1.00  0.00     0.254 A 
HETATM    5  N3  UNL     1      39.203   1.580  13.301  1.00  0.00    -0.163 N 
ATOM      6  H3  UNL     1      39.699   2.319  13.798  1.00  0.00     0.186 HD
HETATM    7  C6  UNL     1      39.903   0.526  12.813  1.00  0.00     0.692 A 
HETATM    8  N5  UNL     1      39.280  -0.471  12.150  1.00  0.00    -0.022 N 
ATOM      9  H5  UNL     1      39.801  -1.266  11.780  1.00  0.00     0.203 HD
ENDROOT
BRANCH   1  10
HETATM   10  N1  UNL     1      37.344  -1.323  11.362  1.00  0.00    -0.158 N 
HETATM   11  C3  UNL     1      36.278  -2.083  11.873  1.00  0.00     0.256 C 
HETATM   12  O1  UNL     1      35.164  -1.582  12.080  1.00  0.00    -0.271 OA
ATOM     13  H1  UNL     1      37.665  -1.538  10.418  1.00  0.00     0.187 HD
BRANCH  11  14
HETATM   14  C2  UNL     1      36.519  -3.510  12.161  1.00  0.00     0.217 C 
HETATM   15  C1  UNL     1      35.168  -4.179  12.309  1.00  0.00     0.038 C 
BRANCH  14  16
HETATM   16  S2  UNL     1      37.438  -3.574  13.689  1.00  0.00     0.237 S 
HETATM   17  O5  UNL     1      38.870  -3.250  13.509  1.00  0.00    -0.205 OA
HETATM   18  O6  UNL     1      37.201  -4.893  14.364  1.00  0.00    -0.205 OA
BRANCH  16  19
HETATM   19  N6  UNL     1      36.732  -2.362  14.730  1.00  0.00    -0.328 N 
ATOM     20  H62 UNL     1      35.822  -2.417  15.186  1.00  0.00     0.168 HD
ATOM     21  H61 UNL     1      37.412  -1.603  14.782  1.00  0.00     0.168 HD
ENDBRANCH  16  19
ENDBRANCH  14  16
ENDBRANCH  11  14
ENDBRANCH   1  10
BRANCH   4  22
HETATM   22  S1  UNL     1      36.957   3.042  13.779  1.00  0.00     0.173 S 
HETATM   23  O2  UNL     1      35.505   2.607  13.814  1.00  0.00    -0.589 OA
HETATM   24  O3  UNL     1      37.072   4.215  12.884  1.00  0.00    -0.589 OA
HETATM   25  O4  UNL     1      37.465   3.317  15.334  1.00  0.00    -0.589 OA
ENDBRANCH   4  22
BRANCH   7  26
HETATM   26  N4  UNL     1      41.182   0.438  12.963  1.00  0.00    -0.234 N 
ATOM     27  H42 UNL     1      41.764   0.573  12.137  1.00  0.00     0.174 HD
ATOM     28  H41 UNL     1      41.599   0.240  13.872  1.00  0.00     0.174 HD
ENDBRANCH   7  26
TORSDOF 6
ENDMDL
MODEL 3
REMARK VINA RESULT: -5.877151391      2.016      2.444
REMARK  6 active torsions:
REMARK  status: ('A' for Active; 'I' for Inactive)
REMARK    1  A    between atoms: C2_2  and  C3_3 
REMARK    2  A    between atoms: C2_2  and  S2_23 
REMARK       I    between atoms: C3_3  and  N1_5 
REMARK    3  A    between atoms: N1_5  and  C4_7 
REMARK    4  A    between atoms: C5_10  and  S1_11 
REMARK    5  A    between atoms: C6_17  and  N4_18 
REMARK    6  A    between atoms: S2_23  and  N6_24 
ROOT
HETATM    1  C4  UNL     1      37.552  -0.776  14.421  1.00  0.00     0.701 A 
HETATM    2  N2  UNL     1      37.323   0.407  13.813  1.00  0.00    -0.162 N 
ATOM      3  H2  UNL     1      37.287   0.446  12.794  1.00  0.00     0.186 HD
HETATM    4  C5  UNL     1      37.142   1.537  14.520  1.00  0.00     0.254 A 
HETATM    5  N3  UNL     1      37.199   1.438  15.861  1.00  0.00    -0.163 N 
ATOM      6  H3  UNL     1      37.066   2.276  16.427  1.00  0.00     0.186 HD
HETATM    7  C6  UNL     1      37.428   0.253  16.477  1.00  0.00     0.692 A 
HETATM    8  N5  UNL     1      37.609  -0.876  15.760  1.00  0.00    -0.022 N 
ATOM      9  H5  UNL     1      37.782  -1.771  16.217  1.00  0.00     0.203 HD
ENDROOT
BRANCH   1  10
HETATM   10  N1  UNL     1      37.724  -1.850  13.727  1.00  0.00    -0.158 N 
HETATM   11  C3  UNL     1      37.859  -1.894  12.329  1.00  0.00     0.256 C 
HETATM   12  O1  UNL     1      38.855  -1.427  11.757  1.00  0.00    -0.271 OA
ATOM     13  H1  UNL     1      37.765  -2.735  14.232  1.00  0.00     0.187 HD
BRANCH  11  14
HETATM   14  C2  UNL     1      36.774  -2.516  11.547  1.00  0.00     0.217 C 
HETATM   15  C1  UNL     1      35.743  -1.442  11.264  1.00  0.00     0.038 C 
BRANCH  14  16
HETATM   16  S2  UNL     1      36.088  -3.810  12.566  1.00  0.00     0.237 S 
HETATM   17  O5  UNL     1      35.308  -3.286  13.708  1.00  0.00    -0.205 OA
HETATM   18  O6  UNL     1      37.176  -4.764  12.969  1.00  0.00    -0.205 OA
BRANCH  16  19
HETATM   19  N6  UNL     1      35.007  -4.715  11.537  1.00  0.00    -0.328 N 
ATOM     20  H62 UNL     1      34.200  -4.343  11.036  1.00  0.00     0.168 HD
ATOM     21  H61 UNL     1      35.348  -5.677  11.544  1.00  0.00     0.168 HD
ENDBRANCH  16  19
ENDBRANCH  14  16
ENDBRANCH  11  14
ENDBRANCH   1  10
BRANCH   4  22
HETATM   22  S1  UNL     1      36.844   3.077  13.716  1.00  0.00     0.173 S 
HETATM   23  O2  UNL     1      35.339   3.250  13.669  1.00  0.00    -0.589 OA
HETATM   24  O3  UNL     1      37.357   3.058  12.328  1.00  0.00    -0.589 OA
HETATM   25  O4  UNL     1      37.486   4.279  14.664  1.00  0.00    -0.589 OA
ENDBRANCH   4  22
BRANCH   7  26
HETATM   26  N4  UNL     1      37.482   0.160  17.763  1.00  0.00    -0.234 N 
ATOM     27  H42 UNL     1      38.375   0.361  18.214  1.00  0.00     0.174 HD
ATOM     28  H41 UNL     1      36.666  -0.105  18.313  1.00  0.00     0.174 HD
ENDBRANCH   7  26
TORSDOF 6
ENDMDL
MODEL 4
REMARK VINA RESULT: -5.683691855      1.792      2.660
REMARK  6 active torsions:
REMARK  status: ('A' for Active; 'I' for Inactive)
REMARK    1  A    between atoms: C2_2  and  C3_3 
REMARK    2  A    between atoms: C2_2  and  S2_23 
REMARK       I    between atoms: C3_3  and  N1_5 
REMARK    3  A    between atoms: N1_5  and  C4_7 
REMARK    4  A    between atoms: C5_10  and  S1_11 
REMARK    5  A    between atoms: C6_17  and  N4_18 
REMARK    6  A    between atoms: S2_23  and  N6_24 
ROOT
HETATM    1  C4  UNL     1      37.677  -1.142  13.888  1.00  0.00     0.701 A 
HETATM    2  N2  UNL     1      37.389   0.102  13.451  1.00  0.00    -0.162 N 
ATOM      3  H2  UNL     1      37.310   0.273  12.449  1.00  0.00     0.186 HD
HETATM    4  C5  UNL     1      37.204   1.122  14.308  1.00  0.00     0.254 A 
HETATM    5  N3  UNL     1      37.317   0.851  15.621  1.00  0.00    -0.163 N 
ATOM      6  H3  UNL     1      37.183   1.602  16.298  1.00  0.00     0.186 HD
HETATM    7  C6  UNL     1      37.606  -0.397  16.066  1.00  0.00     0.692 A 
HETATM    8  N5  UNL     1      37.791  -1.415  15.199  1.00  0.00    -0.022 N 
ATOM      9  H5  UNL     1      38.009  -2.356  15.528  1.00  0.00     0.203 HD
ENDROOT
BRANCH   1  10
HETATM   10  N1  UNL     1      37.853  -2.108  13.052  1.00  0.00    -0.158 N 
HETATM   11  C3  UNL     1      36.862  -2.632  12.205  1.00  0.00     0.256 C 
HETATM   12  O1  UNL     1      36.395  -1.973  11.265  1.00  0.00    -0.271 OA
ATOM     13  H1  UNL     1      38.782  -2.525  13.003  1.00  0.00     0.187 HD
BRANCH  11  14
HETATM   14  C2  UNL     1      36.382  -4.003  12.464  1.00  0.00     0.217 C 
HETATM   15  C1  UNL     1      35.161  -3.898  13.354  1.00  0.00     0.038 C 
BRANCH  14  16
HETATM   16  S2  UNL     1      37.709  -4.860  13.294  1.00  0.00     0.237 S 
HETATM   17  O5  UNL     1      37.780  -4.543  14.737  1.00  0.00    -0.205 OA
HETATM   18  O6  UNL     1      38.998  -4.621  12.563  1.00  0.00    -0.205 OA
BRANCH  16  19
HETATM   19  N6  UNL     1      37.365  -6.563  13.127  1.00  0.00    -0.328 N 
ATOM     20  H62 UNL     1      37.100  -7.043  12.267  1.00  0.00     0.168 HD
ATOM     21  H61 UNL     1      37.483  -6.968  14.056  1.00  0.00     0.168 HD
ENDBRANCH  16  19
ENDBRANCH  14  16
ENDBRANCH  11  14
ENDBRANCH   1  10
BRANCH   4  22
HETATM   22  S1  UNL     1      36.828   2.743  13.727  1.00  0.00     0.173 S 
HETATM   23  O2  UNL     1      35.316   2.841  13.682  1.00  0.00    -0.589 OA
HETATM   24  O3  UNL     1      37.350   2.949  12.358  1.00  0.00    -0.589 OA
HETATM   25  O4  UNL     1      37.396   3.830  14.845  1.00  0.00    -0.589 OA
ENDBRANCH   4  22
BRANCH   7  26
HETATM   26  N4  UNL     1      37.715  -0.656  17.326  1.00  0.00    -0.234 N 
ATOM     27  H42 UNL     1      38.048   0.091  17.935  1.00  0.00     0.174 HD
ATOM     28  H41 UNL     1      37.479  -1.574  17.703  1.00  0.00     0.174 HD
ENDBRANCH   7  26
TORSDOF 6
ENDMDL
MODEL 5
REMARK VINA RESULT: -5.666485033      1.604      2.122
REMARK  6 active torsions:
REMARK  status: ('A' for Active; 'I' for Inactive)
REMARK    1  A    between atoms: C2_2  and  C3_3 
REMARK    2  A    between atoms: C2_2  and  S2_23 
REMARK       I    between atoms: C3_3  and  N1_5 
REMARK    3  A    between atoms: N1_5  and  C4_7 
REMARK    4  A    between atoms: C5_10  and  S1_11 
REMARK    5  A    between atoms: C6_17  and  N4_18 
REMARK    6  A    between atoms: S2_23  and  N6_24 
ROOT
HETATM    1  C4  UNL     1      37.279  -1.289  15.478  1.00  0.00     0.701 A 
HETATM    2  N2  UNL     1      37.572  -0.447  14.465  1.00  0.00    -0.162 N 
ATOM      3  H2  UNL     1      37.575  -0.799  13.508  1.00  0.00     0.186 HD
HETATM    4  C5  UNL     1      37.861   0.848  14.690  1.00  0.00     0.254 A 
HETATM    5  N3  UNL     1      37.846   1.269  15.968  1.00  0.00    -0.163 N 
ATOM      6  H3  UNL     1      38.061   2.244  16.173  1.00  0.00     0.186 HD
HETATM    7  C6  UNL     1      37.552   0.427  16.989  1.00  0.00     0.692 A 
HETATM    8  N5  UNL     1      37.263  -0.871  16.755  1.00  0.00    -0.022 N 
ATOM      9  H5  UNL     1      37.041  -1.509  17.519  1.00  0.00     0.203 HD
ENDROOT
BRANCH   1  10
HETATM   10  N1  UNL     1      37.005  -2.528  15.244  1.00  0.00    -0.158 N 
HETATM   11  C3  UNL     1      37.247  -3.193  14.030  1.00  0.00     0.256 C 
HETATM   12  O1  UNL     1      38.398  -3.427  13.636  1.00  0.00    -0.271 OA
ATOM     13  H1  UNL     1      36.579  -3.066  15.999  1.00  0.00     0.187 HD
BRANCH  11  14
HETATM   14  C2  UNL     1      36.083  -3.610  13.225  1.00  0.00     0.217 C 
HETATM   15  C1  UNL     1      36.376  -4.996  12.686  1.00  0.00     0.038 C 
BRANCH  14  16
HETATM   16  S2  UNL     1      35.929  -2.426  11.899  1.00  0.00     0.237 S 
HETATM   17  O5  UNL     1      35.324  -1.149  12.339  1.00  0.00    -0.205 OA
HETATM   18  O6  UNL     1      35.218  -3.058  10.738  1.00  0.00    -0.205 OA
BRANCH  16  19
HETATM   19  N6  UNL     1      37.554  -2.097  11.351  1.00  0.00    -0.328 N 
ATOM     20  H62 UNL     1      38.153  -2.736  10.827  1.00  0.00     0.168 HD
ATOM     21  H61 UNL     1      37.772  -1.150  11.661  1.00  0.00     0.168 HD
ENDBRANCH  16  19
ENDBRANCH  14  16
ENDBRANCH  11  14
ENDBRANCH   1  10
BRANCH   4  22
HETATM   22  S1  UNL     1      38.244   1.940  13.360  1.00  0.00     0.173 S 
HETATM   23  O2  UNL     1      39.276   1.229  12.507  1.00  0.00    -0.589 OA
HETATM   24  O3  UNL     1      38.838   3.198  13.862  1.00  0.00    -0.589 OA
HETATM   25  O4  UNL     1      36.865   2.148  12.459  1.00  0.00    -0.589 OA
ENDBRANCH   4  22
BRANCH   7  26
HETATM   26  N4  UNL     1      37.538   0.831  18.214  1.00  0.00    -0.234 N 
ATOM     27  H42 UNL     1      38.435   0.932  18.689  1.00  0.00     0.174 HD
ATOM     28  H41 UNL     1      36.664   1.044  18.695  1.00  0.00     0.174 HD
ENDBRANCH   7  26
TORSDOF 6
ENDMDL
