MODEL 1
REMARK VINA RESULT: -5.937065393      0.000      0.000
REMARK  6 active torsions:
REMARK  status: ('A' for Active; 'I' for Inactive)
REMARK    1  A    between atoms: O1_2  and  C2_3 
REMARK    2  A    between atoms: C2_3  and  C3_5 
REMARK    3  A    between atoms: C3_5  and  N1_7 
REMARK    4  A    between atoms: C6_10  and  C7_11 
REMARK    5  A    between atoms: C7_11  and  N2_12 
REMARK    6  A    between atoms: C7_11  and  C8_16 
REMARK       I    between atoms: C8_16  and  N3_18 
REMARK       I    between atoms: N3_18  and  C9_20 
REMARK       I    between atoms: N4_23  and  C11_24 
ROOT
HETATM    1  N1  UNL     1      37.181  -1.561  12.745  1.00  0.00    -0.240 N 
HETATM    2  C5  UNL     1      35.939  -2.174  12.473  1.00  0.00     0.267 C 
HETATM    3  O3  UNL     1      34.990  -1.925  11.708  1.00  0.00    -0.269 OA
HETATM    4  C6  UNL     1      36.282  -3.199  13.471  1.00  0.00     0.244 C 
HETATM    5  N4  UNL     1      37.179  -2.206  13.988  1.00  0.00    -0.243 N 
HETATM    6  C11 UNL     1      37.852  -1.890  15.208  1.00  0.00     0.204 C 
HETATM    7  N5  UNL     1      37.175  -1.457  16.215  1.00  0.00    -0.372 N 
ATOM      8  H51 UNL     1      37.656  -1.232  17.085  1.00  0.00     0.158 HD
ATOM      9  H52 UNL     1      36.166  -1.352  16.111  1.00  0.00     0.158 HD
HETATM   10  N6  UNL     1      39.254  -2.037  15.352  1.00  0.00    -0.062 NA
ENDROOT
BRANCH   4  11
HETATM   11  C7  UNL     1      36.933  -4.461  12.966  1.00  0.00     0.308 C 
BRANCH  11  12
HETATM   12  N2  UNL     1      37.956  -4.811  13.962  1.00  0.00    -0.064 N 
ATOM     13  H23 UNL     1      38.042  -4.129  14.715  1.00  0.00     0.275 HD
ATOM     14  H22 UNL     1      37.701  -5.608  14.546  1.00  0.00     0.275 HD
ATOM     15  H21 UNL     1      38.820  -4.951  13.437  1.00  0.00     0.275 HD
ENDBRANCH  11  12
BRANCH  11  16
HETATM   16  C8  UNL     1      35.914  -5.546  13.038  1.00  0.00     0.257 C 
HETATM   17  O4  UNL     1      36.245  -6.584  13.655  1.00  0.00    -0.271 OA
HETATM   18  N3  UNL     1      34.641  -5.453  12.461  1.00  0.00    -0.296 N 
HETATM   19  C9  UNL     1      33.718  -6.510  12.561  1.00  0.00     0.220 C 
ATOM     20  H3  UNL     1      34.378  -4.604  11.960  1.00  0.00     0.171 HD
HETATM   21  C10 UNL     1      33.972  -7.794  13.259  1.00  0.00     0.117 C 
HETATM   22  O5  UNL     1      32.554  -6.404  12.025  1.00  0.00    -0.274 OA
ENDBRANCH  11  16
ENDBRANCH   4  11
BRANCH   1  23
HETATM   23  C3  UNL     1      38.041  -0.650  12.011  1.00  0.00     0.207 C 
HETATM   24  C4  UNL     1      39.466  -1.220  11.993  1.00  0.00     0.045 C 
BRANCH  23  25
HETATM   25  C2  UNL     1      38.152   0.686  12.642  1.00  0.00     0.283 C 
HETATM   26  O2  UNL     1      39.087   0.891  13.450  1.00  0.00    -0.263 OA
BRANCH  25  27
HETATM   27  O1  UNL     1      37.266   1.699  12.368  1.00  0.00    -0.325 OA
HETATM   28  C1  UNL     1      37.205   2.910  13.100  1.00  0.00     0.213 C 
ENDBRANCH  25  27
ENDBRANCH  23  25
ENDBRANCH   1  23
TORSDOF 6
ENDMDL
MODEL 2
REMARK VINA RESULT: -5.758629622      3.739      8.338
REMARK  6 active torsions:
REMARK  status: ('A' for Active; 'I' for Inactive)
REMARK    1  A    between atoms: O1_2  and  C2_3 
REMARK    2  A    between atoms: C2_3  and  C3_5 
REMARK    3  A    between atoms: C3_5  and  N1_7 
REMARK    4  A    between atoms: C6_10  and  C7_11 
REMARK    5  A    between atoms: C7_11  and  N2_12 
REMARK    6  A    between atoms: C7_11  and  C8_16 
REMARK       I    between atoms: C8_16  and  N3_18 
REMARK       I    between atoms: N3_18  and  C9_20 
REMARK       I    between atoms: N4_23  and  C11_24 
ROOT
HETATM    1  N1  UNL     1      35.571  -9.166  11.241  1.00  0.00    -0.240 N 
HETATM    2  C5  UNL     1      36.157  -8.145  12.020  1.00  0.00     0.267 C 
HETATM    3  O3  UNL     1      37.325  -7.801  12.275  1.00  0.00    -0.269 OA
HETATM    4  C6  UNL     1      34.799  -7.701  12.371  1.00  0.00     0.244 C 
HETATM    5  N4  UNL     1      34.414  -9.038  12.019  1.00  0.00    -0.243 N 
HETATM    6  C11 UNL     1      33.351  -9.958  12.275  1.00  0.00     0.204 C 
HETATM    7  N5  UNL     1      33.237 -10.489  13.442  1.00  0.00    -0.372 N 
ATOM      8  H51 UNL     1      32.478 -11.146  13.625  1.00  0.00     0.158 HD
ATOM      9  H52 UNL     1      33.916 -10.234  14.160  1.00  0.00     0.158 HD
HETATM   10  N6  UNL     1      32.408 -10.312  11.278  1.00  0.00    -0.062 NA
ENDROOT
BRANCH   4  11
HETATM   11  C7  UNL     1      34.192  -6.610  11.527  1.00  0.00     0.308 C 
BRANCH  11  12
HETATM   12  N2  UNL     1      32.759  -6.600  11.853  1.00  0.00    -0.064 N 
ATOM     13  H23 UNL     1      32.186  -7.116  11.186  1.00  0.00     0.275 HD
ATOM     14  H22 UNL     1      32.523  -7.158  12.674  1.00  0.00     0.275 HD
ATOM     15  H21 UNL     1      32.500  -5.617  11.940  1.00  0.00     0.275 HD
ENDBRANCH  11  12
BRANCH  11  16
HETATM   16  C8  UNL     1      34.727  -5.312  12.029  1.00  0.00     0.257 C 
HETATM   17  O4  UNL     1      34.954  -5.239  13.258  1.00  0.00    -0.271 OA
HETATM   18  N3  UNL     1      34.978  -4.207  11.205  1.00  0.00    -0.296 N 
HETATM   19  C9  UNL     1      35.485  -3.005  11.735  1.00  0.00     0.220 C 
ATOM     20  H3  UNL     1      34.791  -4.274  10.205  1.00  0.00     0.171 HD
HETATM   21  C10 UNL     1      35.799  -2.776  13.166  1.00  0.00     0.117 C 
HETATM   22  O5  UNL     1      35.709  -2.003  10.962  1.00  0.00    -0.274 OA
ENDBRANCH  11  16
ENDBRANCH   4  11
BRANCH   1  23
HETATM   23  C3  UNL     1      36.029  -9.974  10.124  1.00  0.00     0.207 C 
HETATM   24  C4  UNL     1      37.504  -9.651   9.850  1.00  0.00     0.045 C 
BRANCH  23  25
HETATM   25  C2  UNL     1      35.313  -9.683   8.861  1.00  0.00     0.283 C 
HETATM   26  O2  UNL     1      35.582  -8.622   8.250  1.00  0.00    -0.263 OA
BRANCH  25  27
HETATM   27  O1  UNL     1      34.369 -10.535   8.342  1.00  0.00    -0.325 OA
HETATM   28  C1  UNL     1      34.315 -10.912   6.978  1.00  0.00     0.213 C 
ENDBRANCH  25  27
ENDBRANCH  23  25
ENDBRANCH   1  23
TORSDOF 6
ENDMDL
MODEL 3
REMARK VINA RESULT: -5.656213075      3.379      5.754
REMARK  6 active torsions:
REMARK  status: ('A' for Active; 'I' for Inactive)
REMARK    1  A    between atoms: O1_2  and  C2_3 
REMARK    2  A    between atoms: C2_3  and  C3_5 
REMARK    3  A    between atoms: C3_5  and  N1_7 
REMARK    4  A    between atoms: C6_10  and  C7_11 
REMARK    5  A    between atoms: C7_11  and  N2_12 
REMARK    6  A    between atoms: C7_11  and  C8_16 
REMARK       I    between atoms: C8_16  and  N3_18 
REMARK       I    between atoms: N3_18  and  C9_20 
REMARK       I    between atoms: N4_23  and  C11_24 
ROOT
HETATM    1  N1  UNL     1      37.699   4.126  14.243  1.00  0.00    -0.240 N 
HETATM    2  C5  UNL     1      36.591   3.325  13.895  1.00  0.00     0.267 C 
HETATM    3  O3  UNL     1      35.476   3.547  13.389  1.00  0.00    -0.269 OA
HETATM    4  C6  UNL     1      37.341   2.159  14.388  1.00  0.00     0.244 C 
HETATM    5  N4  UNL     1      38.087   3.125  15.142  1.00  0.00    -0.243 N 
HETATM    6  C11 UNL     1      38.907   3.183  16.311  1.00  0.00     0.204 C 
HETATM    7  N5  UNL     1      38.371   3.047  17.473  1.00  0.00    -0.372 N 
ATOM      8  H51 UNL     1      38.956   3.088  18.307  1.00  0.00     0.158 HD
ATOM      9  H52 UNL     1      37.362   2.899  17.527  1.00  0.00     0.158 HD
HETATM   10  N6  UNL     1      40.308   3.388  16.235  1.00  0.00    -0.062 NA
ENDROOT
BRANCH   4  11
HETATM   11  C7  UNL     1      38.134   1.373  13.377  1.00  0.00     0.308 C 
BRANCH  11  12
HETATM   12  N2  UNL     1      39.120   0.604  14.150  1.00  0.00    -0.064 N 
ATOM     13  H23 UNL     1      38.812   0.381  15.096  1.00  0.00     0.275 HD
ATOM     14  H22 UNL     1      39.231  -0.358  13.827  1.00  0.00     0.275 HD
ATOM     15  H21 UNL     1      39.983   1.146  14.118  1.00  0.00     0.275 HD
ENDBRANCH  11  12
BRANCH  11  16
HETATM   16  C8  UNL     1      37.215   0.363  12.780  1.00  0.00     0.257 C 
HETATM   17  O4  UNL     1      36.640   0.689  11.718  1.00  0.00    -0.271 OA
HETATM   18  N3  UNL     1      36.979  -0.899  13.344  1.00  0.00    -0.296 N 
HETATM   19  C9  UNL     1      36.100  -1.814  12.735  1.00  0.00     0.220 C 
ATOM     20  H3  UNL     1      37.452  -1.158  14.209  1.00  0.00     0.171 HD
HETATM   21  C10 UNL     1      35.352  -1.563  11.479  1.00  0.00     0.117 C 
HETATM   22  O5  UNL     1      35.897  -2.966  13.268  1.00  0.00    -0.274 OA
ENDBRANCH  11  16
ENDBRANCH   4  11
BRANCH   1  23
HETATM   23  C3  UNL     1      38.176   5.431  13.819  1.00  0.00     0.207 C 
HETATM   24  C4  UNL     1      36.970   6.353  13.600  1.00  0.00     0.045 C 
BRANCH  23  25
HETATM   25  C2  UNL     1      38.896   5.397  12.525  1.00  0.00     0.283 C 
HETATM   26  O2  UNL     1      38.649   4.463  11.726  1.00  0.00    -0.263 OA
BRANCH  25  27
HETATM   27  O1  UNL     1      39.819   6.352  12.176  1.00  0.00    -0.325 OA
HETATM   28  C1  UNL     1      40.589   6.306  10.989  1.00  0.00     0.213 C 
ENDBRANCH  25  27
ENDBRANCH  23  25
ENDBRANCH   1  23
TORSDOF 6
ENDMDL
MODEL 4
REMARK VINA RESULT: -5.653395245      2.114      3.070
REMARK  6 active torsions:
REMARK  status: ('A' for Active; 'I' for Inactive)
REMARK    1  A    between atoms: O1_2  and  C2_3 
REMARK    2  A    between atoms: C2_3  and  C3_5 
REMARK    3  A    between atoms: C3_5  and  N1_7 
REMARK    4  A    between atoms: C6_10  and  C7_11 
REMARK    5  A    between atoms: C7_11  and  N2_12 
REMARK    6  A    between atoms: C7_11  and  C8_16 
REMARK       I    between atoms: C8_16  and  N3_18 
REMARK       I    between atoms: N3_18  and  C9_20 
REMARK       I    between atoms: N4_23  and  C11_24 
ROOT
HETATM    1  N1  UNL     1      38.794  -1.931  12.670  1.00  0.00    -0.240 N 
HETATM    2  C5  UNL     1      38.800  -3.305  12.347  1.00  0.00     0.267 C 
HETATM    3  O3  UNL     1      39.689  -4.145  12.117  1.00  0.00    -0.269 OA
HETATM    4  C6  UNL     1      37.331  -3.278  12.411  1.00  0.00     0.244 C 
HETATM    5  N4  UNL     1      37.480  -1.868  12.188  1.00  0.00    -0.243 N 
HETATM    6  C11 UNL     1      36.714  -0.766  11.698  1.00  0.00     0.204 C 
HETATM    7  N5  UNL     1      36.437  -0.691  10.443  1.00  0.00    -0.372 N 
ATOM      8  H51 UNL     1      35.891   0.096  10.094  1.00  0.00     0.158 HD
ATOM      9  H52 UNL     1      36.776  -1.431   9.827  1.00  0.00     0.158 HD
HETATM   10  N6  UNL     1      36.244   0.261  12.554  1.00  0.00    -0.062 NA
ENDROOT
BRANCH   4  11
HETATM   11  C7  UNL     1      36.691  -3.662  13.721  1.00  0.00     0.308 C 
BRANCH  11  12
HETATM   12  N2  UNL     1      35.562  -2.739  13.903  1.00  0.00    -0.064 N 
ATOM     13  H23 UNL     1      34.962  -2.980  14.691  1.00  0.00     0.275 HD
ATOM     14  H22 UNL     1      35.840  -1.816  14.237  1.00  0.00     0.275 HD
ATOM     15  H21 UNL     1      35.072  -2.718  13.008  1.00  0.00     0.275 HD
ENDBRANCH  11  12
BRANCH  11  16
HETATM   16  C8  UNL     1      36.082  -5.011  13.538  1.00  0.00     0.257 C 
HETATM   17  O4  UNL     1      36.828  -5.994  13.745  1.00  0.00    -0.271 OA
HETATM   18  N3  UNL     1      34.749  -5.213  13.155  1.00  0.00    -0.296 N 
HETATM   19  C9  UNL     1      34.227  -6.510  12.998  1.00  0.00     0.220 C 
ATOM     20  H3  UNL     1      34.147  -4.407  12.988  1.00  0.00     0.171 HD
HETATM   21  C10 UNL     1      34.992  -7.763  13.209  1.00  0.00     0.117 C 
HETATM   22  O5  UNL     1      33.001  -6.675  12.647  1.00  0.00    -0.274 OA
ENDBRANCH  11  16
ENDBRANCH   4  11
BRANCH   1  23
HETATM   23  C3  UNL     1      39.769  -1.024  13.247  1.00  0.00     0.207 C 
HETATM   24  C4  UNL     1      39.154  -0.357  14.485  1.00  0.00     0.045 C 
BRANCH  23  25
HETATM   25  C2  UNL     1      40.144   0.085  12.339  1.00  0.00     0.283 C 
HETATM   26  O2  UNL     1      39.506   1.161  12.412  1.00  0.00    -0.263 OA
BRANCH  25  27
HETATM   27  O1  UNL     1      41.164  -0.031  11.426  1.00  0.00    -0.325 OA
HETATM   28  C1  UNL     1      41.237  -1.059  10.455  1.00  0.00     0.213 C 
ENDBRANCH  25  27
ENDBRANCH  23  25
ENDBRANCH   1  23
TORSDOF 6
ENDMDL
MODEL 5
REMARK VINA RESULT: -5.611572318      1.776      6.684
REMARK  6 active torsions:
REMARK  status: ('A' for Active; 'I' for Inactive)
REMARK    1  A    between atoms: O1_2  and  C2_3 
REMARK    2  A    between atoms: C2_3  and  C3_5 
REMARK    3  A    between atoms: C3_5  and  N1_7 
REMARK    4  A    between atoms: C6_10  and  C7_11 
REMARK    5  A    between atoms: C7_11  and  N2_12 
REMARK    6  A    between atoms: C7_11  and  C8_16 
REMARK       I    between atoms: C8_16  and  N3_18 
REMARK       I    between atoms: N3_18  and  C9_20 
REMARK       I    between atoms: N4_23  and  C11_24 
ROOT
HETATM    1  N1  UNL     1      35.434  -5.111  12.399  1.00  0.00    -0.240 N 
HETATM    2  C5  UNL     1      35.605  -3.889  11.714  1.00  0.00     0.267 C 
HETATM    3  O3  UNL     1      34.962  -3.280  10.839  1.00  0.00    -0.269 OA
HETATM    4  C6  UNL     1      36.841  -3.685  12.485  1.00  0.00     0.244 C 
HETATM    5  N4  UNL     1      36.810  -5.109  12.658  1.00  0.00    -0.243 N 
HETATM    6  C11 UNL     1      37.707  -6.179  12.961  1.00  0.00     0.204 C 
HETATM    7  N5  UNL     1      38.579  -6.546  12.088  1.00  0.00    -0.372 N 
ATOM      8  H51 UNL     1      39.219  -7.310  12.304  1.00  0.00     0.158 HD
ATOM      9  H52 UNL     1      38.605  -6.056  11.194  1.00  0.00     0.158 HD
HETATM   10  N6  UNL     1      37.671  -6.860  14.204  1.00  0.00    -0.062 NA
ENDROOT
BRANCH   4  11
HETATM   11  C7  UNL     1      36.737  -2.876  13.751  1.00  0.00     0.308 C 
BRANCH  11  12
HETATM   12  N2  UNL     1      37.591  -3.556  14.735  1.00  0.00    -0.064 N 
ATOM     13  H23 UNL     1      37.250  -3.481  15.693  1.00  0.00     0.275 HD
ATOM     14  H22 UNL     1      37.555  -4.574  14.672  1.00  0.00     0.275 HD
ATOM     15  H21 UNL     1      38.527  -3.173  14.604  1.00  0.00     0.275 HD
ENDBRANCH  11  12
BRANCH  11  16
HETATM   16  C8  UNL     1      37.390  -1.561  13.493  1.00  0.00     0.257 C 
HETATM   17  O4  UNL     1      38.620  -1.495  13.714  1.00  0.00    -0.271 OA
HETATM   18  N3  UNL     1      36.703  -0.433  13.027  1.00  0.00    -0.296 N 
HETATM   19  C9  UNL     1      37.372   0.784  12.800  1.00  0.00     0.220 C 
ATOM     20  H3  UNL     1      35.700  -0.494  12.849  1.00  0.00     0.171 HD
HETATM   21  C10 UNL     1      38.822   1.007  13.018  1.00  0.00     0.117 C 
HETATM   22  O5  UNL     1      36.723   1.808  12.371  1.00  0.00    -0.274 OA
ENDBRANCH  11  16
ENDBRANCH   4  11
BRANCH   1  23
HETATM   23  C3  UNL     1      34.291  -5.963  12.678  1.00  0.00     0.207 C 
HETATM   24  C4  UNL     1      34.624  -6.861  13.877  1.00  0.00     0.045 C 
BRANCH  23  25
HETATM   25  C2  UNL     1      33.964  -6.883  11.565  1.00  0.00     0.283 C 
HETATM   26  O2  UNL     1      32.881  -7.513  11.607  1.00  0.00    -0.263 OA
BRANCH  25  27
HETATM   27  O1  UNL     1      34.806  -7.067  10.496  1.00  0.00    -0.325 OA
HETATM   28  C1  UNL     1      35.263  -8.335  10.062  1.00  0.00     0.213 C 
ENDBRANCH  25  27
ENDBRANCH  23  25
ENDBRANCH   1  23
TORSDOF 6
ENDMDL
