MODEL 1
REMARK VINA RESULT: -6.937909336      0.000      0.000
REMARK  4 active torsions:
REMARK  status: ('A' for Active; 'I' for Inactive)
REMARK    1  A    between atoms: C3_4  and  S1_5 
REMARK    2  A    between atoms: S1_5  and  O3_8 
REMARK    3  A    between atoms: O3_8  and  N2_9 
REMARK    4  A    between atoms: C6_17  and  C7_18 
REMARK       I    between atoms: C7_18  and  N6_20 
REMARK       I    between atoms: N6_20  and  C8_22 
ROOT
HETATM    1  C1  UNL     1      38.171  -1.096  14.903  1.00  0.00     0.157 C 
HETATM    2  N1  UNL     1      37.451  -1.702  13.806  1.00  0.00    -0.342 N 
HETATM    3  C2  UNL     1      37.219  -3.047  13.852  1.00  0.00     0.119 A 
HETATM    4  C3  UNL     1      36.537  -3.677  12.837  1.00  0.00     0.119 A 
HETATM    5  C5  UNL     1      36.119  -2.872  11.800  1.00  0.00     0.117 A 
HETATM    6  N5  UNL     1      36.363  -1.557  11.785  1.00  0.00    -0.346 N 
ATOM      7  H5  UNL     1      36.033  -1.004  10.994  1.00  0.00     0.167 HD
HETATM    8  C6  UNL     1      37.039  -0.928  12.791  1.00  0.00     0.176 A 
ENDROOT
BRANCH   4   9
HETATM    9  S1  UNL     1      36.209  -5.390  12.836  1.00  0.00     0.321 S 
HETATM   10  O1  UNL     1      35.578  -5.834  14.146  1.00  0.00    -0.191 OA
HETATM   11  O2  UNL     1      37.489  -6.191  12.694  1.00  0.00    -0.191 OA
BRANCH   9  12
HETATM   12  O3  UNL     1      35.217  -5.835  11.512  1.00  0.00    -0.145 OA
BRANCH  12  13
HETATM   13  N2  UNL     1      34.807  -7.131  11.378  1.00  0.00    -0.223 N 
HETATM   14  C4  UNL     1      33.594  -7.438  11.652  1.00  0.00     0.222 C 
HETATM   15  N3  UNL     1      32.686  -6.448  12.090  1.00  0.00    -0.065 NA
HETATM   16  N4  UNL     1      33.176  -8.779  11.511  1.00  0.00    -0.065 NA
ATOM     17  H2  UNL     1      35.460  -7.847  11.063  1.00  0.00     0.198 HD
ENDBRANCH  12  13
ENDBRANCH   9  12
ENDBRANCH   4   9
BRANCH   8  18
HETATM   18  C7  UNL     1      37.271   0.513  12.711  1.00  0.00     0.293 C 
HETATM   19  O4  UNL     1      38.262   1.049  12.169  1.00  0.00    -0.264 OA
HETATM   20  N6  UNL     1      36.303   1.378  13.290  1.00  0.00    -0.275 N 
HETATM   21  C8  UNL     1      36.431   2.792  13.267  1.00  0.00     0.335 C 
ATOM     22  H6  UNL     1      35.485   0.967  13.739  1.00  0.00     0.173 HD
HETATM   23  N7  UNL     1      37.565   3.360  12.646  1.00  0.00    -0.040 NA
HETATM   24  O5  UNL     1      35.527   3.477  13.804  1.00  0.00    -0.251 OA
ENDBRANCH   8  18
TORSDOF 4
ENDMDL
MODEL 2
REMARK VINA RESULT: -6.805963418      2.218      8.008
REMARK  4 active torsions:
REMARK  status: ('A' for Active; 'I' for Inactive)
REMARK    1  A    between atoms: C3_4  and  S1_5 
REMARK    2  A    between atoms: S1_5  and  O3_8 
REMARK    3  A    between atoms: O3_8  and  N2_9 
REMARK    4  A    between atoms: C6_17  and  C7_18 
REMARK       I    between atoms: C7_18  and  N6_20 
REMARK       I    between atoms: N6_20  and  C8_22 
ROOT
HETATM    1  C1  UNL     1      36.643  -5.405  13.938  1.00  0.00     0.157 C 
HETATM    2  N1  UNL     1      36.197  -4.300  13.122  1.00  0.00    -0.342 N 
HETATM    3  C2  UNL     1      36.830  -3.098  13.263  1.00  0.00     0.119 A 
HETATM    4  C3  UNL     1      36.449  -2.011  12.511  1.00  0.00     0.119 A 
HETATM    5  C5  UNL     1      35.409  -2.220  11.631  1.00  0.00     0.117 A 
HETATM    6  N5  UNL     1      34.809  -3.410  11.517  1.00  0.00    -0.346 N 
ATOM      7  H5  UNL     1      34.044  -3.514  10.852  1.00  0.00     0.167 HD
HETATM    8  C6  UNL     1      35.186  -4.491  12.262  1.00  0.00     0.176 A 
ENDROOT
BRANCH   4   9
HETATM    9  S1  UNL     1      37.216  -0.450  12.644  1.00  0.00     0.321 S 
HETATM   10  O1  UNL     1      38.124  -0.176  11.455  1.00  0.00    -0.191 OA
HETATM   11  O2  UNL     1      38.103  -0.380  13.872  1.00  0.00    -0.191 OA
BRANCH   9  12
HETATM   12  O3  UNL     1      36.060   0.803  12.816  1.00  0.00    -0.145 OA
BRANCH  12  13
HETATM   13  N2  UNL     1      36.211   1.734  13.803  1.00  0.00    -0.223 N 
HETATM   14  C4  UNL     1      36.705   2.879  13.516  1.00  0.00     0.222 C 
HETATM   15  N3  UNL     1      37.092   3.181  12.190  1.00  0.00    -0.065 NA
HETATM   16  N4  UNL     1      36.859   3.838  14.540  1.00  0.00    -0.065 NA
ATOM     17  H2  UNL     1      35.933   1.518  14.760  1.00  0.00     0.198 HD
ENDBRANCH  12  13
ENDBRANCH   9  12
ENDBRANCH   4   9
BRANCH   8  18
HETATM   18  C7  UNL     1      34.486  -5.763  12.087  1.00  0.00     0.293 C 
HETATM   19  O4  UNL     1      33.495  -6.131  12.752  1.00  0.00    -0.264 OA
HETATM   20  N6  UNL     1      34.964  -6.654  11.088  1.00  0.00    -0.275 N 
HETATM   21  C8  UNL     1      34.358  -7.914  10.836  1.00  0.00     0.335 C 
ATOM     22  H6  UNL     1      35.772  -6.379  10.531  1.00  0.00     0.173 HD
HETATM   23  N7  UNL     1      33.240  -8.295  11.608  1.00  0.00    -0.040 NA
HETATM   24  O5  UNL     1      34.848  -8.636   9.933  1.00  0.00    -0.251 OA
ENDBRANCH   8  18
TORSDOF 4
ENDMDL
MODEL 3
REMARK VINA RESULT: -6.756804579      1.118      1.910
REMARK  4 active torsions:
REMARK  status: ('A' for Active; 'I' for Inactive)
REMARK    1  A    between atoms: C3_4  and  S1_5 
REMARK    2  A    between atoms: S1_5  and  O3_8 
REMARK    3  A    between atoms: O3_8  and  N2_9 
REMARK    4  A    between atoms: C6_17  and  C7_18 
REMARK       I    between atoms: C7_18  and  N6_20 
REMARK       I    between atoms: N6_20  and  C8_22 
ROOT
HETATM    1  C1  UNL     1      35.928  -1.299  10.965  1.00  0.00     0.157 C 
HETATM    2  N1  UNL     1      36.627  -1.899  12.078  1.00  0.00    -0.342 N 
HETATM    3  C2  UNL     1      36.546  -3.253  12.235  1.00  0.00     0.119 A 
HETATM    4  C3  UNL     1      37.192  -3.879  13.276  1.00  0.00     0.119 A 
HETATM    5  C5  UNL     1      37.906  -3.059  14.124  1.00  0.00     0.117 A 
HETATM    6  N5  UNL     1      37.965  -1.736  13.942  1.00  0.00    -0.346 N 
ATOM      7  H5  UNL     1      38.506  -1.172  14.597  1.00  0.00     0.167 HD
HETATM    8  C6  UNL     1      37.325  -1.111  12.909  1.00  0.00     0.176 A 
ENDROOT
BRANCH   4   9
HETATM    9  S1  UNL     1      37.128  -5.603  13.533  1.00  0.00     0.321 S 
HETATM   10  O1  UNL     1      38.099  -6.037  14.620  1.00  0.00    -0.191 OA
HETATM   11  O2  UNL     1      37.536  -6.357  12.282  1.00  0.00    -0.191 OA
BRANCH   9  12
HETATM   12  O3  UNL     1      35.539  -6.121  13.908  1.00  0.00    -0.145 OA
BRANCH  12  13
HETATM   13  N2  UNL     1      34.512  -5.824  13.057  1.00  0.00    -0.223 N 
HETATM   14  C4  UNL     1      33.597  -6.695  12.850  1.00  0.00     0.222 C 
HETATM   15  N3  UNL     1      33.645  -7.953  13.493  1.00  0.00    -0.065 NA
HETATM   16  N4  UNL     1      32.538  -6.382  11.971  1.00  0.00    -0.065 NA
ATOM     17  H2  UNL     1      34.475  -4.917  12.592  1.00  0.00     0.198 HD
ENDBRANCH  12  13
ENDBRANCH   9  12
ENDBRANCH   4   9
BRANCH   8  18
HETATM   18  C7  UNL     1      37.432   0.340  12.770  1.00  0.00     0.293 C 
HETATM   19  O4  UNL     1      38.356   0.935  12.177  1.00  0.00    -0.264 OA
HETATM   20  N6  UNL     1      36.412   1.142  13.349  1.00  0.00    -0.275 N 
HETATM   21  C8  UNL     1      36.418   2.560  13.272  1.00  0.00     0.335 C 
ATOM     22  H6  UNL     1      35.645   0.682  13.840  1.00  0.00     0.173 HD
HETATM   23  N7  UNL     1      37.480   3.197  12.594  1.00  0.00    -0.040 NA
HETATM   24  O5  UNL     1      35.476   3.188  13.814  1.00  0.00    -0.251 OA
ENDBRANCH   8  18
TORSDOF 4
ENDMDL
MODEL 4
REMARK VINA RESULT: -6.565935961      2.184      7.585
REMARK  4 active torsions:
REMARK  status: ('A' for Active; 'I' for Inactive)
REMARK    1  A    between atoms: C3_4  and  S1_5 
REMARK    2  A    between atoms: S1_5  and  O3_8 
REMARK    3  A    between atoms: O3_8  and  N2_9 
REMARK    4  A    between atoms: C6_17  and  C7_18 
REMARK       I    between atoms: C7_18  and  N6_20 
REMARK       I    between atoms: N6_20  and  C8_22 
ROOT
HETATM    1  C1  UNL     1      38.156  -5.563  12.880  1.00  0.00     0.157 C 
HETATM    2  N1  UNL     1      37.550  -4.253  12.945  1.00  0.00    -0.342 N 
HETATM    3  C2  UNL     1      38.363  -3.162  12.831  1.00  0.00     0.119 A 
HETATM    4  C3  UNL     1      37.842  -1.889  12.885  1.00  0.00     0.119 A 
HETATM    5  C5  UNL     1      36.477  -1.803  13.057  1.00  0.00     0.117 A 
HETATM    6  N5  UNL     1      35.709  -2.893  13.166  1.00  0.00    -0.346 N 
ATOM      7  H5  UNL     1      34.704  -2.776  13.293  1.00  0.00     0.167 HD
HETATM    8  C6  UNL     1      36.223  -4.156  13.113  1.00  0.00     0.176 A 
ENDROOT
BRANCH   4   9
HETATM    9  S1  UNL     1      38.824  -0.455  12.747  1.00  0.00     0.321 S 
HETATM   10  O1  UNL     1      40.037  -0.698  11.862  1.00  0.00    -0.191 OA
HETATM   11  O2  UNL     1      39.369  -0.034  14.098  1.00  0.00    -0.191 OA
BRANCH   9  12
HETATM   12  O3  UNL     1      37.913   0.873  12.162  1.00  0.00    -0.145 OA
BRANCH  12  13
HETATM   13  N2  UNL     1      36.915   1.400  12.931  1.00  0.00    -0.223 N 
HETATM   14  C4  UNL     1      36.809   2.671  13.038  1.00  0.00     0.222 C 
HETATM   15  N3  UNL     1      37.715   3.525  12.368  1.00  0.00    -0.065 NA
HETATM   16  N4  UNL     1      35.775   3.210  13.833  1.00  0.00    -0.065 NA
ATOM     17  H2  UNL     1      36.260   0.786  13.415  1.00  0.00     0.198 HD
ENDBRANCH  12  13
ENDBRANCH   9  12
ENDBRANCH   4   9
BRANCH   8  18
HETATM   18  C7  UNL     1      35.325  -5.304  13.239  1.00  0.00     0.293 C 
HETATM   19  O4  UNL     1      35.455  -6.225  14.073  1.00  0.00    -0.264 OA
HETATM   20  N6  UNL     1      34.221  -5.387  12.348  1.00  0.00    -0.275 N 
HETATM   21  C8  UNL     1      33.289  -6.458  12.385  1.00  0.00     0.335 C 
ATOM     22  H6  UNL     1      34.092  -4.649  11.656  1.00  0.00     0.173 HD
HETATM   23  N7  UNL     1      33.469  -7.480  13.342  1.00  0.00    -0.040 NA
HETATM   24  O5  UNL     1      32.343  -6.449  11.559  1.00  0.00    -0.251 OA
ENDBRANCH   8  18
TORSDOF 4
ENDMDL
MODEL 5
REMARK VINA RESULT: -6.563280765      1.531      1.855
REMARK  4 active torsions:
REMARK  status: ('A' for Active; 'I' for Inactive)
REMARK    1  A    between atoms: C3_4  and  S1_5 
REMARK    2  A    between atoms: S1_5  and  O3_8 
REMARK    3  A    between atoms: O3_8  and  N2_9 
REMARK    4  A    between atoms: C6_17  and  C7_18 
REMARK       I    between atoms: C7_18  and  N6_20 
REMARK       I    between atoms: N6_20  and  C8_22 
ROOT
HETATM    1  C1  UNL     1      37.518  -2.390  14.597  1.00  0.00     0.157 C 
HETATM    2  N1  UNL     1      36.710  -2.781  13.464  1.00  0.00    -0.342 N 
HETATM    3  C2  UNL     1      36.212  -4.052  13.436  1.00  0.00     0.119 A 
HETATM    4  C3  UNL     1      35.436  -4.480  12.384  1.00  0.00     0.119 A 
HETATM    5  C5  UNL     1      35.205  -3.554  11.389  1.00  0.00     0.117 A 
HETATM    6  N5  UNL     1      35.708  -2.316  11.446  1.00  0.00    -0.346 N 
ATOM      7  H5  UNL     1      35.510  -1.668  10.684  1.00  0.00     0.167 HD
HETATM    8  C6  UNL     1      36.479  -1.889  12.489  1.00  0.00     0.176 A 
ENDROOT
BRANCH   4   9
HETATM    9  S1  UNL     1      34.771  -6.090  12.288  1.00  0.00     0.321 S 
HETATM   10  O1  UNL     1      33.366  -6.144  12.868  1.00  0.00    -0.191 OA
HETATM   11  O2  UNL     1      35.597  -7.070  13.097  1.00  0.00    -0.191 OA
BRANCH   9  12
HETATM   12  O3  UNL     1      34.777  -6.673  10.677  1.00  0.00    -0.145 OA
BRANCH  12  13
HETATM   13  N2  UNL     1      34.220  -7.887  10.394  1.00  0.00    -0.223 N 
HETATM   14  C4  UNL     1      34.976  -8.861  10.052  1.00  0.00     0.222 C 
HETATM   15  N3  UNL     1      36.376  -8.686   9.966  1.00  0.00    -0.065 NA
HETATM   16  N4  UNL     1      34.395 -10.114   9.762  1.00  0.00    -0.065 NA
ATOM     17  H2  UNL     1      33.210  -8.016  10.455  1.00  0.00     0.198 HD
ENDBRANCH  12  13
ENDBRANCH   9  12
ENDBRANCH   4   9
BRANCH   8  18
HETATM   18  C7  UNL     1      36.997  -0.521  12.488  1.00  0.00     0.293 C 
HETATM   19  O4  UNL     1      38.103  -0.176  12.022  1.00  0.00    -0.264 OA
HETATM   20  N6  UNL     1      36.188   0.498  13.059  1.00  0.00    -0.275 N 
HETATM   21  C8  UNL     1      36.595   1.858  13.110  1.00  0.00     0.335 C 
ATOM     22  H6  UNL     1      35.280   0.244  13.448  1.00  0.00     0.173 HD
HETATM   23  N7  UNL     1      37.852   2.209  12.573  1.00  0.00    -0.040 NA
HETATM   24  O5  UNL     1      35.815   2.690  13.633  1.00  0.00    -0.251 OA
ENDBRANCH   8  18
TORSDOF 4
ENDMDL
