MODEL 1
REMARK VINA RESULT: -6.883336860      0.000      0.000
REMARK  5 active torsions:
REMARK  status: ('A' for Active; 'I' for Inactive)
REMARK       I    between atoms: C1_2  and  N1_3 
REMARK    1  A    between atoms: C1_2  and  C10_14 
REMARK    2  A    between atoms: N1_3  and  C2_5 
REMARK    3  A    between atoms: C4_7  and  C5_8 
REMARK    4  A    between atoms: C5_8  and  O2_9 
REMARK    5  A    between atoms: O2_9  and  C6_10 
ROOT
HETATM    1  C2  UNL     1      14.815  16.620   2.245  1.00  0.00     0.091 A 
HETATM    2  C3  UNL     1      15.857  16.853   1.138  1.00  0.00     0.034 A 
HETATM    3  C4  UNL     1      15.568  17.897   2.129  1.00  0.00     0.034 A 
ENDROOT
BRANCH   1   4
HETATM    4  N1  UNL     1      13.482  16.493   1.741  1.00  0.00    -0.356 N 
HETATM    5  C1  UNL     1      12.426  16.085   2.590  1.00  0.00     0.222 C 
HETATM    6  O1  UNL     1      12.646  15.823   3.822  1.00  0.00    -0.273 OA
ATOM      7  H1  UNL     1      13.292  16.699   0.759  1.00  0.00     0.162 HD
BRANCH   5   8
HETATM    8  C10 UNL     1      11.024  15.935   2.122  1.00  0.00     0.078 A 
HETATM    9  C11 UNL     1      10.754  15.977   0.676  1.00  0.00     0.015 A 
HETATM   10  C12 UNL     1      10.694  14.685   1.375  1.00  0.00     0.015 A 
ENDBRANCH   5   8
ENDBRANCH   1   4
BRANCH   3  11
HETATM   11  C5  UNL     1      14.827  19.136   1.668  1.00  0.00     0.174 C 
BRANCH  11  12
HETATM   12  O2  UNL     1      13.905  19.481   2.664  1.00  0.00    -0.385 OA
BRANCH  12  13
HETATM   13  C6  UNL     1      14.100  20.800   2.996  1.00  0.00     0.121 C 
HETATM   14  C7  UNL     1      15.080  21.046   4.136  1.00  0.00     0.032 C 
HETATM   15  C8  UNL     1      15.579  22.251   3.344  1.00  0.00     0.005 C 
HETATM   16  C9  UNL     1      15.109  21.529   2.097  1.00  0.00     0.032 C 
ENDBRANCH  12  13
ENDBRANCH  11  12
ENDBRANCH   3  11
TORSDOF 5
ENDMDL
MODEL 2
REMARK VINA RESULT: -6.856725061      1.502      5.440
REMARK  5 active torsions:
REMARK  status: ('A' for Active; 'I' for Inactive)
REMARK       I    between atoms: C1_2  and  N1_3 
REMARK    1  A    between atoms: C1_2  and  C10_14 
REMARK    2  A    between atoms: N1_3  and  C2_5 
REMARK    3  A    between atoms: C4_7  and  C5_8 
REMARK    4  A    between atoms: C5_8  and  O2_9 
REMARK    5  A    between atoms: O2_9  and  C6_10 
ROOT
HETATM    1  C2  UNL     1      15.544  18.074   1.946  1.00  0.00     0.091 A 
HETATM    2  C3  UNL     1      15.341  16.568   2.181  1.00  0.00     0.034 A 
HETATM    3  C4  UNL     1      14.756  17.231   1.008  1.00  0.00     0.034 A 
ENDROOT
BRANCH   1   4
HETATM    4  N1  UNL     1      14.904  18.885   2.935  1.00  0.00    -0.356 N 
HETATM    5  C1  UNL     1      14.693  20.267   2.708  1.00  0.00     0.222 C 
HETATM    6  O1  UNL     1      15.071  20.812   1.616  1.00  0.00    -0.273 OA
ATOM      7  H1  UNL     1      14.597  18.464   3.813  1.00  0.00     0.162 HD
BRANCH   5   8
HETATM    8  C10 UNL     1      14.036  21.157   3.700  1.00  0.00     0.078 A 
HETATM    9  C11 UNL     1      13.249  22.300   3.211  1.00  0.00     0.015 A 
HETATM   10  C12 UNL     1      12.544  21.127   3.748  1.00  0.00     0.015 A 
ENDBRANCH   5   8
ENDBRANCH   1   4
BRANCH   3  11
HETATM   11  C5  UNL     1      13.252  17.410   0.962  1.00  0.00     0.174 C 
BRANCH  11  12
HETATM   12  O2  UNL     1      12.751  17.167   2.247  1.00  0.00    -0.385 OA
BRANCH  12  13
HETATM   13  C6  UNL     1      11.557  16.497   2.125  1.00  0.00     0.121 C 
HETATM   14  C7  UNL     1      11.097  16.242   0.696  1.00  0.00     0.032 C 
HETATM   15  C8  UNL     1      10.623  14.873   1.175  1.00  0.00     0.005 C 
HETATM   16  C9  UNL     1      11.678  14.972   2.258  1.00  0.00     0.032 C 
ENDBRANCH  12  13
ENDBRANCH  11  12
ENDBRANCH   3  11
TORSDOF 5
ENDMDL
MODEL 3
REMARK VINA RESULT: -6.564284343      2.029      5.210
REMARK  5 active torsions:
REMARK  status: ('A' for Active; 'I' for Inactive)
REMARK       I    between atoms: C1_2  and  N1_3 
REMARK    1  A    between atoms: C1_2  and  C10_14 
REMARK    2  A    between atoms: N1_3  and  C2_5 
REMARK    3  A    between atoms: C4_7  and  C5_8 
REMARK    4  A    between atoms: C5_8  and  O2_9 
REMARK    5  A    between atoms: O2_9  and  C6_10 
ROOT
HETATM    1  C2  UNL     1      14.832  18.856   2.228  1.00  0.00     0.091 A 
HETATM    2  C3  UNL     1      15.592  17.536   2.017  1.00  0.00     0.034 A 
HETATM    3  C4  UNL     1      14.683  18.052   0.986  1.00  0.00     0.034 A 
ENDROOT
BRANCH   1   4
HETATM    4  N1  UNL     1      13.867  18.784   3.281  1.00  0.00    -0.356 N 
HETATM    5  C1  UNL     1      13.138  19.933   3.671  1.00  0.00     0.222 C 
HETATM    6  O1  UNL     1      13.331  21.055   3.088  1.00  0.00    -0.273 OA
ATOM      7  H1  UNL     1      13.703  17.896   3.756  1.00  0.00     0.162 HD
BRANCH   5   8
HETATM    8  C10 UNL     1      12.126  19.918   4.759  1.00  0.00     0.078 A 
HETATM    9  C11 UNL     1      11.775  18.631   5.379  1.00  0.00     0.015 A 
HETATM   10  C12 UNL     1      12.614  19.577   6.128  1.00  0.00     0.015 A 
ENDBRANCH   5   8
ENDBRANCH   1   4
BRANCH   3  11
HETATM   11  C5  UNL     1      13.378  17.319   0.749  1.00  0.00     0.174 C 
BRANCH  11  12
HETATM   12  O2  UNL     1      13.237  16.357   1.756  1.00  0.00    -0.385 OA
BRANCH  12  13
HETATM   13  C6  UNL     1      11.896  16.153   1.974  1.00  0.00     0.121 C 
HETATM   14  C7  UNL     1      11.027  16.147   0.722  1.00  0.00     0.032 C 
HETATM   15  C8  UNL     1      10.243  15.008   1.366  1.00  0.00     0.005 C 
HETATM   16  C9  UNL     1      11.504  14.678   2.138  1.00  0.00     0.032 C 
ENDBRANCH  12  13
ENDBRANCH  11  12
ENDBRANCH   3  11
TORSDOF 5
ENDMDL
MODEL 4
REMARK VINA RESULT: -6.467148346      2.412      4.825
REMARK  5 active torsions:
REMARK  status: ('A' for Active; 'I' for Inactive)
REMARK       I    between atoms: C1_2  and  N1_3 
REMARK    1  A    between atoms: C1_2  and  C10_14 
REMARK    2  A    between atoms: N1_3  and  C2_5 
REMARK    3  A    between atoms: C4_7  and  C5_8 
REMARK    4  A    between atoms: C5_8  and  O2_9 
REMARK    5  A    between atoms: O2_9  and  C6_10 
ROOT
HETATM    1  C2  UNL     1      14.015  19.251   2.617  1.00  0.00     0.091 A 
HETATM    2  C3  UNL     1      15.446  18.754   2.350  1.00  0.00     0.034 A 
HETATM    3  C4  UNL     1      14.381  18.549   1.359  1.00  0.00     0.034 A 
ENDROOT
BRANCH   1   4
HETATM    4  N1  UNL     1      13.376  18.562   3.696  1.00  0.00    -0.356 N 
HETATM    5  C1  UNL     1      12.180  19.063   4.264  1.00  0.00     0.222 C 
HETATM    6  O1  UNL     1      11.652  20.140   3.823  1.00  0.00    -0.273 OA
ATOM      7  H1  UNL     1      13.787  17.701   4.059  1.00  0.00     0.162 HD
BRANCH   5   8
HETATM    8  C10 UNL     1      11.475  18.391   5.385  1.00  0.00     0.078 A 
HETATM    9  C11 UNL     1      10.027  18.602   5.537  1.00  0.00     0.015 A 
HETATM   10  C12 UNL     1      10.508  17.312   5.023  1.00  0.00     0.015 A 
ENDBRANCH   5   8
ENDBRANCH   1   4
BRANCH   3  11
HETATM   11  C5  UNL     1      13.869  17.140   1.139  1.00  0.00     0.174 C 
BRANCH  11  12
HETATM   12  O2  UNL     1      12.640  17.229   0.472  1.00  0.00    -0.385 OA
BRANCH  12  13
HETATM   13  C6  UNL     1      11.667  16.708   1.290  1.00  0.00     0.121 C 
HETATM   14  C7  UNL     1      10.703  15.739   0.617  1.00  0.00     0.032 C 
HETATM   15  C8  UNL     1      10.759  14.914   1.900  1.00  0.00     0.005 C 
HETATM   16  C9  UNL     1      12.132  15.512   2.134  1.00  0.00     0.032 C 
ENDBRANCH  12  13
ENDBRANCH  11  12
ENDBRANCH   3  11
TORSDOF 5
ENDMDL
MODEL 5
REMARK VINA RESULT: -6.459824835      2.493      4.538
REMARK  5 active torsions:
REMARK  status: ('A' for Active; 'I' for Inactive)
REMARK       I    between atoms: C1_2  and  N1_3 
REMARK    1  A    between atoms: C1_2  and  C10_14 
REMARK    2  A    between atoms: N1_3  and  C2_5 
REMARK    3  A    between atoms: C4_7  and  C5_8 
REMARK    4  A    between atoms: C5_8  and  O2_9 
REMARK    5  A    between atoms: O2_9  and  C6_10 
ROOT
HETATM    1  C2  UNL     1      11.495  14.910   2.449  1.00  0.00     0.091 A 
HETATM    2  C3  UNL     1      11.177  14.347   3.844  1.00  0.00     0.034 A 
HETATM    3  C4  UNL     1      10.206  15.190   3.134  1.00  0.00     0.034 A 
ENDROOT
BRANCH   1   4
HETATM    4  N1  UNL     1      12.565  15.860   2.459  1.00  0.00    -0.356 N 
HETATM    5  C1  UNL     1      12.701  16.805   1.414  1.00  0.00     0.222 C 
HETATM    6  O1  UNL     1      11.870  16.824   0.442  1.00  0.00    -0.273 OA
ATOM      7  H1  UNL     1      13.236  15.856   3.228  1.00  0.00     0.162 HD
BRANCH   5   8
HETATM    8  C10 UNL     1      13.792  17.812   1.372  1.00  0.00     0.078 A 
HETATM    9  C11 UNL     1      14.947  17.641   2.267  1.00  0.00     0.015 A 
HETATM   10  C12 UNL     1      15.108  17.359   0.832  1.00  0.00     0.015 A 
ENDBRANCH   5   8
ENDBRANCH   1   4
BRANCH   3  11
HETATM   11  C5  UNL     1       9.951  16.588   3.659  1.00  0.00     0.174 C 
BRANCH  11  12
HETATM   12  O2  UNL     1      10.603  16.709   4.892  1.00  0.00    -0.385 OA
BRANCH  12  13
HETATM   13  C6  UNL     1      10.931  18.030   5.079  1.00  0.00     0.121 C 
HETATM   14  C7  UNL     1      12.419  18.349   5.003  1.00  0.00     0.032 C 
HETATM   15  C8  UNL     1      12.029  19.627   4.268  1.00  0.00     0.005 C 
HETATM   16  C9  UNL     1      10.777  18.898   3.822  1.00  0.00     0.032 C 
ENDBRANCH  12  13
ENDBRANCH  11  12
ENDBRANCH   3  11
TORSDOF 5
ENDMDL
