MODEL 1
REMARK VINA RESULT: -6.339119199      0.000      0.000
REMARK  5 active torsions:
REMARK  status: ('A' for Active; 'I' for Inactive)
REMARK    1  A    between atoms: C3_3  and  O1_4 
REMARK    2  A    between atoms: O1_4  and  C4_5 
REMARK    3  A    between atoms: C4_5  and  C5_6 
REMARK    4  A    between atoms: C4_5  and  C9_10 
REMARK    5  A    between atoms: C5_6  and  C6_7 
ROOT
HETATM    1  C1  UNL     1       8.896  26.202   4.280  1.00  0.00     0.014 C 
HETATM    2  C2  UNL     1       9.950  25.882   4.790  1.00  0.00    -0.091 C 
HETATM    3  C3  UNL     1      11.218  25.476   5.403  1.00  0.00     0.260 C 
ENDROOT
BRANCH   3   4
HETATM    4  O1  UNL     1      11.105  24.141   5.748  1.00  0.00    -0.374 OA
BRANCH   4   5
HETATM    5  C4  UNL     1      12.403  23.536   5.843  1.00  0.00     0.127 C 
BRANCH   5   6
HETATM    6  C5  UNL     1      12.992  23.691   4.499  1.00  0.00     0.037 C 
BRANCH   6   7
HETATM    7  C6  UNL     1      14.431  24.010   4.376  1.00  0.00    -0.012 A 
HETATM    8  C7  UNL     1      15.284  22.742   4.105  1.00  0.00     0.005 A 
HETATM    9  C8  UNL     1      15.126  23.719   3.018  1.00  0.00     0.005 A 
ENDBRANCH   6   7
ENDBRANCH   5   6
BRANCH   5  10
HETATM   10  C9  UNL     1      12.076  22.155   6.302  1.00  0.00     0.018 C 
HETATM   11  C10 UNL     1      12.211  21.051   5.325  1.00  0.00     0.026 C 
HETATM   12  C11 UNL     1      12.434  19.767   6.149  1.00  0.00     0.114 C 
HETATM   13  N1  UNL     1      11.418  19.690   7.111  1.00  0.00    -0.421 N 
HETATM   14  C12 UNL     1      10.342  20.600   7.025  1.00  0.00     0.114 C 
ATOM     15  H1  UNL     1      11.455  18.994   7.856  1.00  0.00     0.153 HD
HETATM   16  C13 UNL     1      10.719  22.046   6.956  1.00  0.00     0.026 C 
ENDBRANCH   5  10
ENDBRANCH   4   5
ENDBRANCH   3   4
TORSDOF 5
ENDMDL
MODEL 2
REMARK VINA RESULT: -6.314100989      3.999      6.395
REMARK  5 active torsions:
REMARK  status: ('A' for Active; 'I' for Inactive)
REMARK    1  A    between atoms: C3_3  and  O1_4 
REMARK    2  A    between atoms: O1_4  and  C4_5 
REMARK    3  A    between atoms: C4_5  and  C5_6 
REMARK    4  A    between atoms: C4_5  and  C9_10 
REMARK    5  A    between atoms: C5_6  and  C6_7 
ROOT
HETATM    1  C1  UNL     1      11.739  16.488   4.254  1.00  0.00     0.014 C 
HETATM    2  C2  UNL     1      11.859  17.687   4.107  1.00  0.00    -0.091 C 
HETATM    3  C3  UNL     1      12.024  19.131   3.924  1.00  0.00     0.260 C 
ENDROOT
BRANCH   3   4
HETATM    4  O1  UNL     1      13.381  19.401   3.943  1.00  0.00    -0.374 OA
BRANCH   4   5
HETATM    5  C4  UNL     1      13.787  20.017   2.712  1.00  0.00     0.127 C 
BRANCH   5   6
HETATM    6  C5  UNL     1      14.885  19.170   2.208  1.00  0.00     0.037 C 
BRANCH   6   7
HETATM    7  C6  UNL     1      14.559  17.909   1.506  1.00  0.00    -0.012 A 
HETATM    8  C7  UNL     1      15.827  17.063   1.218  1.00  0.00     0.005 A 
HETATM    9  C8  UNL     1      14.879  16.573   2.229  1.00  0.00     0.005 A 
ENDBRANCH   6   7
ENDBRANCH   5   6
BRANCH   5  10
HETATM   10  C9  UNL     1      14.123  21.404   3.146  1.00  0.00     0.018 C 
HETATM   11  C10 UNL     1      13.039  22.411   3.143  1.00  0.00     0.026 C 
HETATM   12  C11 UNL     1      13.446  23.492   4.165  1.00  0.00     0.114 C 
HETATM   13  N1  UNL     1      14.749  23.907   3.857  1.00  0.00    -0.421 N 
HETATM   14  C12 UNL     1      15.325  23.465   2.647  1.00  0.00     0.114 C 
ATOM     15  H1  UNL     1      15.267  24.514   4.493  1.00  0.00     0.153 HD
HETATM   16  C13 UNL     1      15.314  21.987   2.424  1.00  0.00     0.026 C 
ENDBRANCH   5  10
ENDBRANCH   4   5
ENDBRANCH   3   4
TORSDOF 5
ENDMDL
MODEL 3
REMARK VINA RESULT: -6.310766317      5.455      7.661
REMARK  5 active torsions:
REMARK  status: ('A' for Active; 'I' for Inactive)
REMARK    1  A    between atoms: C3_3  and  O1_4 
REMARK    2  A    between atoms: O1_4  and  C4_5 
REMARK    3  A    between atoms: C4_5  and  C5_6 
REMARK    4  A    between atoms: C4_5  and  C9_10 
REMARK    5  A    between atoms: C5_6  and  C6_7 
ROOT
HETATM    1  C1  UNL     1       8.864  17.129   6.141  1.00  0.00     0.014 C 
HETATM    2  C2  UNL     1       9.850  17.706   5.728  1.00  0.00    -0.091 C 
HETATM    3  C3  UNL     1      11.045  18.383   5.221  1.00  0.00     0.260 C 
ENDROOT
BRANCH   3   4
HETATM    4  O1  UNL     1      11.948  17.406   4.841  1.00  0.00    -0.374 OA
BRANCH   4   5
HETATM    5  C4  UNL     1      11.948  17.250   3.415  1.00  0.00     0.127 C 
BRANCH   5   6
HETATM    6  C5  UNL     1      11.463  15.876   3.183  1.00  0.00     0.037 C 
BRANCH   6   7
HETATM    7  C6  UNL     1      10.449  15.638   2.133  1.00  0.00    -0.012 A 
HETATM    8  C7  UNL     1      10.957  16.063   0.731  1.00  0.00     0.005 A 
HETATM    9  C8  UNL     1      10.795  14.628   1.006  1.00  0.00     0.005 A 
ENDBRANCH   6   7
ENDBRANCH   5   6
BRANCH   5  10
HETATM   10  C9  UNL     1      13.366  17.554   3.062  1.00  0.00     0.018 C 
HETATM   11  C10 UNL     1      13.615  18.592   2.037  1.00  0.00     0.026 C 
HETATM   12  C11 UNL     1      15.033  19.137   2.306  1.00  0.00     0.114 C 
HETATM   13  N1  UNL     1      15.907  18.044   2.382  1.00  0.00    -0.421 N 
HETATM   14  C12 UNL     1      15.423  16.770   2.014  1.00  0.00     0.114 C 
ATOM     15  H1  UNL     1      16.871  18.166   2.695  1.00  0.00     0.153 HD
HETATM   16  C13 UNL     1      14.170  16.328   2.702  1.00  0.00     0.026 C 
ENDBRANCH   5  10
ENDBRANCH   4   5
ENDBRANCH   3   4
TORSDOF 5
ENDMDL
MODEL 4
REMARK VINA RESULT: -6.309986013      5.369      6.900
REMARK  5 active torsions:
REMARK  status: ('A' for Active; 'I' for Inactive)
REMARK    1  A    between atoms: C3_3  and  O1_4 
REMARK    2  A    between atoms: O1_4  and  C4_5 
REMARK    3  A    between atoms: C4_5  and  C5_6 
REMARK    4  A    between atoms: C4_5  and  C9_10 
REMARK    5  A    between atoms: C5_6  and  C6_7 
ROOT
HETATM    1  C1  UNL     1       9.779  18.334   6.135  1.00  0.00     0.014 C 
HETATM    2  C2  UNL     1      10.876  18.538   5.655  1.00  0.00    -0.091 C 
HETATM    3  C3  UNL     1      12.190  18.788   5.058  1.00  0.00     0.260 C 
ENDROOT
BRANCH   3   4
HETATM    4  O1  UNL     1      12.032  18.776   3.684  1.00  0.00    -0.374 OA
BRANCH   4   5
HETATM    5  C4  UNL     1      12.769  17.689   3.104  1.00  0.00     0.127 C 
BRANCH   5   6
HETATM    6  C5  UNL     1      13.660  18.321   2.112  1.00  0.00     0.037 C 
BRANCH   6   7
HETATM    7  C6  UNL     1      15.088  17.935   2.078  1.00  0.00    -0.012 A 
HETATM    8  C7  UNL     1      15.276  16.403   2.231  1.00  0.00     0.005 A 
HETATM    9  C8  UNL     1      15.562  17.011   0.923  1.00  0.00     0.005 A 
ENDBRANCH   6   7
ENDBRANCH   5   6
BRANCH   5  10
HETATM   10  C9  UNL     1      11.680  16.805   2.594  1.00  0.00     0.018 C 
HETATM   11  C10 UNL     1      11.547  15.458   3.193  1.00  0.00     0.026 C 
HETATM   12  C11 UNL     1      10.080  15.032   2.984  1.00  0.00     0.114 C 
HETATM   13  N1  UNL     1       9.773  15.196   1.627  1.00  0.00    -0.421 N 
HETATM   14  C12 UNL     1      10.825  15.485   0.731  1.00  0.00     0.114 C 
ATOM     15  H1  UNL     1       8.813  15.108   1.294  1.00  0.00     0.153 HD
HETATM   16  C13 UNL     1      11.681  16.658   1.091  1.00  0.00     0.026 C 
ENDBRANCH   5  10
ENDBRANCH   4   5
ENDBRANCH   3   4
TORSDOF 5
ENDMDL
MODEL 5
REMARK VINA RESULT: -6.306220398      3.467      5.005
REMARK  5 active torsions:
REMARK  status: ('A' for Active; 'I' for Inactive)
REMARK    1  A    between atoms: C3_3  and  O1_4 
REMARK    2  A    between atoms: O1_4  and  C4_5 
REMARK    3  A    between atoms: C4_5  and  C5_6 
REMARK    4  A    between atoms: C4_5  and  C9_10 
REMARK    5  A    between atoms: C5_6  and  C6_7 
ROOT
HETATM    1  C1  UNL     1      14.761  23.891   4.384  1.00  0.00     0.014 C 
HETATM    2  C2  UNL     1      14.975  23.047   3.537  1.00  0.00    -0.091 C 
HETATM    3  C3  UNL     1      15.211  22.026   2.515  1.00  0.00     0.260 C 
ENDROOT
BRANCH   3   4
HETATM    4  O1  UNL     1      14.068  21.252   2.427  1.00  0.00    -0.374 OA
BRANCH   4   5
HETATM    5  C4  UNL     1      14.251  20.007   3.118  1.00  0.00     0.127 C 
BRANCH   5   6
HETATM    6  C5  UNL     1      14.398  18.999   2.051  1.00  0.00     0.037 C 
BRANCH   6   7
HETATM    7  C6  UNL     1      15.516  18.033   2.121  1.00  0.00    -0.012 A 
HETATM    8  C7  UNL     1      15.011  16.574   2.278  1.00  0.00     0.005 A 
HETATM    9  C8  UNL     1      15.624  16.964   1.000  1.00  0.00     0.005 A 
ENDBRANCH   6   7
ENDBRANCH   5   6
BRANCH   5  10
HETATM   10  C9  UNL     1      13.032  19.937   3.974  1.00  0.00     0.018 C 
HETATM   11  C10 UNL     1      13.162  20.332   5.395  1.00  0.00     0.026 C 
HETATM   12  C11 UNL     1      11.756  20.766   5.857  1.00  0.00     0.114 C 
HETATM   13  N1  UNL     1      10.859  19.742   5.525  1.00  0.00    -0.421 N 
HETATM   14  C12 UNL     1      11.382  18.513   5.068  1.00  0.00     0.114 C 
ATOM     15  H1  UNL     1       9.852  19.881   5.611  1.00  0.00     0.153 HD
HETATM   16  C13 UNL     1      12.333  18.600   3.917  1.00  0.00     0.026 C 
ENDBRANCH   5  10
ENDBRANCH   4   5
ENDBRANCH   3   4
TORSDOF 5
ENDMDL
