MODEL 1
REMARK VINA RESULT: -9.532849246      0.000      0.000
REMARK  14 active torsions:
REMARK  status: ('A' for Active; 'I' for Inactive)
REMARK       I    between atoms: C2_2  and  N1_4 
REMARK    1  A    between atoms: N1_4  and  C3_6 
REMARK    2  A    between atoms: C5_11  and  S1_12 
REMARK    3  A    between atoms: S1_12  and  C6_13 
REMARK    4  A    between atoms: C6_13  and  C7_14 
REMARK       I    between atoms: C7_14  and  N4_16 
REMARK    5  A    between atoms: N4_16  and  C8_18 
REMARK    6  A    between atoms: C8_18  and  C10_20 
REMARK    7  A    between atoms: C10_20  and  O4_22 
REMARK    8  A    between atoms: O4_22  and  C11_23 
REMARK    9  A    between atoms: C11_23  and  C12_27 
REMARK   10  A    between atoms: C15_31  and  C16_32 
REMARK   11  A    between atoms: C17_35  and  N6_36 
REMARK   12  A    between atoms: N6_36  and  S2_38 
REMARK   13  A    between atoms: S2_38  and  C18_39 
REMARK   14  A    between atoms: C20_42  and  O9_43 
REMARK       I    between atoms: N7_47  and  C23_49 
REMARK       I    between atoms: C23_49  and  N8_50 
REMARK       I    between atoms: C23_49  and  N9_54 
ROOT
HETATM    1  C3  UNL     1     -36.574  23.354  12.575  1.00  0.00     0.105 A 
HETATM    2  C4  UNL     1     -37.324  23.346  11.399  1.00  0.00     0.146 A 
HETATM    3  N2  UNL     1     -38.475  24.201  11.331  1.00  0.00    -0.080 NA
HETATM    4  N3  UNL     1     -37.031  22.595  10.332  1.00  0.00    -0.336 N 
ATOM      5  H3  UNL     1     -37.618  22.636   9.499  1.00  0.00     0.168 HD
HETATM    6  C5  UNL     1     -35.960  21.787  10.364  1.00  0.00     0.101 A 
HETATM    7  C17 UNL     1     -35.200  21.763  11.498  1.00  0.00     0.101 A 
HETATM    8  C22 UNL     1     -35.471  22.540  12.645  1.00  0.00     0.091 A 
HETATM    9  N7  UNL     1     -34.708  22.427  13.637  1.00  0.00    -0.337 N 
ATOM     10  H7  UNL     1     -33.963  21.760  13.439  1.00  0.00     0.163 HD
HETATM   11  C23 UNL     1     -34.574  22.938  14.920  1.00  0.00     0.480 C 
HETATM   12  N8  UNL     1     -33.568  24.028  14.967  1.00  0.00    -0.033 N 
ATOM     13  H81 UNL     1     -33.470  24.403  15.910  1.00  0.00     0.278 HD
ATOM     14  H82 UNL     1     -33.783  24.762  14.293  1.00  0.00     0.278 HD
ATOM     15  H83 UNL     1     -32.671  23.724  14.590  1.00  0.00     0.278 HD
HETATM   16  N9  UNL     1     -34.103  21.883  15.870  1.00  0.00    -0.033 N 
ATOM     17  H91 UNL     1     -34.004  22.259  16.814  1.00  0.00     0.278 HD
ATOM     18  H92 UNL     1     -33.240  21.445  15.548  1.00  0.00     0.278 HD
ATOM     19  H93 UNL     1     -34.710  21.063  15.853  1.00  0.00     0.278 HD
ENDROOT
BRANCH   6  20
HETATM   20  S1  UNL     1     -35.534  20.734   8.979  1.00  0.00    -0.101 SA
BRANCH  20  21
HETATM   21  C6  UNL     1     -36.560  19.275   8.873  1.00  0.00     0.183 C 
BRANCH  21  22
HETATM   22  C7  UNL     1     -37.755  19.418   8.018  1.00  0.00     0.228 C 
HETATM   23  O2  UNL     1     -38.361  18.415   7.590  1.00  0.00    -0.273 OA
HETATM   24  N4  UNL     1     -38.200  20.749   7.696  1.00  0.00    -0.347 N 
ATOM     25  H4  UNL     1     -37.691  21.554   8.063  1.00  0.00     0.163 HD
BRANCH  24  26
HETATM   26  C8  UNL     1     -39.361  20.956   6.857  1.00  0.00     0.180 C 
HETATM   27  C9  UNL     1     -39.291  22.331   6.217  1.00  0.00     0.043 C 
BRANCH  26  28
HETATM   28  C10 UNL     1     -40.580  20.882   7.748  1.00  0.00     0.287 C 
HETATM   29  O3  UNL     1     -40.504  21.391   8.877  1.00  0.00    -0.262 OA
BRANCH  28  30
HETATM   30  O4  UNL     1     -41.715  20.283   7.328  1.00  0.00    -0.259 OA
BRANCH  30  31
HETATM   31  C11 UNL     1     -41.831  19.352   6.269  1.00  0.00     0.158 C 
HETATM   32  N5  UNL     1     -41.133  18.348   6.296  1.00  0.00    -0.379 N 
ATOM     33  H52 UNL     1     -40.462  18.115   7.028  1.00  0.00     0.158 HD
ATOM     34  H51 UNL     1     -41.217  17.677   5.531  1.00  0.00     0.158 HD
BRANCH  31  35
HETATM   35  C12 UNL     1     -42.800  19.689   5.212  1.00  0.00     0.057 A 
HETATM   36  C13 UNL     1     -42.476  20.315   4.018  1.00  0.00     0.043 A 
HETATM   37  C14 UNL     1     -43.624  20.437   3.291  1.00  0.00     0.144 A 
HETATM   38  O5  UNL     1     -44.588  19.923   3.985  1.00  0.00    -0.315 OA
HETATM   39  C15 UNL     1     -44.133  19.450   5.173  1.00  0.00     0.165 A 
BRANCH  39  40
HETATM   40  C16 UNL     1     -45.008  18.843   6.112  1.00  0.00     0.235 C 
HETATM   41  O6  UNL     1     -46.231  19.258   6.106  1.00  0.00    -0.642 OA
HETATM   42  O7  UNL     1     -44.734  17.870   7.032  1.00  0.00    -0.642 OA
ENDBRANCH  39  40
ENDBRANCH  31  35
ENDBRANCH  30  31
ENDBRANCH  28  30
ENDBRANCH  26  28
ENDBRANCH  24  26
ENDBRANCH  21  22
ENDBRANCH  20  21
ENDBRANCH   6  20
BRANCH   7  43
HETATM   43  N6  UNL     1     -34.058  20.899  11.485  1.00  0.00    -0.322 N 
ATOM     44  H6  UNL     1     -34.171  19.886  11.529  1.00  0.00     0.174 HD
BRANCH  43  45
HETATM   45  S2  UNL     1     -32.472  21.613  11.391  1.00  0.00    -0.012 SA
BRANCH  45  46
HETATM   46  C18 UNL     1     -31.997  22.048   9.732  1.00  0.00     0.048 A 
HETATM   47  C19 UNL     1     -30.922  21.600   8.986  1.00  0.00     0.165 A 
HETATM   48  O8  UNL     1     -30.939  22.173   7.816  1.00  0.00    -0.299 OA
HETATM   49  C20 UNL     1     -31.959  22.997   7.688  1.00  0.00     0.183 A 
HETATM   50  C21 UNL     1     -32.648  22.944   8.877  1.00  0.00     0.086 A 
BRANCH  49  51
HETATM   51  O9  UNL     1     -32.246  23.752   6.560  1.00  0.00    -0.341 OA
ATOM     52  H9  UNL     1     -32.915  23.549   5.916  1.00  0.00     0.220 HD
ENDBRANCH  49  51
ENDBRANCH  45  46
ENDBRANCH  43  45
ENDBRANCH   7  43
BRANCH   1  53
HETATM   53  N1  UNL     1     -37.027  24.211  13.609  1.00  0.00    -0.323 N 
HETATM   54  C2  UNL     1     -37.962  23.763  14.594  1.00  0.00     0.218 C 
HETATM   55  C1  UNL     1     -38.466  24.619  15.693  1.00  0.00     0.117 C 
HETATM   56  O1  UNL     1     -38.376  22.569  14.515  1.00  0.00    -0.274 OA
ATOM     57  H1  UNL     1     -36.679  25.169  13.652  1.00  0.00     0.169 HD
ENDBRANCH   1  53
TORSDOF 14
ENDMDL
MODEL 2
REMARK VINA RESULT: -9.325204324      2.212      2.736
REMARK  14 active torsions:
REMARK  status: ('A' for Active; 'I' for Inactive)
REMARK       I    between atoms: C2_2  and  N1_4 
REMARK    1  A    between atoms: N1_4  and  C3_6 
REMARK    2  A    between atoms: C5_11  and  S1_12 
REMARK    3  A    between atoms: S1_12  and  C6_13 
REMARK    4  A    between atoms: C6_13  and  C7_14 
REMARK       I    between atoms: C7_14  and  N4_16 
REMARK    5  A    between atoms: N4_16  and  C8_18 
REMARK    6  A    between atoms: C8_18  and  C10_20 
REMARK    7  A    between atoms: C10_20  and  O4_22 
REMARK    8  A    between atoms: O4_22  and  C11_23 
REMARK    9  A    between atoms: C11_23  and  C12_27 
REMARK   10  A    between atoms: C15_31  and  C16_32 
REMARK   11  A    between atoms: C17_35  and  N6_36 
REMARK   12  A    between atoms: N6_36  and  S2_38 
REMARK   13  A    between atoms: S2_38  and  C18_39 
REMARK   14  A    between atoms: C20_42  and  O9_43 
REMARK       I    between atoms: N7_47  and  C23_49 
REMARK       I    between atoms: C23_49  and  N8_50 
REMARK       I    between atoms: C23_49  and  N9_54 
ROOT
HETATM    1  C3  UNL     1     -36.997  22.904  12.350  1.00  0.00     0.105 A 
HETATM    2  C4  UNL     1     -37.904  22.904  11.290  1.00  0.00     0.146 A 
HETATM    3  N2  UNL     1     -39.297  23.055  11.598  1.00  0.00    -0.080 NA
HETATM    4  N3  UNL     1     -37.551  22.776  10.007  1.00  0.00    -0.336 N 
ATOM      5  H3  UNL     1     -38.261  22.786   9.276  1.00  0.00     0.168 HD
HETATM    6  C5  UNL     1     -36.255  22.635   9.686  1.00  0.00     0.101 A 
HETATM    7  C17 UNL     1     -35.335  22.629  10.695  1.00  0.00     0.101 A 
HETATM    8  C22 UNL     1     -35.663  22.762  12.062  1.00  0.00     0.091 A 
HETATM    9  N7  UNL     1     -34.733  22.730  12.906  1.00  0.00    -0.337 N 
ATOM     10  H7  UNL     1     -33.833  22.616  12.440  1.00  0.00     0.163 HD
HETATM   11  C23 UNL     1     -34.561  22.803  14.281  1.00  0.00     0.480 C 
HETATM   12  N8  UNL     1     -34.155  24.166  14.704  1.00  0.00    -0.033 N 
ATOM     13  H81 UNL     1     -34.029  24.219  15.715  1.00  0.00     0.278 HD
ATOM     14  H82 UNL     1     -34.812  24.871  14.371  1.00  0.00     0.278 HD
ATOM     15  H83 UNL     1     -33.322  24.479  14.206  1.00  0.00     0.278 HD
HETATM   16  N9  UNL     1     -33.479  21.876  14.736  1.00  0.00    -0.033 N 
ATOM     17  H91 UNL     1     -33.353  21.930  15.747  1.00  0.00     0.278 HD
ATOM     18  H92 UNL     1     -32.605  22.046  14.238  1.00  0.00     0.278 HD
ATOM     19  H93 UNL     1     -33.649  20.918  14.428  1.00  0.00     0.278 HD
ENDROOT
BRANCH   6  20
HETATM   20  S1  UNL     1     -35.722  22.428   7.989  1.00  0.00    -0.101 SA
BRANCH  20  21
HETATM   21  C6  UNL     1     -36.035  20.787   7.357  1.00  0.00     0.183 C 
BRANCH  21  22
HETATM   22  C7  UNL     1     -37.410  20.559   6.873  1.00  0.00     0.228 C 
HETATM   23  O2  UNL     1     -37.806  19.413   6.580  1.00  0.00    -0.273 OA
HETATM   24  N4  UNL     1     -38.280  21.700   6.752  1.00  0.00    -0.347 N 
ATOM     25  H4  UNL     1     -37.936  22.627   7.003  1.00  0.00     0.163 HD
BRANCH  24  26
HETATM   26  C8  UNL     1     -39.640  21.544   6.277  1.00  0.00     0.180 C 
HETATM   27  C9  UNL     1     -40.158  22.876   5.764  1.00  0.00     0.043 C 
BRANCH  26  28
HETATM   28  C10 UNL     1     -40.480  21.101   7.453  1.00  0.00     0.287 C 
HETATM   29  O3  UNL     1     -40.197  21.557   8.572  1.00  0.00    -0.262 OA
BRANCH  28  30
HETATM   30  O4  UNL     1     -41.506  20.237   7.291  1.00  0.00    -0.259 OA
BRANCH  30  31
HETATM   31  C11 UNL     1     -41.659  19.304   6.239  1.00  0.00     0.158 C 
HETATM   32  N5  UNL     1     -40.953  18.306   6.237  1.00  0.00    -0.379 N 
ATOM     33  H52 UNL     1     -40.249  18.080   6.939  1.00  0.00     0.158 HD
ATOM     34  H51 UNL     1     -41.064  17.633   5.478  1.00  0.00     0.158 HD
BRANCH  31  35
HETATM   35  C12 UNL     1     -42.676  19.631   5.224  1.00  0.00     0.057 A 
HETATM   36  C13 UNL     1     -42.409  20.257   4.017  1.00  0.00     0.043 A 
HETATM   37  C14 UNL     1     -43.588  20.369   3.340  1.00  0.00     0.144 A 
HETATM   38  O5  UNL     1     -44.517  19.848   4.075  1.00  0.00    -0.315 OA
HETATM   39  C15 UNL     1     -44.007  19.381   5.243  1.00  0.00     0.165 A 
BRANCH  39  40
HETATM   40  C16 UNL     1     -44.836  18.768   6.219  1.00  0.00     0.235 C 
HETATM   41  O6  UNL     1     -46.047  19.209   6.301  1.00  0.00    -0.642 OA
HETATM   42  O7  UNL     1     -44.527  17.765   7.096  1.00  0.00    -0.642 OA
ENDBRANCH  39  40
ENDBRANCH  31  35
ENDBRANCH  30  31
ENDBRANCH  28  30
ENDBRANCH  26  28
ENDBRANCH  24  26
ENDBRANCH  21  22
ENDBRANCH  20  21
ENDBRANCH   6  20
BRANCH   7  43
HETATM   43  N6  UNL     1     -33.963  22.490  10.309  1.00  0.00    -0.322 N 
ATOM     44  H6  UNL     1     -33.377  23.313  10.164  1.00  0.00     0.174 HD
BRANCH  43  45
HETATM   45  S2  UNL     1     -33.315  20.887  10.094  1.00  0.00    -0.012 SA
BRANCH  45  46
HETATM   46  C18 UNL     1     -34.267  19.631  10.921  1.00  0.00     0.048 A 
HETATM   47  C19 UNL     1     -35.278  18.831  10.419  1.00  0.00     0.165 A 
HETATM   48  O8  UNL     1     -35.712  18.043  11.361  1.00  0.00    -0.299 OA
HETATM   49  C20 UNL     1     -35.073  18.236  12.496  1.00  0.00     0.183 A 
HETATM   50  C21 UNL     1     -34.154  19.230  12.257  1.00  0.00     0.086 A 
BRANCH  49  51
HETATM   51  O9  UNL     1     -35.310  17.550  13.680  1.00  0.00    -0.341 OA
ATOM     52  H9  UNL     1     -34.654  17.092  14.191  1.00  0.00     0.220 HD
ENDBRANCH  49  51
ENDBRANCH  45  46
ENDBRANCH  43  45
ENDBRANCH   7  43
BRANCH   1  53
HETATM   53  N1  UNL     1     -37.544  23.050  13.650  1.00  0.00    -0.323 N 
HETATM   54  C2  UNL     1     -37.613  24.326  14.292  1.00  0.00     0.218 C 
HETATM   55  C1  UNL     1     -38.174  24.531  15.648  1.00  0.00     0.117 C 
HETATM   56  O1  UNL     1     -37.166  25.330  13.661  1.00  0.00    -0.274 OA
ATOM     57  H1  UNL     1     -37.897  22.227  14.139  1.00  0.00     0.169 HD
ENDBRANCH   1  53
TORSDOF 14
ENDMDL
MODEL 3
REMARK VINA RESULT: -9.233505971      2.311      3.338
REMARK  14 active torsions:
REMARK  status: ('A' for Active; 'I' for Inactive)
REMARK       I    between atoms: C2_2  and  N1_4 
REMARK    1  A    between atoms: N1_4  and  C3_6 
REMARK    2  A    between atoms: C5_11  and  S1_12 
REMARK    3  A    between atoms: S1_12  and  C6_13 
REMARK    4  A    between atoms: C6_13  and  C7_14 
REMARK       I    between atoms: C7_14  and  N4_16 
REMARK    5  A    between atoms: N4_16  and  C8_18 
REMARK    6  A    between atoms: C8_18  and  C10_20 
REMARK    7  A    between atoms: C10_20  and  O4_22 
REMARK    8  A    between atoms: O4_22  and  C11_23 
REMARK    9  A    between atoms: C11_23  and  C12_27 
REMARK   10  A    between atoms: C15_31  and  C16_32 
REMARK   11  A    between atoms: C17_35  and  N6_36 
REMARK   12  A    between atoms: N6_36  and  S2_38 
REMARK   13  A    between atoms: S2_38  and  C18_39 
REMARK   14  A    between atoms: C20_42  and  O9_43 
REMARK       I    between atoms: N7_47  and  C23_49 
REMARK       I    between atoms: C23_49  and  N8_50 
REMARK       I    between atoms: C23_49  and  N9_54 
ROOT
HETATM    1  C3  UNL     1     -36.705  23.194  12.504  1.00  0.00     0.105 A 
HETATM    2  C4  UNL     1     -37.495  23.069  11.361  1.00  0.00     0.146 A 
HETATM    3  N2  UNL     1     -38.714  23.822  11.303  1.00  0.00    -0.080 NA
HETATM    4  N3  UNL     1     -37.180  22.294  10.318  1.00  0.00    -0.336 N 
ATOM      5  H3  UNL     1     -37.799  22.247   9.509  1.00  0.00     0.168 HD
HETATM    6  C5  UNL     1     -36.045  21.578  10.342  1.00  0.00     0.101 A 
HETATM    7  C17 UNL     1     -35.244  21.671  11.444  1.00  0.00     0.101 A 
HETATM    8  C22 UNL     1     -35.536  22.477  12.566  1.00  0.00     0.091 A 
HETATM    9  N7  UNL     1     -34.731  22.475  13.530  1.00  0.00    -0.337 N 
ATOM     10  H7  UNL     1     -33.940  21.861  13.332  1.00  0.00     0.163 HD
HETATM   11  C23 UNL     1     -34.592  23.056  14.782  1.00  0.00     0.480 C 
HETATM   12  N8  UNL     1     -33.680  24.225  14.739  1.00  0.00    -0.033 N 
ATOM     13  H81 UNL     1     -33.578  24.652  15.660  1.00  0.00     0.278 HD
ATOM     14  H82 UNL     1     -33.979  24.907  14.041  1.00  0.00     0.278 HD
ATOM     15  H83 UNL     1     -32.775  23.978  14.339  1.00  0.00     0.278 HD
HETATM   16  N9  UNL     1     -34.000  22.090  15.758  1.00  0.00    -0.033 N 
ATOM     17  H91 UNL     1     -33.898  22.518  16.679  1.00  0.00     0.278 HD
ATOM     18  H92 UNL     1     -33.116  21.709  15.421  1.00  0.00     0.278 HD
ATOM     19  H93 UNL     1     -34.536  21.223  15.803  1.00  0.00     0.278 HD
ENDROOT
BRANCH   6  20
HETATM   20  S1  UNL     1     -35.585  20.498   8.990  1.00  0.00    -0.101 SA
BRANCH  20  21
HETATM   21  C6  UNL     1     -36.655  19.075   8.840  1.00  0.00     0.183 C 
BRANCH  21  22
HETATM   22  C7  UNL     1     -37.829  19.271   7.968  1.00  0.00     0.228 C 
HETATM   23  O2  UNL     1     -38.444  18.296   7.492  1.00  0.00    -0.273 OA
HETATM   24  N4  UNL     1     -38.241  20.621   7.684  1.00  0.00    -0.347 N 
ATOM     25  H4  UNL     1     -37.725  21.402   8.089  1.00  0.00     0.163 HD
BRANCH  24  26
HETATM   26  C8  UNL     1     -39.382  20.880   6.830  1.00  0.00     0.180 C 
HETATM   27  C9  UNL     1     -39.243  22.252   6.195  1.00  0.00     0.043 C 
BRANCH  26  28
HETATM   28  C10 UNL     1     -40.615  20.856   7.703  1.00  0.00     0.287 C 
HETATM   29  O3  UNL     1     -40.551  21.414   8.811  1.00  0.00    -0.262 OA
BRANCH  28  30
HETATM   30  O4  UNL     1     -41.749  20.248   7.293  1.00  0.00    -0.259 OA
BRANCH  30  31
HETATM   31  C11 UNL     1     -41.869  19.332   6.221  1.00  0.00     0.158 C 
HETATM   32  N5  UNL     1     -41.191  18.314   6.245  1.00  0.00    -0.379 N 
ATOM     33  H52 UNL     1     -40.534  18.061   6.983  1.00  0.00     0.158 HD
ATOM     34  H51 UNL     1     -41.278  17.653   5.473  1.00  0.00     0.158 HD
BRANCH  31  35
HETATM   35  C12 UNL     1     -42.819  19.699   5.157  1.00  0.00     0.057 A 
HETATM   36  C13 UNL     1     -42.468  20.327   3.972  1.00  0.00     0.043 A 
HETATM   37  C14 UNL     1     -43.605  20.480   3.234  1.00  0.00     0.144 A 
HETATM   38  O5  UNL     1     -44.588  19.982   3.912  1.00  0.00    -0.315 OA
HETATM   39  C15 UNL     1     -44.156  19.489   5.101  1.00  0.00     0.165 A 
BRANCH  39  40
HETATM   40  C16 UNL     1     -45.055  18.893   6.025  1.00  0.00     0.235 C 
HETATM   41  O6  UNL     1     -46.267  19.337   6.011  1.00  0.00    -0.642 OA
HETATM   42  O7  UNL     1     -44.813  17.904   6.938  1.00  0.00    -0.642 OA
ENDBRANCH  39  40
ENDBRANCH  31  35
ENDBRANCH  30  31
ENDBRANCH  28  30
ENDBRANCH  26  28
ENDBRANCH  24  26
ENDBRANCH  21  22
ENDBRANCH  20  21
ENDBRANCH   6  20
BRANCH   7  43
HETATM   43  N6  UNL     1     -34.035  20.902  11.423  1.00  0.00    -0.322 N 
ATOM     44  H6  UNL     1     -33.126  21.363  11.401  1.00  0.00     0.174 HD
BRANCH  43  45
HETATM   45  S2  UNL     1     -34.152  19.164  11.439  1.00  0.00    -0.012 SA
BRANCH  45  46
HETATM   46  C18 UNL     1     -35.009  18.534  12.867  1.00  0.00     0.048 A 
HETATM   47  C19 UNL     1     -35.076  19.057  14.145  1.00  0.00     0.165 A 
HETATM   48  O8  UNL     1     -35.808  18.281  14.892  1.00  0.00    -0.299 OA
HETATM   49  C20 UNL     1     -36.262  17.242  14.222  1.00  0.00     0.183 A 
HETATM   50  C21 UNL     1     -35.778  17.368  12.941  1.00  0.00     0.086 A 
BRANCH  49  51
HETATM   51  O9  UNL     1     -37.067  16.238  14.742  1.00  0.00    -0.341 OA
ATOM     52  H9  UNL     1     -37.882  16.373  15.211  1.00  0.00     0.220 HD
ENDBRANCH  49  51
ENDBRANCH  45  46
ENDBRANCH  43  45
ENDBRANCH   7  43
BRANCH   1  53
HETATM   53  N1  UNL     1     -37.190  24.061  13.516  1.00  0.00    -0.323 N 
HETATM   54  C2  UNL     1     -38.047  23.586  14.558  1.00  0.00     0.218 C 
HETATM   55  C1  UNL     1     -38.579  24.450  15.637  1.00  0.00     0.117 C 
HETATM   56  O1  UNL     1     -38.363  22.359  14.550  1.00  0.00    -0.274 OA
ATOM     57  H1  UNL     1     -36.921  25.044  13.502  1.00  0.00     0.169 HD
ENDBRANCH   1  53
TORSDOF 14
ENDMDL
MODEL 4
REMARK VINA RESULT: -9.105810940      4.036      5.814
REMARK  14 active torsions:
REMARK  status: ('A' for Active; 'I' for Inactive)
REMARK       I    between atoms: C2_2  and  N1_4 
REMARK    1  A    between atoms: N1_4  and  C3_6 
REMARK    2  A    between atoms: C5_11  and  S1_12 
REMARK    3  A    between atoms: S1_12  and  C6_13 
REMARK    4  A    between atoms: C6_13  and  C7_14 
REMARK       I    between atoms: C7_14  and  N4_16 
REMARK    5  A    between atoms: N4_16  and  C8_18 
REMARK    6  A    between atoms: C8_18  and  C10_20 
REMARK    7  A    between atoms: C10_20  and  O4_22 
REMARK    8  A    between atoms: O4_22  and  C11_23 
REMARK    9  A    between atoms: C11_23  and  C12_27 
REMARK   10  A    between atoms: C15_31  and  C16_32 
REMARK   11  A    between atoms: C17_35  and  N6_36 
REMARK   12  A    between atoms: N6_36  and  S2_38 
REMARK   13  A    between atoms: S2_38  and  C18_39 
REMARK   14  A    between atoms: C20_42  and  O9_43 
REMARK       I    between atoms: N7_47  and  C23_49 
REMARK       I    between atoms: C23_49  and  N8_50 
REMARK       I    between atoms: C23_49  and  N9_54 
ROOT
HETATM    1  C3  UNL     1     -37.642  23.161   9.781  1.00  0.00     0.105 A 
HETATM    2  C4  UNL     1     -38.844  22.481   9.588  1.00  0.00     0.146 A 
HETATM    3  N2  UNL     1     -39.963  22.852  10.406  1.00  0.00    -0.080 NA
HETATM    4  N3  UNL     1     -39.016  21.510   8.685  1.00  0.00    -0.336 N 
ATOM      5  H3  UNL     1     -39.922  21.052   8.590  1.00  0.00     0.168 HD
HETATM    6  C5  UNL     1     -37.989  21.142   7.903  1.00  0.00     0.101 A 
HETATM    7  C17 UNL     1     -36.793  21.782   8.061  1.00  0.00     0.101 A 
HETATM    8  C22 UNL     1     -36.568  22.812   9.000  1.00  0.00     0.091 A 
HETATM    9  N7  UNL     1     -35.421  23.321   9.066  1.00  0.00    -0.337 N 
ATOM     10  H7  UNL     1     -34.800  22.890   8.381  1.00  0.00     0.163 HD
HETATM   11  C23 UNL     1     -34.745  24.294   9.789  1.00  0.00     0.480 C 
HETATM   12  N8  UNL     1     -34.667  25.571   9.037  1.00  0.00    -0.033 N 
ATOM     13  H81 UNL     1     -34.170  26.286   9.568  1.00  0.00     0.278 HD
ATOM     14  H82 UNL     1     -35.592  25.893   8.750  1.00  0.00     0.278 HD
ATOM     15  H83 UNL     1     -34.254  25.436   8.114  1.00  0.00     0.278 HD
HETATM   16  N9  UNL     1     -33.336  23.875  10.063  1.00  0.00    -0.033 N 
ATOM     17  H91 UNL     1     -32.839  24.590  10.595  1.00  0.00     0.278 HD
ATOM     18  H92 UNL     1     -32.842  23.633   9.205  1.00  0.00     0.278 HD
ATOM     19  H93 UNL     1     -33.297  22.966  10.526  1.00  0.00     0.278 HD
ENDROOT
BRANCH   6  20
HETATM   20  S1  UNL     1     -38.147  19.828   6.698  1.00  0.00    -0.101 SA
BRANCH  20  21
HETATM   21  C6  UNL     1     -39.816  19.201   6.567  1.00  0.00     0.183 C 
BRANCH  21  22
HETATM   22  C7  UNL     1     -40.812  20.182   6.096  1.00  0.00     0.228 C 
HETATM   23  O2  UNL     1     -41.533  20.803   6.903  1.00  0.00    -0.273 OA
HETATM   24  N4  UNL     1     -40.926  20.401   4.677  1.00  0.00    -0.347 N 
ATOM     25  H4  UNL     1     -40.321  19.886   4.037  1.00  0.00     0.163 HD
BRANCH  24  26
HETATM   26  C8  UNL     1     -41.889  21.346   4.151  1.00  0.00     0.180 C 
HETATM   27  C9  UNL     1     -42.759  20.662   3.111  1.00  0.00     0.043 C 
BRANCH  26  28
HETATM   28  C10 UNL     1     -41.112  22.464   3.495  1.00  0.00     0.287 C 
HETATM   29  O3  UNL     1     -40.579  22.234   2.398  1.00  0.00    -0.262 OA
BRANCH  28  30
HETATM   30  O4  UNL     1     -41.002  23.675   4.083  1.00  0.00    -0.259 OA
BRANCH  30  31
HETATM   31  C11 UNL     1     -40.408  24.830   3.521  1.00  0.00     0.158 C 
HETATM   32  N5  UNL     1     -39.196  24.841   3.356  1.00  0.00    -0.379 N 
ATOM     33  H52 UNL     1     -38.562  24.078   3.591  1.00  0.00     0.158 HD
ATOM     34  H51 UNL     1     -38.768  25.674   2.951  1.00  0.00     0.158 HD
BRANCH  31  35
HETATM   35  C12 UNL     1     -41.325  25.932   3.182  1.00  0.00     0.057 A 
HETATM   36  C13 UNL     1     -42.682  25.781   2.945  1.00  0.00     0.043 A 
HETATM   37  C14 UNL     1     -43.197  27.018   2.687  1.00  0.00     0.144 A 
HETATM   38  O5  UNL     1     -42.227  27.872   2.760  1.00  0.00    -0.315 OA
HETATM   39  C15 UNL     1     -41.057  27.254   3.062  1.00  0.00     0.165 A 
BRANCH  39  40
HETATM   40  C16 UNL     1     -39.847  27.985   3.193  1.00  0.00     0.235 C 
HETATM   41  O6  UNL     1     -39.678  28.964   2.369  1.00  0.00    -0.642 OA
HETATM   42  O7  UNL     1     -38.823  27.794   4.080  1.00  0.00    -0.642 OA
ENDBRANCH  39  40
ENDBRANCH  31  35
ENDBRANCH  30  31
ENDBRANCH  28  30
ENDBRANCH  26  28
ENDBRANCH  24  26
ENDBRANCH  21  22
ENDBRANCH  20  21
ENDBRANCH   6  20
BRANCH   7  43
HETATM   43  N6  UNL     1     -35.727  21.369   7.198  1.00  0.00    -0.322 N 
ATOM     44  H6  UNL     1     -35.753  21.581   6.201  1.00  0.00     0.174 HD
BRANCH  43  45
HETATM   45  S2  UNL     1     -34.385  20.498   7.888  1.00  0.00    -0.012 SA
BRANCH  45  46
HETATM   46  C18 UNL     1     -34.811  19.625   9.380  1.00  0.00     0.048 A 
HETATM   47  C19 UNL     1     -35.664  18.549   9.549  1.00  0.00     0.165 A 
HETATM   48  O8  UNL     1     -35.695  18.216  10.808  1.00  0.00    -0.299 OA
HETATM   49  C20 UNL     1     -34.918  18.988  11.539  1.00  0.00     0.183 A 
HETATM   50  C21 UNL     1     -34.345  19.888  10.673  1.00  0.00     0.086 A 
BRANCH  49  51
HETATM   51  O9  UNL     1     -34.740  18.882  12.911  1.00  0.00    -0.341 OA
ATOM     52  H9  UNL     1     -34.782  19.602  13.529  1.00  0.00     0.220 HD
ENDBRANCH  49  51
ENDBRANCH  45  46
ENDBRANCH  43  45
ENDBRANCH   7  43
BRANCH   1  53
HETATM   53  N1  UNL     1     -37.635  24.164  10.783  1.00  0.00    -0.323 N 
HETATM   54  C2  UNL     1     -37.200  23.884  12.116  1.00  0.00     0.218 C 
HETATM   55  C1  UNL     1     -37.174  24.895  13.198  1.00  0.00     0.117 C 
HETATM   56  O1  UNL     1     -36.818  22.704  12.377  1.00  0.00    -0.274 OA
ATOM     57  H1  UNL     1     -37.948  25.106  10.548  1.00  0.00     0.169 HD
ENDBRANCH   1  53
TORSDOF 14
ENDMDL
MODEL 5
REMARK VINA RESULT: -8.871199157      2.323      3.113
REMARK  14 active torsions:
REMARK  status: ('A' for Active; 'I' for Inactive)
REMARK       I    between atoms: C2_2  and  N1_4 
REMARK    1  A    between atoms: N1_4  and  C3_6 
REMARK    2  A    between atoms: C5_11  and  S1_12 
REMARK    3  A    between atoms: S1_12  and  C6_13 
REMARK    4  A    between atoms: C6_13  and  C7_14 
REMARK       I    between atoms: C7_14  and  N4_16 
REMARK    5  A    between atoms: N4_16  and  C8_18 
REMARK    6  A    between atoms: C8_18  and  C10_20 
REMARK    7  A    between atoms: C10_20  and  O4_22 
REMARK    8  A    between atoms: O4_22  and  C11_23 
REMARK    9  A    between atoms: C11_23  and  C12_27 
REMARK   10  A    between atoms: C15_31  and  C16_32 
REMARK   11  A    between atoms: C17_35  and  N6_36 
REMARK   12  A    between atoms: N6_36  and  S2_38 
REMARK   13  A    between atoms: S2_38  and  C18_39 
REMARK   14  A    between atoms: C20_42  and  O9_43 
REMARK       I    between atoms: N7_47  and  C23_49 
REMARK       I    between atoms: C23_49  and  N8_50 
REMARK       I    between atoms: C23_49  and  N9_54 
ROOT
HETATM    1  C3  UNL     1     -37.264  22.770  12.892  1.00  0.00     0.105 A 
HETATM    2  C4  UNL     1     -38.048  22.928  11.749  1.00  0.00     0.146 A 
HETATM    3  N2  UNL     1     -39.413  23.336  11.923  1.00  0.00    -0.080 NA
HETATM    4  N3  UNL     1     -37.602  22.727  10.504  1.00  0.00    -0.336 N 
ATOM      5  H3  UNL     1     -38.225  22.862   9.709  1.00  0.00     0.168 HD
HETATM    6  C5  UNL     1     -36.330  22.347  10.309  1.00  0.00     0.101 A 
HETATM    7  C17 UNL     1     -35.529  22.179  11.401  1.00  0.00     0.101 A 
HETATM    8  C22 UNL     1     -35.957  22.382  12.731  1.00  0.00     0.091 A 
HETATM    9  N7  UNL     1     -35.134  22.185  13.661  1.00  0.00    -0.337 N 
ATOM     10  H7  UNL     1     -34.230  21.903  13.282  1.00  0.00     0.163 HD
HETATM   11  C23 UNL     1     -35.086  22.236  15.046  1.00  0.00     0.480 C 
HETATM   12  N8  UNL     1     -34.478  23.504  15.520  1.00  0.00    -0.033 N 
ATOM     13  H81 UNL     1     -34.442  23.542  16.539  1.00  0.00     0.278 HD
ATOM     14  H82 UNL     1     -34.959  24.316  15.132  1.00  0.00     0.278 HD
ATOM     15  H83 UNL     1     -33.557  23.654  15.108  1.00  0.00     0.278 HD
HETATM   16  N9  UNL     1     -34.242  21.130  15.594  1.00  0.00    -0.033 N 
ATOM     17  H91 UNL     1     -34.206  21.167  16.613  1.00  0.00     0.278 HD
ATOM     18  H92 UNL     1     -33.308  21.131  15.185  1.00  0.00     0.278 HD
ATOM     19  H93 UNL     1     -34.556  20.217  15.262  1.00  0.00     0.278 HD
ENDROOT
BRANCH   6  20
HETATM   20  S1  UNL     1     -35.684  22.032   8.669  1.00  0.00    -0.101 SA
BRANCH  20  21
HETATM   21  C6  UNL     1     -36.087  20.399   8.064  1.00  0.00     0.183 C 
BRANCH  21  22
HETATM   22  C7  UNL     1     -37.286  20.333   7.207  1.00  0.00     0.228 C 
HETATM   23  O2  UNL     1     -37.549  19.307   6.548  1.00  0.00    -0.273 OA
HETATM   24  N4  UNL     1     -38.144  21.489   7.156  1.00  0.00    -0.347 N 
ATOM     25  H4  UNL     1     -37.911  22.315   7.708  1.00  0.00     0.163 HD
BRANCH  24  26
HETATM   26  C8  UNL     1     -39.332  21.490   6.328  1.00  0.00     0.180 C 
HETATM   27  C9  UNL     1     -39.787  22.919   6.089  1.00  0.00     0.043 C 
BRANCH  26  28
HETATM   28  C10 UNL     1     -40.407  20.743   7.084  1.00  0.00     0.287 C 
HETATM   29  O3  UNL     1     -40.641  21.089   8.253  1.00  0.00    -0.262 OA
BRANCH  28  30
HETATM   30  O4  UNL     1     -41.093  19.734   6.505  1.00  0.00    -0.259 OA
BRANCH  30  31
HETATM   31  C11 UNL     1     -42.500  19.620   6.412  1.00  0.00     0.158 C 
HETATM   32  N5  UNL     1     -43.127  19.298   7.413  1.00  0.00    -0.379 N 
ATOM     33  H52 UNL     1     -42.718  19.101   8.326  1.00  0.00     0.158 HD
ATOM     34  H51 UNL     1     -44.141  19.216   7.346  1.00  0.00     0.158 HD
BRANCH  31  35
HETATM   35  C12 UNL     1     -43.090  19.905   5.093  1.00  0.00     0.057 A 
HETATM   36  C13 UNL     1     -42.399  20.459   4.026  1.00  0.00     0.043 A 
HETATM   37  C14 UNL     1     -43.265  20.550   2.976  1.00  0.00     0.144 A 
HETATM   38  O5  UNL     1     -44.408  20.085   3.365  1.00  0.00    -0.315 OA
HETATM   39  C15 UNL     1     -44.351  19.676   4.658  1.00  0.00     0.165 A 
BRANCH  39  40
HETATM   40  C16 UNL     1     -45.488  19.131   5.311  1.00  0.00     0.235 C 
HETATM   41  O6  UNL     1     -45.382  17.912   5.722  1.00  0.00    -0.642 OA
HETATM   42  O7  UNL     1     -46.694  19.724   5.569  1.00  0.00    -0.642 OA
ENDBRANCH  39  40
ENDBRANCH  31  35
ENDBRANCH  30  31
ENDBRANCH  28  30
ENDBRANCH  26  28
ENDBRANCH  24  26
ENDBRANCH  21  22
ENDBRANCH  20  21
ENDBRANCH   6  20
BRANCH   7  43
HETATM   43  N6  UNL     1     -34.175  21.787  11.148  1.00  0.00    -0.322 N 
ATOM     44  H6  UNL     1     -33.433  22.484  11.090  1.00  0.00     0.174 HD
BRANCH  43  45
HETATM   45  S2  UNL     1     -33.823  20.093  10.941  1.00  0.00    -0.012 SA
BRANCH  45  46
HETATM   46  C18 UNL     1     -33.939  19.164  12.455  1.00  0.00     0.048 A 
HETATM   47  C19 UNL     1     -32.963  18.912  13.402  1.00  0.00     0.165 A 
HETATM   48  O8  UNL     1     -33.466  18.187  14.359  1.00  0.00    -0.299 OA
HETATM   49  C20 UNL     1     -34.737  17.911  14.150  1.00  0.00     0.183 A 
HETATM   50  C21 UNL     1     -35.070  18.511  12.958  1.00  0.00     0.086 A 
BRANCH  49  51
HETATM   51  O9  UNL     1     -35.546  17.159  14.989  1.00  0.00    -0.341 OA
ATOM     52  H9  UNL     1     -35.493  17.143  15.937  1.00  0.00     0.220 HD
ENDBRANCH  49  51
ENDBRANCH  45  46
ENDBRANCH  43  45
ENDBRANCH   7  43
BRANCH   1  53
HETATM   53  N1  UNL     1     -37.897  23.025  14.134  1.00  0.00    -0.323 N 
HETATM   54  C2  UNL     1     -37.916  24.335  14.707  1.00  0.00     0.218 C 
HETATM   55  C1  UNL     1     -38.563  24.653  16.001  1.00  0.00     0.117 C 
HETATM   56  O1  UNL     1     -37.346  25.268  14.067  1.00  0.00    -0.274 OA
ATOM     57  H1  UNL     1     -38.349  22.257  14.631  1.00  0.00     0.169 HD
ENDBRANCH   1  53
TORSDOF 14
ENDMDL
