MODEL 1
REMARK VINA RESULT: -7.353673405      0.000      0.000
REMARK  18 active torsions:
REMARK  status: ('A' for Active; 'I' for Inactive)
REMARK    1  A    between atoms: C2_2  and  C3_3 
REMARK    2  A    between atoms: C3_3  and  C5_5 
REMARK    3  A    between atoms: C5_5  and  N1_6 
REMARK    4  A    between atoms: C5_5  and  C12_31 
REMARK    5  A    between atoms: N1_6  and  N2_8 
REMARK    6  A    between atoms: C8_13  and  N4_14 
REMARK    7  A    between atoms: C9_17  and  N5_18 
REMARK    8  A    between atoms: C10_21  and  N6_22 
REMARK    9  A    between atoms: N6_22  and  N7_24 
REMARK   10  A    between atoms: N7_24  and  O3_26 
REMARK       I    between atoms: C12_31  and  N9_33 
REMARK   11  A    between atoms: N9_33  and  O5_35 
REMARK   12  A    between atoms: O5_35  and  C13_36 
REMARK       I    between atoms: C13_36  and  N10_38 
REMARK   13  A    between atoms: N10_38  and  N11_40 
REMARK       I    between atoms: N11_40  and  C14_42 
REMARK       I    between atoms: C14_42  and  N12_44 
REMARK   14  A    between atoms: N12_44  and  N13_46 
REMARK   15  A    between atoms: C15_48  and  C16_49 
REMARK   16  A    between atoms: C18_51  and  O8_52 
REMARK   17  A    between atoms: C20_54  and  O9_55 
REMARK   18  A    between atoms: C21_57  and  O10_58 
ROOT
HETATM    1  C5  UNL     1     -33.894  22.459  13.822  1.00  0.00     0.197 C 
ENDROOT
BRANCH   1   2
HETATM    2  C3  UNL     1     -32.585  23.125  14.221  1.00  0.00     0.014 C 
HETATM    3  C4  UNL     1     -32.510  23.260  15.740  1.00  0.00     0.012 C 
BRANCH   2   4
HETATM    4  C2  UNL     1     -31.353  22.507  13.659  1.00  0.00     0.002 C 
HETATM    5  C1  UNL     1     -30.508  23.516  12.881  1.00  0.00     0.005 C 
ENDBRANCH   2   4
ENDBRANCH   1   2
BRANCH   1   6
HETATM    6  N1  UNL     1     -33.530  21.457  12.844  1.00  0.00    -0.313 N 
ATOM      7  H1  UNL     1     -32.543  21.199  12.854  1.00  0.00     0.181 HD
BRANCH   6   8
HETATM    8  N2  UNL     1     -34.276  20.797  11.913  1.00  0.00    -0.236 N 
HETATM    9  C6  UNL     1     -34.873  19.590  12.166  1.00  0.00     0.209 A 
HETATM   10  N3  UNL     1     -35.548  19.171  11.101  1.00  0.00    -0.346 N 
HETATM   11  C7  UNL     1     -35.415  20.082  10.129  1.00  0.00     0.108 A 
ATOM     12  H3  UNL     1     -36.078  18.302  11.036  1.00  0.00     0.167 HD
HETATM   13  C8  UNL     1     -35.900  20.168   8.841  1.00  0.00     0.094 A 
HETATM   14  C11 UNL     1     -34.610  21.105  10.657  1.00  0.00     0.158 A 
HETATM   15  C9  UNL     1     -35.572  21.275   8.104  1.00  0.00     0.176 A 
HETATM   16  C10 UNL     1     -34.789  22.288   8.604  1.00  0.00     0.159 A 
HETATM   17  N8  UNL     1     -34.327  22.169   9.880  1.00  0.00    -0.322 N 
ATOM     18  H8  UNL     1     -33.745  22.914  10.262  1.00  0.00     0.169 HD
BRANCH  13  19
HETATM   19  N4  UNL     1     -36.637  19.210   8.386  1.00  0.00    -0.395 N 
ATOM     20  H42 UNL     1     -37.657  19.231   8.411  1.00  0.00     0.156 HD
ATOM     21  H41 UNL     1     -36.184  18.390   7.982  1.00  0.00     0.156 HD
ENDBRANCH  13  19
BRANCH  15  22
HETATM   22  N5  UNL     1     -36.051  21.401   6.780  1.00  0.00    -0.109 N 
HETATM   23  O1  UNL     1     -35.355  20.932   5.844  1.00  0.00    -0.532 OA
HETATM   24  O2  UNL     1     -37.232  22.005   6.428  1.00  0.00    -0.532 OA
ENDBRANCH  15  22
BRANCH  16  25
HETATM   25  N6  UNL     1     -34.451  23.432   7.833  1.00  0.00    -0.264 N 
ATOM     26  H6  UNL     1     -34.160  23.341   6.860  1.00  0.00     0.190 HD
BRANCH  25  27
HETATM   27  N7  UNL     1     -34.530  24.688   8.445  1.00  0.00    -0.208 N 
ATOM     28  H7  UNL     1     -35.081  25.426   8.007  1.00  0.00     0.215 HD
BRANCH  27  29
HETATM   29  O3  UNL     1     -33.933  24.921   9.523  1.00  0.00    -0.274 OA
ATOM     30  H3  UNL     1     -34.096  25.720  10.010  1.00  0.00     0.246 HD
ENDBRANCH  27  29
ENDBRANCH  25  27
ENDBRANCH  16  25
ENDBRANCH   6   8
ENDBRANCH   1   6
BRANCH   1  31
HETATM   31  C12 UNL     1     -34.807  23.388  13.115  1.00  0.00     0.266 C 
HETATM   32  O4  UNL     1     -34.228  24.226  12.329  1.00  0.00    -0.269 OA
HETATM   33  N9  UNL     1     -36.187  23.491  13.165  1.00  0.00    -0.222 N 
ATOM     34  H9  UNL     1     -36.705  22.861  13.778  1.00  0.00     0.198 HD
BRANCH  33  35
HETATM   35  O5  UNL     1     -36.878  24.405  12.424  1.00  0.00    -0.177 OA
BRANCH  35  36
HETATM   36  C13 UNL     1     -37.441  24.187  11.168  1.00  0.00     0.401 C 
HETATM   37  O6  UNL     1     -36.700  24.390  10.188  1.00  0.00    -0.235 OA
HETATM   38  N10 UNL     1     -38.775  23.763  11.028  1.00  0.00    -0.240 N 
ATOM     39  H10 UNL     1     -39.327  23.608  11.871  1.00  0.00     0.192 HD
BRANCH  38  40
HETATM   40  N11 UNL     1     -39.383  23.541   9.777  1.00  0.00    -0.246 N 
HETATM   41  C14 UNL     1     -39.266  22.223   9.271  1.00  0.00     0.353 C 
HETATM   42  O7  UNL     1     -38.682  21.300   9.869  1.00  0.00    -0.244 OA
HETATM   43  N12 UNL     1     -39.856  21.926   7.984  1.00  0.00    -0.251 N 
ATOM     44  H12 UNL     1     -40.343  22.652   7.460  1.00  0.00     0.191 HD
ATOM     45  H11 UNL     1     -39.874  24.278   9.271  1.00  0.00     0.192 HD
BRANCH  43  46
HETATM   46  N13 UNL     1     -39.758  20.719   7.501  1.00  0.00    -0.307 N 
HETATM   47  C15 UNL     1     -40.124  19.855   6.775  1.00  0.00     0.118 C 
ATOM     48  H13 UNL     1     -38.967  20.311   8.000  1.00  0.00     0.186 HD
BRANCH  47  49
HETATM   49  C16 UNL     1     -41.217  19.846   5.815  1.00  0.00    -0.014 A 
HETATM   50  C17 UNL     1     -42.410  19.186   6.162  1.00  0.00     0.052 A 
HETATM   51  C18 UNL     1     -43.486  19.133   5.309  1.00  0.00     0.104 A 
HETATM   52  C20 UNL     1     -43.356  19.751   4.095  1.00  0.00     0.133 A 
HETATM   53  C21 UNL     1     -42.210  20.423   3.678  1.00  0.00     0.104 A 
HETATM   54  C23 UNL     1     -41.154  20.445   4.578  1.00  0.00     0.052 A 
BRANCH  51  55
HETATM   55  O8  UNL     1     -44.675  18.473   5.661  1.00  0.00    -0.353 OA
HETATM   56  C19 UNL     1     -45.146  18.644   6.982  1.00  0.00     0.210 C 
ENDBRANCH  51  55
BRANCH  52  57
HETATM   57  O9  UNL     1     -44.418  19.715   3.216  1.00  0.00    -0.356 OA
ATOM     58  H9  UNL     1     -44.362  19.150   2.455  1.00  0.00     0.218 HD
ENDBRANCH  52  57
BRANCH  53  59
HETATM   59  O10 UNL     1     -42.124  21.020   2.465  1.00  0.00    -0.353 OA
HETATM   60  C22 UNL     1     -40.976  21.475   1.867  1.00  0.00     0.210 C 
ENDBRANCH  53  59
ENDBRANCH  47  49
ENDBRANCH  43  46
ENDBRANCH  38  40
ENDBRANCH  35  36
ENDBRANCH  33  35
ENDBRANCH   1  31
TORSDOF 18
ENDMDL
MODEL 2
REMARK VINA RESULT: -7.351300000      2.725      9.626
REMARK  18 active torsions:
REMARK  status: ('A' for Active; 'I' for Inactive)
REMARK    1  A    between atoms: C2_2  and  C3_3 
REMARK    2  A    between atoms: C3_3  and  C5_5 
REMARK    3  A    between atoms: C5_5  and  N1_6 
REMARK    4  A    between atoms: C5_5  and  C12_31 
REMARK    5  A    between atoms: N1_6  and  N2_8 
REMARK    6  A    between atoms: C8_13  and  N4_14 
REMARK    7  A    between atoms: C9_17  and  N5_18 
REMARK    8  A    between atoms: C10_21  and  N6_22 
REMARK    9  A    between atoms: N6_22  and  N7_24 
REMARK   10  A    between atoms: N7_24  and  O3_26 
REMARK       I    between atoms: C12_31  and  N9_33 
REMARK   11  A    between atoms: N9_33  and  O5_35 
REMARK   12  A    between atoms: O5_35  and  C13_36 
REMARK       I    between atoms: C13_36  and  N10_38 
REMARK   13  A    between atoms: N10_38  and  N11_40 
REMARK       I    between atoms: N11_40  and  C14_42 
REMARK       I    between atoms: C14_42  and  N12_44 
REMARK   14  A    between atoms: N12_44  and  N13_46 
REMARK   15  A    between atoms: C15_48  and  C16_49 
REMARK   16  A    between atoms: C18_51  and  O8_52 
REMARK   17  A    between atoms: C20_54  and  O9_55 
REMARK   18  A    between atoms: C21_57  and  O10_58 
ROOT
HETATM    1  C5  UNL     1     -39.200  20.535   7.335  1.00  0.00     0.197 C 
ENDROOT
BRANCH   1   2
HETATM    2  C3  UNL     1     -37.751  20.084   7.211  1.00  0.00     0.014 C 
HETATM    3  C4  UNL     1     -36.869  21.265   6.817  1.00  0.00     0.012 C 
BRANCH   2   4
HETATM    4  C2  UNL     1     -37.205  19.354   8.388  1.00  0.00     0.002 C 
HETATM    5  C1  UNL     1     -36.078  20.128   9.072  1.00  0.00     0.005 C 
ENDBRANCH   2   4
ENDBRANCH   1   2
BRANCH   1   6
HETATM    6  N1  UNL     1     -39.513  21.164   6.071  1.00  0.00    -0.313 N 
ATOM      7  H1  UNL     1     -38.873  21.912   5.803  1.00  0.00     0.181 HD
BRANCH   6   8
HETATM    8  N2  UNL     1     -40.515  20.933   5.176  1.00  0.00    -0.236 N 
HETATM    9  C6  UNL     1     -40.364  21.136   3.829  1.00  0.00     0.209 A 
HETATM   10  N3  UNL     1     -41.481  20.825   3.182  1.00  0.00    -0.346 N 
HETATM   11  C7  UNL     1     -42.388  20.412   4.075  1.00  0.00     0.108 A 
ATOM     12  H3  UNL     1     -41.623  20.890   2.174  1.00  0.00     0.167 HD
HETATM   13  C8  UNL     1     -43.689  19.967   3.966  1.00  0.00     0.094 A 
HETATM   14  C11 UNL     1     -41.764  20.484   5.331  1.00  0.00     0.158 A 
HETATM   15  C9  UNL     1     -44.342  19.601   5.113  1.00  0.00     0.176 A 
HETATM   16  C10 UNL     1     -43.747  19.661   6.350  1.00  0.00     0.159 A 
HETATM   17  N8  UNL     1     -42.461  20.106   6.421  1.00  0.00    -0.322 N 
ATOM     18  H8  UNL     1     -42.008  20.155   7.333  1.00  0.00     0.169 HD
BRANCH  13  19
HETATM   19  N4  UNL     1     -44.234  19.914   2.796  1.00  0.00    -0.395 N 
ATOM     20  H42 UNL     1     -44.240  19.071   2.221  1.00  0.00     0.156 HD
ATOM     21  H41 UNL     1     -44.682  20.751   2.422  1.00  0.00     0.156 HD
ENDBRANCH  13  19
BRANCH  15  22
HETATM   22  N5  UNL     1     -45.676  19.139   5.042  1.00  0.00    -0.109 N 
HETATM   23  O1  UNL     1     -45.902  17.925   5.275  1.00  0.00    -0.532 OA
HETATM   24  O2  UNL     1     -46.760  19.920   4.731  1.00  0.00    -0.532 OA
ENDBRANCH  15  22
BRANCH  16  25
HETATM   25  N6  UNL     1     -44.430  19.282   7.536  1.00  0.00    -0.264 N 
ATOM     26  H6  UNL     1     -44.969  19.963   8.070  1.00  0.00     0.190 HD
BRANCH  25  27
HETATM   27  N7  UNL     1     -44.341  17.949   7.953  1.00  0.00    -0.208 N 
ATOM     28  H7  UNL     1     -43.999  17.242   7.302  1.00  0.00     0.215 HD
BRANCH  27  29
HETATM   29  O3  UNL     1     -44.676  17.610   9.112  1.00  0.00    -0.274 OA
ATOM     30  H3  UNL     1     -45.496  17.904   9.491  1.00  0.00     0.246 HD
ENDBRANCH  27  29
ENDBRANCH  25  27
ENDBRANCH  16  25
ENDBRANCH   6   8
ENDBRANCH   1   6
BRANCH   1  31
HETATM   31  C12 UNL     1     -39.377  21.591   8.358  1.00  0.00     0.266 C 
HETATM   32  O4  UNL     1     -39.635  21.162   9.544  1.00  0.00    -0.269 OA
HETATM   33  N9  UNL     1     -39.304  22.969   8.239  1.00  0.00    -0.222 N 
ATOM     34  H9  UNL     1     -39.113  23.374   7.322  1.00  0.00     0.198 HD
BRANCH  33  35
HETATM   35  O5  UNL     1     -39.478  23.804   9.304  1.00  0.00    -0.177 OA
BRANCH  35  36
HETATM   36  C13 UNL     1     -38.471  24.473   9.996  1.00  0.00     0.401 C 
HETATM   37  O6  UNL     1     -37.580  24.999   9.304  1.00  0.00    -0.235 OA
HETATM   38  N10 UNL     1     -38.471  24.543  11.402  1.00  0.00    -0.240 N 
ATOM     39  H10 UNL     1     -39.233  24.095  11.910  1.00  0.00     0.192 HD
BRANCH  38  40
HETATM   40  N11 UNL     1     -37.467  25.201  12.138  1.00  0.00    -0.246 N 
HETATM   41  C14 UNL     1     -36.437  24.367  12.638  1.00  0.00     0.353 C 
HETATM   42  O7  UNL     1     -36.387  23.137  12.449  1.00  0.00    -0.244 OA
HETATM   43  N12 UNL     1     -35.378  24.973  13.416  1.00  0.00    -0.251 N 
ATOM     44  H12 UNL     1     -35.380  25.977  13.595  1.00  0.00     0.191 HD
ATOM     45  H11 UNL     1     -37.481  26.208  12.301  1.00  0.00     0.192 HD
BRANCH  43  46
HETATM   46  N13 UNL     1     -34.422  24.222  13.885  1.00  0.00    -0.307 N 
HETATM   47  C15 UNL     1     -33.613  23.362  13.755  1.00  0.00     0.118 C 
ATOM     48  H13 UNL     1     -34.312  24.528  14.852  1.00  0.00     0.186 HD
BRANCH  47  49
HETATM   49  C16 UNL     1     -33.297  22.549  12.591  1.00  0.00    -0.014 A 
HETATM   50  C17 UNL     1     -33.114  23.193  11.354  1.00  0.00     0.052 A 
HETATM   51  C18 UNL     1     -32.814  22.494  10.209  1.00  0.00     0.104 A 
HETATM   52  C20 UNL     1     -32.699  21.134  10.314  1.00  0.00     0.133 A 
HETATM   53  C21 UNL     1     -32.866  20.425  11.501  1.00  0.00     0.104 A 
HETATM   54  C23 UNL     1     -33.167  21.180  12.626  1.00  0.00     0.052 A 
BRANCH  51  55
HETATM   55  O8  UNL     1     -32.633  23.141   8.975  1.00  0.00    -0.353 OA
HETATM   56  C19 UNL     1     -33.792  23.458   8.232  1.00  0.00     0.210 C 
ENDBRANCH  51  55
BRANCH  52  57
HETATM   57  O9  UNL     1     -32.399  20.404   9.184  1.00  0.00    -0.356 OA
ATOM     58  H9  UNL     1     -32.064  19.522   9.285  1.00  0.00     0.218 HD
ENDBRANCH  52  57
BRANCH  53  59
HETATM   59  O10 UNL     1     -32.743  19.077  11.560  1.00  0.00    -0.353 OA
HETATM   60  C22 UNL     1     -32.726  18.317  12.702  1.00  0.00     0.210 C 
ENDBRANCH  53  59
ENDBRANCH  47  49
ENDBRANCH  43  46
ENDBRANCH  38  40
ENDBRANCH  35  36
ENDBRANCH  33  35
ENDBRANCH   1  31
TORSDOF 18
ENDMDL
MODEL 3
REMARK VINA RESULT: -7.343764798      2.058      2.934
REMARK  18 active torsions:
REMARK  status: ('A' for Active; 'I' for Inactive)
REMARK    1  A    between atoms: C2_2  and  C3_3 
REMARK    2  A    between atoms: C3_3  and  C5_5 
REMARK    3  A    between atoms: C5_5  and  N1_6 
REMARK    4  A    between atoms: C5_5  and  C12_31 
REMARK    5  A    between atoms: N1_6  and  N2_8 
REMARK    6  A    between atoms: C8_13  and  N4_14 
REMARK    7  A    between atoms: C9_17  and  N5_18 
REMARK    8  A    between atoms: C10_21  and  N6_22 
REMARK    9  A    between atoms: N6_22  and  N7_24 
REMARK   10  A    between atoms: N7_24  and  O3_26 
REMARK       I    between atoms: C12_31  and  N9_33 
REMARK   11  A    between atoms: N9_33  and  O5_35 
REMARK   12  A    between atoms: O5_35  and  C13_36 
REMARK       I    between atoms: C13_36  and  N10_38 
REMARK   13  A    between atoms: N10_38  and  N11_40 
REMARK       I    between atoms: N11_40  and  C14_42 
REMARK       I    between atoms: C14_42  and  N12_44 
REMARK   14  A    between atoms: N12_44  and  N13_46 
REMARK   15  A    between atoms: C15_48  and  C16_49 
REMARK   16  A    between atoms: C18_51  and  O8_52 
REMARK   17  A    between atoms: C20_54  and  O9_55 
REMARK   18  A    between atoms: C21_57  and  O10_58 
ROOT
HETATM    1  C5  UNL     1     -37.194  23.485  14.756  1.00  0.00     0.197 C 
ENDROOT
BRANCH   1   2
HETATM    2  C3  UNL     1     -37.020  24.657  15.712  1.00  0.00     0.014 C 
HETATM    3  C4  UNL     1     -35.655  25.306  15.498  1.00  0.00     0.012 C 
BRANCH   2   4
HETATM    4  C2  UNL     1     -38.118  25.661  15.702  1.00  0.00     0.002 C 
HETATM    5  C1  UNL     1     -39.390  25.127  16.362  1.00  0.00     0.005 C 
ENDBRANCH   2   4
ENDBRANCH   1   2
BRANCH   1   6
HETATM    6  N1  UNL     1     -35.853  23.065  14.417  1.00  0.00    -0.313 N 
ATOM      7  H1  UNL     1     -35.117  23.558  14.922  1.00  0.00     0.181 HD
BRANCH   6   8
HETATM    8  N2  UNL     1     -35.400  22.124  13.540  1.00  0.00    -0.236 N 
HETATM    9  C6  UNL     1     -35.474  20.779  13.796  1.00  0.00     0.209 A 
HETATM   10  N3  UNL     1     -34.978  20.083  12.780  1.00  0.00    -0.346 N 
HETATM   11  C7  UNL     1     -34.568  20.941  11.838  1.00  0.00     0.108 A 
ATOM     12  H3  UNL     1     -34.919  19.066  12.728  1.00  0.00     0.167 HD
HETATM   13  C8  UNL     1     -33.995  20.776  10.594  1.00  0.00     0.094 A 
HETATM   14  C11 UNL     1     -34.843  22.227  12.331  1.00  0.00     0.158 A 
HETATM   15  C9  UNL     1     -33.706  21.899   9.866  1.00  0.00     0.176 A 
HETATM   16  C10 UNL     1     -33.970  23.166  10.330  1.00  0.00     0.159 A 
HETATM   17  N8  UNL     1     -34.537  23.291  11.563  1.00  0.00    -0.322 N 
ATOM     18  H8  UNL     1     -34.738  24.225  11.918  1.00  0.00     0.169 HD
BRANCH  13  19
HETATM   19  N4  UNL     1     -33.754  19.580  10.171  1.00  0.00    -0.395 N 
ATOM     20  H42 UNL     1     -33.951  19.276   9.217  1.00  0.00     0.156 HD
ATOM     21  H41 UNL     1     -33.350  18.901  10.816  1.00  0.00     0.156 HD
ENDBRANCH  13  19
BRANCH  15  22
HETATM   22  N5  UNL     1     -33.119  21.773   8.586  1.00  0.00    -0.109 N 
HETATM   23  O1  UNL     1     -31.883  21.560   8.513  1.00  0.00    -0.532 OA
HETATM   24  O2  UNL     1     -33.801  21.868   7.399  1.00  0.00    -0.532 OA
ENDBRANCH  15  22
BRANCH  16  25
HETATM   25  N6  UNL     1     -33.668  24.328   9.570  1.00  0.00    -0.264 N 
ATOM     26  H6  UNL     1     -32.780  24.815   9.691  1.00  0.00     0.190 HD
BRANCH  25  27
HETATM   27  N7  UNL     1     -34.620  24.785   8.653  1.00  0.00    -0.208 N 
ATOM     28  H7  UNL     1     -35.056  24.123   8.012  1.00  0.00     0.215 HD
BRANCH  27  29
HETATM   29  O3  UNL     1     -34.946  25.995   8.608  1.00  0.00    -0.274 OA
ATOM     30  H3  UNL     1     -35.579  26.355   9.217  1.00  0.00     0.246 HD
ENDBRANCH  27  29
ENDBRANCH  25  27
ENDBRANCH  16  25
ENDBRANCH   6   8
ENDBRANCH   1   6
BRANCH   1  31
HETATM   31  C12 UNL     1     -37.818  23.890  13.475  1.00  0.00     0.266 C 
HETATM   32  O4  UNL     1     -38.908  23.271  13.182  1.00  0.00    -0.269 OA
HETATM   33  N9  UNL     1     -37.413  24.833  12.545  1.00  0.00    -0.222 N 
ATOM     34  H9  UNL     1     -36.551  25.351  12.714  1.00  0.00     0.198 HD
BRANCH  33  35
HETATM   35  O5  UNL     1     -38.127  25.095  11.413  1.00  0.00    -0.177 OA
BRANCH  35  36
HETATM   36  C13 UNL     1     -37.907  24.537  10.155  1.00  0.00     0.401 C 
HETATM   37  O6  UNL     1     -37.747  25.338   9.216  1.00  0.00    -0.235 OA
HETATM   38  N10 UNL     1     -37.872  23.142   9.970  1.00  0.00    -0.240 N 
ATOM     39  H10 UNL     1     -38.006  22.540  10.782  1.00  0.00     0.192 HD
BRANCH  38  40
HETATM   40  N11 UNL     1     -37.662  22.540   8.714  1.00  0.00    -0.246 N 
HETATM   41  C14 UNL     1     -38.394  21.349   8.484  1.00  0.00     0.353 C 
HETATM   42  O7  UNL     1     -39.182  20.849   9.308  1.00  0.00    -0.244 OA
HETATM   43  N12 UNL     1     -38.218  20.667   7.220  1.00  0.00    -0.251 N 
ATOM     44  H12 UNL     1     -37.581  21.042   6.517  1.00  0.00     0.191 HD
ATOM     45  H11 UNL     1     -37.028  22.933   8.019  1.00  0.00     0.192 HD
BRANCH  43  46
HETATM   46  N13 UNL     1     -38.881  19.570   6.989  1.00  0.00    -0.307 N 
HETATM   47  C15 UNL     1     -39.779  18.982   6.481  1.00  0.00     0.118 C 
ATOM     48  H13 UNL     1     -38.372  18.853   7.507  1.00  0.00     0.186 HD
BRANCH  47  49
HETATM   49  C16 UNL     1     -40.843  19.472   5.619  1.00  0.00    -0.014 A 
HETATM   50  C17 UNL     1     -42.119  18.891   5.732  1.00  0.00     0.052 A 
HETATM   51  C18 UNL     1     -43.175  19.298   4.952  1.00  0.00     0.104 A 
HETATM   52  C20 UNL     1     -42.940  20.301   4.050  1.00  0.00     0.133 A 
HETATM   53  C21 UNL     1     -41.707  20.924   3.878  1.00  0.00     0.104 A 
HETATM   54  C23 UNL     1     -40.676  20.474   4.692  1.00  0.00     0.052 A 
BRANCH  51  55
HETATM   55  O8  UNL     1     -44.447  18.715   5.069  1.00  0.00    -0.353 OA
HETATM   56  C19 UNL     1     -45.068  18.761   6.337  1.00  0.00     0.210 C 
ENDBRANCH  51  55
BRANCH  52  57
HETATM   57  O9  UNL     1     -43.978  20.732   3.252  1.00  0.00    -0.356 OA
ATOM     58  H9  UNL     1     -44.188  21.658   3.235  1.00  0.00     0.218 HD
ENDBRANCH  52  57
BRANCH  53  59
HETATM   59  O10 UNL     1     -41.518  21.913   2.972  1.00  0.00    -0.353 OA
HETATM   60  C22 UNL     1     -40.718  23.016   3.133  1.00  0.00     0.210 C 
ENDBRANCH  53  59
ENDBRANCH  47  49
ENDBRANCH  43  46
ENDBRANCH  38  40
ENDBRANCH  35  36
ENDBRANCH  33  35
ENDBRANCH   1  31
TORSDOF 18
ENDMDL
MODEL 4
REMARK VINA RESULT: -7.323783888      2.864      9.743
REMARK  18 active torsions:
REMARK  status: ('A' for Active; 'I' for Inactive)
REMARK    1  A    between atoms: C2_2  and  C3_3 
REMARK    2  A    between atoms: C3_3  and  C5_5 
REMARK    3  A    between atoms: C5_5  and  N1_6 
REMARK    4  A    between atoms: C5_5  and  C12_31 
REMARK    5  A    between atoms: N1_6  and  N2_8 
REMARK    6  A    between atoms: C8_13  and  N4_14 
REMARK    7  A    between atoms: C9_17  and  N5_18 
REMARK    8  A    between atoms: C10_21  and  N6_22 
REMARK    9  A    between atoms: N6_22  and  N7_24 
REMARK   10  A    between atoms: N7_24  and  O3_26 
REMARK       I    between atoms: C12_31  and  N9_33 
REMARK   11  A    between atoms: N9_33  and  O5_35 
REMARK   12  A    between atoms: O5_35  and  C13_36 
REMARK       I    between atoms: C13_36  and  N10_38 
REMARK   13  A    between atoms: N10_38  and  N11_40 
REMARK       I    between atoms: N11_40  and  C14_42 
REMARK       I    between atoms: C14_42  and  N12_44 
REMARK   14  A    between atoms: N12_44  and  N13_46 
REMARK   15  A    between atoms: C15_48  and  C16_49 
REMARK   16  A    between atoms: C18_51  and  O8_52 
REMARK   17  A    between atoms: C20_54  and  O9_55 
REMARK   18  A    between atoms: C21_57  and  O10_58 
ROOT
HETATM    1  C5  UNL     1     -39.312  20.681   7.546  1.00  0.00     0.197 C 
ENDROOT
BRANCH   1   2
HETATM    2  C3  UNL     1     -37.920  20.066   7.559  1.00  0.00     0.014 C 
HETATM    3  C4  UNL     1     -38.019  18.549   7.430  1.00  0.00     0.012 C 
BRANCH   2   4
HETATM    4  C2  UNL     1     -36.956  20.643   6.583  1.00  0.00     0.002 C 
HETATM    5  C1  UNL     1     -35.846  21.437   7.273  1.00  0.00     0.005 C 
ENDBRANCH   2   4
ENDBRANCH   1   2
BRANCH   1   6
HETATM    6  N1  UNL     1     -39.501  21.171   6.198  1.00  0.00    -0.313 N 
ATOM      7  H1  UNL     1     -38.764  21.794   5.870  1.00  0.00     0.181 HD
BRANCH   6   8
HETATM    8  N2  UNL     1     -40.494  20.945   5.291  1.00  0.00    -0.236 N 
HETATM    9  C6  UNL     1     -40.328  21.158   3.947  1.00  0.00     0.209 A 
HETATM   10  N3  UNL     1     -41.438  20.851   3.286  1.00  0.00    -0.346 N 
HETATM   11  C7  UNL     1     -42.354  20.430   4.167  1.00  0.00     0.108 A 
ATOM     12  H3  UNL     1     -41.569  20.923   2.277  1.00  0.00     0.167 HD
HETATM   13  C8  UNL     1     -43.654  19.985   4.040  1.00  0.00     0.094 A 
HETATM   14  C11 UNL     1     -41.743  20.494   5.430  1.00  0.00     0.158 A 
HETATM   15  C9  UNL     1     -44.318  19.610   5.177  1.00  0.00     0.176 A 
HETATM   16  C10 UNL     1     -43.736  19.662   6.421  1.00  0.00     0.159 A 
HETATM   17  N8  UNL     1     -42.451  20.107   6.509  1.00  0.00    -0.322 N 
ATOM     18  H8  UNL     1     -42.008  20.150   7.426  1.00  0.00     0.169 HD
BRANCH  13  19
HETATM   19  N4  UNL     1     -44.186  19.940   2.864  1.00  0.00    -0.395 N 
ATOM     20  H42 UNL     1     -43.645  20.023   2.003  1.00  0.00     0.156 HD
ATOM     21  H41 UNL     1     -45.196  19.816   2.785  1.00  0.00     0.156 HD
ENDBRANCH  13  19
BRANCH  15  22
HETATM   22  N5  UNL     1     -45.651  19.147   5.089  1.00  0.00    -0.109 N 
HETATM   23  O1  UNL     1     -45.879  17.933   5.321  1.00  0.00    -0.532 OA
HETATM   24  O2  UNL     1     -46.731  19.927   4.762  1.00  0.00    -0.532 OA
ENDBRANCH  15  22
BRANCH  16  25
HETATM   25  N6  UNL     1     -44.431  19.272   7.597  1.00  0.00    -0.264 N 
ATOM     26  H6  UNL     1     -44.980  19.948   8.129  1.00  0.00     0.190 HD
BRANCH  25  27
HETATM   27  N7  UNL     1     -44.342  17.938   8.008  1.00  0.00    -0.208 N 
ATOM     28  H7  UNL     1     -43.993  17.235   7.356  1.00  0.00     0.215 HD
BRANCH  27  29
HETATM   29  O3  UNL     1     -44.683  17.592   9.163  1.00  0.00    -0.274 OA
ATOM     30  H3  UNL     1     -45.000  16.714   9.338  1.00  0.00     0.246 HD
ENDBRANCH  27  29
ENDBRANCH  25  27
ENDBRANCH  16  25
ENDBRANCH   6   8
ENDBRANCH   1   6
BRANCH   1  31
HETATM   31  C12 UNL     1     -39.411  21.874   8.418  1.00  0.00     0.266 C 
HETATM   32  O4  UNL     1     -39.892  21.651   9.591  1.00  0.00    -0.269 OA
HETATM   33  N9  UNL     1     -39.061  23.191   8.170  1.00  0.00    -0.222 N 
ATOM     34  H9  UNL     1     -38.683  23.435   7.255  1.00  0.00     0.198 HD
BRANCH  33  35
HETATM   35  O5  UNL     1     -39.203  24.173   9.107  1.00  0.00    -0.177 OA
BRANCH  35  36
HETATM   36  C13 UNL     1     -38.232  24.588  10.016  1.00  0.00     0.401 C 
HETATM   37  O6  UNL     1     -37.128  24.908   9.537  1.00  0.00    -0.235 OA
HETATM   38  N10 UNL     1     -38.497  24.638  11.397  1.00  0.00    -0.240 N 
ATOM     39  H10 UNL     1     -39.424  24.368  11.725  1.00  0.00     0.192 HD
BRANCH  38  40
HETATM   40  N11 UNL     1     -37.540  25.043  12.348  1.00  0.00    -0.246 N 
HETATM   41  C14 UNL     1     -37.112  24.033  13.245  1.00  0.00     0.353 C 
HETATM   42  O7  UNL     1     -37.525  22.859  13.215  1.00  0.00    -0.244 OA
HETATM   43  N12 UNL     1     -36.140  24.381  14.258  1.00  0.00    -0.251 N 
ATOM     44  H12 UNL     1     -35.776  25.331  14.319  1.00  0.00     0.191 HD
ATOM     45  H11 UNL     1     -37.180  25.996  12.389  1.00  0.00     0.192 HD
BRANCH  43  46
HETATM   46  N13 UNL     1     -35.734  23.466  15.093  1.00  0.00    -0.307 N 
HETATM   47  C15 UNL     1     -35.250  22.406  15.324  1.00  0.00     0.118 C 
ATOM     48  H13 UNL     1     -35.933  23.858  16.013  1.00  0.00     0.186 HD
BRANCH  47  49
HETATM   49  C16 UNL     1     -34.761  21.387  14.408  1.00  0.00    -0.014 A 
HETATM   50  C17 UNL     1     -33.912  21.780  13.358  1.00  0.00     0.052 A 
HETATM   51  C18 UNL     1     -33.411  20.876  12.453  1.00  0.00     0.104 A 
HETATM   52  C20 UNL     1     -33.770  19.564  12.608  1.00  0.00     0.133 A 
HETATM   53  C21 UNL     1     -34.605  19.098  13.620  1.00  0.00     0.104 A 
HETATM   54  C23 UNL     1     -35.083  20.053  14.506  1.00  0.00     0.052 A 
BRANCH  51  55
HETATM   55  O8  UNL     1     -32.563  21.274  11.405  1.00  0.00    -0.353 OA
HETATM   56  C19 UNL     1     -33.070  22.216  10.483  1.00  0.00     0.210 C 
ENDBRANCH  51  55
BRANCH  52  57
HETATM   57  O9  UNL     1     -33.284  18.633  11.716  1.00  0.00    -0.356 OA
ATOM     58  H9  UNL     1     -33.804  17.859  11.534  1.00  0.00     0.218 HD
ENDBRANCH  52  57
BRANCH  53  59
HETATM   59  O10 UNL     1     -34.937  17.789  13.737  1.00  0.00    -0.353 OA
HETATM   60  C22 UNL     1     -36.135  17.296  14.189  1.00  0.00     0.210 C 
ENDBRANCH  53  59
ENDBRANCH  47  49
ENDBRANCH  43  46
ENDBRANCH  38  40
ENDBRANCH  35  36
ENDBRANCH  33  35
ENDBRANCH   1  31
TORSDOF 18
ENDMDL
MODEL 5
REMARK VINA RESULT: -7.297357924      2.068      3.693
REMARK  18 active torsions:
REMARK  status: ('A' for Active; 'I' for Inactive)
REMARK    1  A    between atoms: C2_2  and  C3_3 
REMARK    2  A    between atoms: C3_3  and  C5_5 
REMARK    3  A    between atoms: C5_5  and  N1_6 
REMARK    4  A    between atoms: C5_5  and  C12_31 
REMARK    5  A    between atoms: N1_6  and  N2_8 
REMARK    6  A    between atoms: C8_13  and  N4_14 
REMARK    7  A    between atoms: C9_17  and  N5_18 
REMARK    8  A    between atoms: C10_21  and  N6_22 
REMARK    9  A    between atoms: N6_22  and  N7_24 
REMARK   10  A    between atoms: N7_24  and  O3_26 
REMARK       I    between atoms: C12_31  and  N9_33 
REMARK   11  A    between atoms: N9_33  and  O5_35 
REMARK   12  A    between atoms: O5_35  and  C13_36 
REMARK       I    between atoms: C13_36  and  N10_38 
REMARK   13  A    between atoms: N10_38  and  N11_40 
REMARK       I    between atoms: N11_40  and  C14_42 
REMARK       I    between atoms: C14_42  and  N12_44 
REMARK   14  A    between atoms: N12_44  and  N13_46 
REMARK   15  A    between atoms: C15_48  and  C16_49 
REMARK   16  A    between atoms: C18_51  and  O8_52 
REMARK   17  A    between atoms: C20_54  and  O9_55 
REMARK   18  A    between atoms: C21_57  and  O10_58 
ROOT
HETATM    1  C5  UNL     1     -36.798  23.362  13.968  1.00  0.00     0.197 C 
ENDROOT
BRANCH   1   2
HETATM    2  C3  UNL     1     -36.733  24.475  15.006  1.00  0.00     0.014 C 
HETATM    3  C4  UNL     1     -38.087  24.626  15.692  1.00  0.00     0.012 C 
BRANCH   2   4
HETATM    4  C2  UNL     1     -35.622  24.369  15.990  1.00  0.00     0.002 C 
HETATM    5  C1  UNL     1     -34.974  25.724  16.272  1.00  0.00     0.005 C 
ENDBRANCH   2   4
ENDBRANCH   1   2
BRANCH   1   6
HETATM    6  N1  UNL     1     -35.471  23.295  13.397  1.00  0.00    -0.313 N 
ATOM      7  H1  UNL     1     -34.745  23.005  14.052  1.00  0.00     0.181 HD
BRANCH   6   8
HETATM    8  N2  UNL     1     -35.022  23.550  12.135  1.00  0.00    -0.236 N 
HETATM    9  C6  UNL     1     -34.134  24.556  11.857  1.00  0.00     0.209 A 
HETATM   10  N3  UNL     1     -33.851  24.583  10.560  1.00  0.00    -0.346 N 
HETATM   11  C7  UNL     1     -34.537  23.605   9.955  1.00  0.00     0.108 A 
ATOM     12  H3  UNL     1     -33.218  25.238  10.101  1.00  0.00     0.167 HD
HETATM   13  C8  UNL     1     -34.617  23.175   8.647  1.00  0.00     0.094 A 
HETATM   14  C11 UNL     1     -35.271  22.959  10.963  1.00  0.00     0.158 A 
HETATM   15  C9  UNL     1     -35.428  22.107   8.371  1.00  0.00     0.176 A 
HETATM   16  C10 UNL     1     -36.152  21.460   9.344  1.00  0.00     0.159 A 
HETATM   17  N8  UNL     1     -36.049  21.912  10.625  1.00  0.00    -0.322 N 
ATOM     18  H8  UNL     1     -36.580  21.440  11.356  1.00  0.00     0.169 HD
BRANCH  13  19
HETATM   19  N4  UNL     1     -33.929  23.791   7.744  1.00  0.00    -0.395 N 
ATOM     20  H42 UNL     1     -33.254  24.525   7.961  1.00  0.00     0.156 HD
ATOM     21  H41 UNL     1     -34.063  23.538   6.765  1.00  0.00     0.156 HD
ENDBRANCH  13  19
BRANCH  15  22
HETATM   22  N5  UNL     1     -35.536  21.635   7.042  1.00  0.00    -0.109 N 
HETATM   23  O1  UNL     1     -36.536  21.978   6.364  1.00  0.00    -0.532 OA
HETATM   24  O2  UNL     1     -34.623  20.817   6.426  1.00  0.00    -0.532 OA
ENDBRANCH  15  22
BRANCH  16  25
HETATM   25  N6  UNL     1     -36.993  20.353   9.050  1.00  0.00    -0.264 N 
ATOM     26  H6  UNL     1     -37.937  20.494   8.692  1.00  0.00     0.190 HD
BRANCH  25  27
HETATM   27  N7  UNL     1     -36.491  19.065   9.266  1.00  0.00    -0.208 N 
ATOM     28  H7  UNL     1     -36.784  18.304   8.654  1.00  0.00     0.215 HD
BRANCH  27  29
HETATM   29  O3  UNL     1     -35.688  18.832  10.200  1.00  0.00    -0.274 OA
ATOM     30  H3  UNL     1     -35.963  18.359  10.977  1.00  0.00     0.246 HD
ENDBRANCH  27  29
ENDBRANCH  25  27
ENDBRANCH  16  25
ENDBRANCH   6   8
ENDBRANCH   1   6
BRANCH   1  31
HETATM   31  C12 UNL     1     -37.699  23.696  12.839  1.00  0.00     0.266 C 
HETATM   32  O4  UNL     1     -38.495  22.750  12.482  1.00  0.00    -0.269 OA
HETATM   33  N9  UNL     1     -37.820  24.868  12.112  1.00  0.00    -0.222 N 
ATOM     34  H9  UNL     1     -37.209  25.652  12.339  1.00  0.00     0.198 HD
BRANCH  33  35
HETATM   35  O5  UNL     1     -38.727  25.010  11.103  1.00  0.00    -0.177 OA
BRANCH  35  36
HETATM   36  C13 UNL     1     -38.561  24.594   9.784  1.00  0.00     0.401 C 
HETATM   37  O6  UNL     1     -37.730  25.226   9.106  1.00  0.00    -0.235 OA
HETATM   38  N10 UNL     1     -39.299  23.518   9.257  1.00  0.00    -0.240 N 
ATOM     39  H10 UNL     1     -39.961  23.038   9.867  1.00  0.00     0.192 HD
BRANCH  38  40
HETATM   40  N11 UNL     1     -39.167  23.074   7.927  1.00  0.00    -0.246 N 
HETATM   41  C14 UNL     1     -39.528  21.723   7.701  1.00  0.00     0.353 C 
HETATM   42  O7  UNL     1     -39.946  20.958   8.590  1.00  0.00    -0.244 OA
HETATM   43  N12 UNL     1     -39.405  21.193   6.360  1.00  0.00    -0.251 N 
ATOM     44  H12 UNL     1     -39.067  21.785   5.602  1.00  0.00     0.191 HD
ATOM     45  H11 UNL     1     -38.835  23.682   7.179  1.00  0.00     0.192 HD
BRANCH  43  46
HETATM   46  N13 UNL     1     -39.732  19.953   6.132  1.00  0.00    -0.307 N 
HETATM   47  C15 UNL     1     -40.538  19.115   5.888  1.00  0.00     0.118 C 
ATOM     48  H13 UNL     1     -38.850  19.444   6.196  1.00  0.00     0.186 HD
BRANCH  47  49
HETATM   49  C16 UNL     1     -41.973  19.235   5.683  1.00  0.00    -0.014 A 
HETATM   50  C17 UNL     1     -42.433  19.781   4.471  1.00  0.00     0.052 A 
HETATM   51  C18 UNL     1     -43.773  19.928   4.204  1.00  0.00     0.104 A 
HETATM   52  C20 UNL     1     -44.655  19.520   5.168  1.00  0.00     0.133 A 
HETATM   53  C21 UNL     1     -44.278  18.971   6.390  1.00  0.00     0.104 A 
HETATM   54  C23 UNL     1     -42.913  18.846   6.608  1.00  0.00     0.052 A 
BRANCH  51  55
HETATM   55  O8  UNL     1     -44.229  20.475   2.992  1.00  0.00    -0.353 OA
HETATM   56  C19 UNL     1     -43.481  21.539   2.439  1.00  0.00     0.210 C 
ENDBRANCH  51  55
BRANCH  52  57
HETATM   57  O9  UNL     1     -46.007  19.654   4.930  1.00  0.00    -0.356 OA
ATOM     58  H9  UNL     1     -46.597  19.717   5.671  1.00  0.00     0.218 HD
ENDBRANCH  52  57
BRANCH  53  59
HETATM   59  O10 UNL     1     -45.185  18.581   7.317  1.00  0.00    -0.353 OA
HETATM   60  C22 UNL     1     -44.905  18.005   8.531  1.00  0.00     0.210 C 
ENDBRANCH  53  59
ENDBRANCH  47  49
ENDBRANCH  43  46
ENDBRANCH  38  40
ENDBRANCH  35  36
ENDBRANCH  33  35
ENDBRANCH   1  31
TORSDOF 18
ENDMDL
