MODEL 1
REMARK VINA RESULT: -9.318879889      0.000      0.000
REMARK  17 active torsions:
REMARK  status: ('A' for Active; 'I' for Inactive)
REMARK    1  A    between atoms: C3_6  and  C4_7 
REMARK    2  A    between atoms: C6_10  and  C7_11 
REMARK    3  A    between atoms: C7_11  and  C8_12 
REMARK    4  A    between atoms: C7_11  and  C19_30 
REMARK    5  A    between atoms: C8_12  and  C9_13 
REMARK    6  A    between atoms: C9_13  and  C10_14 
REMARK    7  A    between atoms: C10_14  and  C11_15 
REMARK    8  A    between atoms: C11_15  and  C12_16 
REMARK    9  A    between atoms: C12_16  and  N2_17 
REMARK   10  A    between atoms: C13_18  and  C14_19 
REMARK   11  A    between atoms: C15_26  and  C16_27 
REMARK   12  A    between atoms: C19_30  and  S1_31 
REMARK   13  A    between atoms: S1_31  and  C20_32 
REMARK   14  A    between atoms: C23_40  and  N8_41 
REMARK   15  A    between atoms: C25_47  and  N10_48 
REMARK   16  A    between atoms: C26_55  and  O4_56 
REMARK   17  A    between atoms: C27_58  and  O5_59 
ROOT
HETATM    1  C7  UNL     1     -38.516  21.412   7.910  1.00  0.00     0.071 C 
ENDROOT
BRANCH   1   2
HETATM    2  C6  UNL     1     -37.492  20.578   8.589  1.00  0.00     0.128 A 
HETATM    3  O1  UNL     1     -37.661  19.284   8.804  1.00  0.00    -0.307 OA
HETATM    4  C5  UNL     1     -36.598  18.819   9.417  1.00  0.00     0.171 A 
HETATM    5  C4  UNL     1     -35.709  19.853   9.606  1.00  0.00     0.067 A 
HETATM    6  N12 UNL     1     -36.278  20.938   9.087  1.00  0.00    -0.340 N 
ATOM      7  H12 UNL     1     -35.875  21.874   9.066  1.00  0.00     0.167 HD
BRANCH   5   8
HETATM    8  C3  UNL     1     -34.392  19.702  10.268  1.00  0.00     0.268 C 
HETATM    9  N1  UNL     1     -34.109  20.876  11.072  1.00  0.00    -0.056 N 
HETATM   10  C2  UNL     1     -32.697  20.711  11.374  1.00  0.00     0.214 C 
ATOM     11  H12 UNL     1     -34.711  20.995  11.886  1.00  0.00     0.278 HD
ATOM     12  H11 UNL     1     -34.355  21.764  10.637  1.00  0.00     0.278 HD
HETATM   13  C1  UNL     1     -32.077  22.016  11.826  1.00  0.00     0.043 C 
HETATM   14  C27 UNL     1     -32.116  20.226  10.078  1.00  0.00     0.179 C 
HETATM   15  C26 UNL     1     -33.279  19.715   9.265  1.00  0.00     0.185 C 
BRANCH  14  16
HETATM   16  O5  UNL     1     -31.495  21.238   9.349  1.00  0.00    -0.391 OA
ATOM     17  H5  UNL     1     -30.552  21.141   9.311  1.00  0.00     0.210 HD
ENDBRANCH  14  16
BRANCH  15  18
HETATM   18  O4  UNL     1     -33.630  20.601   8.242  1.00  0.00    -0.390 OA
ATOM     19  H4  UNL     1     -33.740  20.099   7.443  1.00  0.00     0.210 HD
ENDBRANCH  15  18
ENDBRANCH   5   8
ENDBRANCH   1   2
BRANCH   1  20
HETATM   20  C8  UNL     1     -39.748  21.624   8.745  1.00  0.00     0.013 C 
BRANCH  20  21
HETATM   21  C9  UNL     1     -39.617  22.572   9.875  1.00  0.00     0.001 C 
BRANCH  21  22
HETATM   22  C10 UNL     1     -39.119  23.907   9.371  1.00  0.00     0.002 C 
BRANCH  22  23
HETATM   23  C11 UNL     1     -38.191  24.601  10.331  1.00  0.00     0.020 C 
BRANCH  23  24
HETATM   24  C12 UNL     1     -37.248  23.590  10.991  1.00  0.00     0.132 C 
BRANCH  24  25
HETATM   25  N2  UNL     1     -36.128  24.243  11.609  1.00  0.00    -0.315 N 
HETATM   26  C13 UNL     1     -34.964  24.578  11.014  1.00  0.00     0.202 A 
HETATM   27  N3  UNL     1     -34.219  25.167  12.000  1.00  0.00    -0.278 N 
HETATM   28  N4  UNL     1     -34.901  25.182  13.124  1.00  0.00    -0.287 N 
ATOM     29  H3  UNL     1     -33.276  25.538  11.881  1.00  0.00     0.189 HD
HETATM   30  C15 UNL     1     -36.091  24.618  12.922  1.00  0.00     0.104 A 
ATOM     31  H4  UNL     1     -34.572  25.565  14.011  1.00  0.00     0.188 HD
BRANCH  26  32
HETATM   32  C14 UNL     1     -34.549  24.382   9.630  1.00  0.00     0.246 C 
HETATM   33  O2  UNL     1     -34.623  25.293   8.780  1.00  0.00    -0.642 OA
HETATM   34  O3  UNL     1     -34.057  23.150   9.236  1.00  0.00    -0.642 OA
ENDBRANCH  26  32
BRANCH  30  35
HETATM   35  C16 UNL     1     -37.187  24.425  13.917  1.00  0.00     0.055 A 
HETATM   36  C17 UNL     1     -36.845  24.133  15.330  1.00  0.00     0.013 A 
HETATM   37  C18 UNL     1     -37.228  23.005  14.472  1.00  0.00     0.013 A 
ENDBRANCH  30  35
ENDBRANCH  24  25
ENDBRANCH  23  24
ENDBRANCH  22  23
ENDBRANCH  21  22
ENDBRANCH  20  21
ENDBRANCH   1  20
BRANCH   1  38
HETATM   38  C19 UNL     1     -38.779  20.806   6.579  1.00  0.00     0.095 C 
BRANCH  38  39
HETATM   39  S1  UNL     1     -39.732  19.285   6.658  1.00  0.00    -0.093 SA
BRANCH  39  40
HETATM   40  C20 UNL     1     -41.349  19.428   5.933  1.00  0.00     0.146 A 
HETATM   41  N5  UNL     1     -42.439  18.997   6.603  1.00  0.00    -0.332 N 
HETATM   42  C21 UNL     1     -43.690  19.068   6.160  1.00  0.00     0.107 A 
ATOM     43  H5  UNL     1     -42.290  18.585   7.524  1.00  0.00     0.168 HD
HETATM   44  C22 UNL     1     -44.757  18.612   6.892  1.00  0.00     0.161 A 
HETATM   45  C24 UNL     1     -43.878  19.638   4.895  1.00  0.00     0.122 A 
HETATM   46  N6  UNL     1     -44.550  18.039   8.168  1.00  0.00    -0.080 NA
HETATM   47  N7  UNL     1     -45.991  18.710   6.395  1.00  0.00    -0.177 N 
HETATM   48  C23 UNL     1     -46.181  19.261   5.171  1.00  0.00     0.677 A 
ATOM     49  H7  UNL     1     -46.789  18.373   6.934  1.00  0.00     0.185 HD
HETATM   50  N9  UNL     1     -45.142  19.711   4.449  1.00  0.00    -0.186 N 
ATOM     51  H9  UNL     1     -45.319  20.120   3.531  1.00  0.00     0.184 HD
HETATM   52  C25 UNL     1     -42.801  20.087   4.182  1.00  0.00     0.131 A 
HETATM   53  N11 UNL     1     -41.565  19.967   4.725  1.00  0.00    -0.321 N 
ATOM     54  H11 UNL     1     -40.763  20.303   4.190  1.00  0.00     0.169 HD
BRANCH  48  55
HETATM   55  N8  UNL     1     -47.405  19.324   4.753  1.00  0.00    -0.234 N 
ATOM     56  H82 UNL     1     -48.202  19.379   5.387  1.00  0.00     0.174 HD
ATOM     57  H81 UNL     1     -47.538  19.317   3.742  1.00  0.00     0.174 HD
ENDBRANCH  48  55
BRANCH  52  58
HETATM   58  N10 UNL     1     -42.996  20.609   3.021  1.00  0.00    -0.383 N 
ATOM     59 2H10 UNL     1     -43.811  21.185   2.812  1.00  0.00     0.157 HD
ATOM     60 1H10 UNL     1     -42.312  20.441   2.283  1.00  0.00     0.157 HD
ENDBRANCH  52  58
ENDBRANCH  39  40
ENDBRANCH  38  39
ENDBRANCH   1  38
TORSDOF 17
ENDMDL
MODEL 2
REMARK VINA RESULT: -9.124223589      3.789      6.120
REMARK  17 active torsions:
REMARK  status: ('A' for Active; 'I' for Inactive)
REMARK    1  A    between atoms: C3_6  and  C4_7 
REMARK    2  A    between atoms: C6_10  and  C7_11 
REMARK    3  A    between atoms: C7_11  and  C8_12 
REMARK    4  A    between atoms: C7_11  and  C19_30 
REMARK    5  A    between atoms: C8_12  and  C9_13 
REMARK    6  A    between atoms: C9_13  and  C10_14 
REMARK    7  A    between atoms: C10_14  and  C11_15 
REMARK    8  A    between atoms: C11_15  and  C12_16 
REMARK    9  A    between atoms: C12_16  and  N2_17 
REMARK   10  A    between atoms: C13_18  and  C14_19 
REMARK   11  A    between atoms: C15_26  and  C16_27 
REMARK   12  A    between atoms: C19_30  and  S1_31 
REMARK   13  A    between atoms: S1_31  and  C20_32 
REMARK   14  A    between atoms: C23_40  and  N8_41 
REMARK   15  A    between atoms: C25_47  and  N10_48 
REMARK   16  A    between atoms: C26_55  and  O4_56 
REMARK   17  A    between atoms: C27_58  and  O5_59 
ROOT
HETATM    1  C7  UNL     1     -39.776  22.475   6.415  1.00  0.00     0.071 C 
ENDROOT
BRANCH   1   2
HETATM    2  C6  UNL     1     -40.088  23.107   5.108  1.00  0.00     0.128 A 
HETATM    3  O1  UNL     1     -40.279  22.399   4.007  1.00  0.00    -0.307 OA
HETATM    4  C5  UNL     1     -40.535  23.223   3.018  1.00  0.00     0.171 A 
HETATM    5  C4  UNL     1     -40.507  24.513   3.500  1.00  0.00     0.067 A 
HETATM    6  N12 UNL     1     -40.229  24.424   4.798  1.00  0.00    -0.340 N 
ATOM      7  H12 UNL     1     -40.138  25.206   5.446  1.00  0.00     0.167 HD
BRANCH   5   8
HETATM    8  C3  UNL     1     -40.754  25.713   2.666  1.00  0.00     0.268 C 
HETATM    9  N1  UNL     1     -40.290  26.898   3.362  1.00  0.00    -0.056 N 
HETATM   10  C2  UNL     1     -40.882  27.969   2.579  1.00  0.00     0.214 C 
ATOM     11  H12 UNL     1     -39.279  26.960   3.479  1.00  0.00     0.278 HD
ATOM     12  H11 UNL     1     -40.506  26.923   4.358  1.00  0.00     0.278 HD
HETATM   13  C1  UNL     1     -40.903  29.269   3.354  1.00  0.00     0.043 C 
HETATM   14  C27 UNL     1     -42.264  27.463   2.282  1.00  0.00     0.179 C 
HETATM   15  C26 UNL     1     -42.222  25.973   2.516  1.00  0.00     0.185 C 
BRANCH  14  16
HETATM   16  O5  UNL     1     -43.232  28.002   3.127  1.00  0.00    -0.391 OA
ATOM     17  H5  UNL     1     -43.832  27.349   3.465  1.00  0.00     0.210 HD
ENDBRANCH  14  16
BRANCH  15  18
HETATM   18  O4  UNL     1     -42.849  25.616   3.714  1.00  0.00    -0.390 OA
ATOM     19  H4  UNL     1     -43.753  25.905   3.670  1.00  0.00     0.210 HD
ENDBRANCH  15  18
ENDBRANCH   5   8
ENDBRANCH   1   2
BRANCH   1  20
HETATM   20  C8  UNL     1     -39.095  23.412   7.373  1.00  0.00     0.013 C 
BRANCH  20  21
HETATM   21  C9  UNL     1     -38.993  22.952   8.777  1.00  0.00     0.001 C 
BRANCH  21  22
HETATM   22  C10 UNL     1     -39.267  24.104   9.716  1.00  0.00     0.002 C 
BRANCH  22  23
HETATM   23  C11 UNL     1     -38.017  24.747  10.254  1.00  0.00     0.020 C 
BRANCH  23  24
HETATM   24  C12 UNL     1     -37.139  23.708  10.959  1.00  0.00     0.132 C 
BRANCH  24  25
HETATM   25  N2  UNL     1     -36.057  24.331  11.669  1.00  0.00    -0.315 N 
HETATM   26  C13 UNL     1     -34.839  24.632  11.174  1.00  0.00     0.202 A 
HETATM   27  N3  UNL     1     -34.163  25.201  12.219  1.00  0.00    -0.278 N 
HETATM   28  N4  UNL     1     -34.936  25.237  13.282  1.00  0.00    -0.287 N 
ATOM     29  H3  UNL     1     -33.203  25.545  12.180  1.00  0.00     0.189 HD
HETATM   30  C15 UNL     1     -36.120  24.707  12.981  1.00  0.00     0.104 A 
ATOM     31  H4  UNL     1     -34.672  25.612  14.194  1.00  0.00     0.188 HD
BRANCH  26  32
HETATM   32  C14 UNL     1     -34.315  24.422   9.830  1.00  0.00     0.246 C 
HETATM   33  O2  UNL     1     -34.694  25.105   8.856  1.00  0.00    -0.642 OA
HETATM   34  O3  UNL     1     -33.368  23.436   9.616  1.00  0.00    -0.642 OA
ENDBRANCH  26  32
BRANCH  30  35
HETATM   35  C16 UNL     1     -37.301  24.546  13.880  1.00  0.00     0.055 A 
HETATM   36  C17 UNL     1     -37.088  24.359  15.336  1.00  0.00     0.013 A 
HETATM   37  C18 UNL     1     -37.360  23.165  14.525  1.00  0.00     0.013 A 
ENDBRANCH  30  35
ENDBRANCH  24  25
ENDBRANCH  23  24
ENDBRANCH  22  23
ENDBRANCH  21  22
ENDBRANCH  20  21
ENDBRANCH   1  20
BRANCH   1  38
HETATM   38  C19 UNL     1     -39.019  21.226   6.142  1.00  0.00     0.095 C 
BRANCH  38  39
HETATM   39  S1  UNL     1     -39.939  19.731   6.528  1.00  0.00    -0.093 SA
BRANCH  39  40
HETATM   40  C20 UNL     1     -41.576  19.712   5.835  1.00  0.00     0.146 A 
HETATM   41  N5  UNL     1     -42.613  19.219   6.546  1.00  0.00    -0.332 N 
HETATM   42  C21 UNL     1     -43.874  19.169   6.130  1.00  0.00     0.107 A 
ATOM     43  H5  UNL     1     -42.412  18.856   7.478  1.00  0.00     0.168 HD
HETATM   44  C22 UNL     1     -44.885  18.655   6.902  1.00  0.00     0.161 A 
HETATM   45  C24 UNL     1     -44.134  19.673   4.849  1.00  0.00     0.122 A 
HETATM   46  N6  UNL     1     -44.606  18.150   8.193  1.00  0.00    -0.080 NA
HETATM   47  N7  UNL     1     -46.132  18.632   6.430  1.00  0.00    -0.177 N 
HETATM   48  C23 UNL     1     -46.391  19.118   5.192  1.00  0.00     0.677 A 
ATOM     49  H7  UNL     1     -46.888  18.251   6.999  1.00  0.00     0.185 HD
HETATM   50  N9  UNL     1     -45.408  19.624   4.429  1.00  0.00    -0.186 N 
ATOM     51  H9  UNL     1     -45.637  19.982   3.502  1.00  0.00     0.184 HD
HETATM   52  C25 UNL     1     -43.112  20.182   4.095  1.00  0.00     0.131 A 
HETATM   53  N11 UNL     1     -41.860  20.185   4.614  1.00  0.00    -0.321 N 
ATOM     54  H11 UNL     1     -41.100  20.565   4.049  1.00  0.00     0.169 HD
BRANCH  48  55
HETATM   55  N8  UNL     1     -47.624  19.064   4.799  1.00  0.00    -0.234 N 
ATOM     56  H82 UNL     1     -48.137  18.187   4.714  1.00  0.00     0.174 HD
ATOM     57  H81 UNL     1     -48.068  19.955   4.575  1.00  0.00     0.174 HD
ENDBRANCH  48  55
BRANCH  52  58
HETATM   58  N10 UNL     1     -43.373  20.641   2.921  1.00  0.00    -0.383 N 
ATOM     59 2H10 UNL     1     -43.570  20.030   2.128  1.00  0.00     0.157 HD
ATOM     60 1H10 UNL     1     -43.382  21.650   2.777  1.00  0.00     0.157 HD
ENDBRANCH  52  58
ENDBRANCH  39  40
ENDBRANCH  38  39
ENDBRANCH   1  38
TORSDOF 17
ENDMDL
MODEL 3
REMARK VINA RESULT: -9.050606621      4.064      6.544
REMARK  17 active torsions:
REMARK  status: ('A' for Active; 'I' for Inactive)
REMARK    1  A    between atoms: C3_6  and  C4_7 
REMARK    2  A    between atoms: C6_10  and  C7_11 
REMARK    3  A    between atoms: C7_11  and  C8_12 
REMARK    4  A    between atoms: C7_11  and  C19_30 
REMARK    5  A    between atoms: C8_12  and  C9_13 
REMARK    6  A    between atoms: C9_13  and  C10_14 
REMARK    7  A    between atoms: C10_14  and  C11_15 
REMARK    8  A    between atoms: C11_15  and  C12_16 
REMARK    9  A    between atoms: C12_16  and  N2_17 
REMARK   10  A    between atoms: C13_18  and  C14_19 
REMARK   11  A    between atoms: C15_26  and  C16_27 
REMARK   12  A    between atoms: C19_30  and  S1_31 
REMARK   13  A    between atoms: S1_31  and  C20_32 
REMARK   14  A    between atoms: C23_40  and  N8_41 
REMARK   15  A    between atoms: C25_47  and  N10_48 
REMARK   16  A    between atoms: C26_55  and  O4_56 
REMARK   17  A    between atoms: C27_58  and  O5_59 
ROOT
HETATM    1  C7  UNL     1     -39.738  22.521   6.469  1.00  0.00     0.071 C 
ENDROOT
BRANCH   1   2
HETATM    2  C6  UNL     1     -40.064  23.134   5.157  1.00  0.00     0.128 A 
HETATM    3  O1  UNL     1     -40.258  22.410   4.066  1.00  0.00    -0.307 OA
HETATM    4  C5  UNL     1     -40.527  23.220   3.069  1.00  0.00     0.171 A 
HETATM    5  C4  UNL     1     -40.505  24.516   3.533  1.00  0.00     0.067 A 
HETATM    6  N12 UNL     1     -40.217  24.446   4.830  1.00  0.00    -0.340 N 
ATOM      7  H12 UNL     1     -40.126  25.237   5.467  1.00  0.00     0.167 HD
BRANCH   5   8
HETATM    8  C3  UNL     1     -40.766  25.703   2.686  1.00  0.00     0.268 C 
HETATM    9  N1  UNL     1     -40.306  26.900   3.363  1.00  0.00    -0.056 N 
HETATM   10  C2  UNL     1     -40.911  27.957   2.571  1.00  0.00     0.214 C 
ATOM     11  H12 UNL     1     -39.294  26.971   3.472  1.00  0.00     0.278 HD
ATOM     12  H11 UNL     1     -40.515  26.937   4.360  1.00  0.00     0.278 HD
HETATM   13  C1  UNL     1     -40.935  29.267   3.329  1.00  0.00     0.043 C 
HETATM   14  C27 UNL     1     -42.292  27.438   2.291  1.00  0.00     0.179 C 
HETATM   15  C26 UNL     1     -42.237  25.951   2.544  1.00  0.00     0.185 C 
BRANCH  14  16
HETATM   16  O5  UNL     1     -43.257  27.982   3.136  1.00  0.00    -0.391 OA
ATOM     17  H5  UNL     1     -42.882  28.453   3.869  1.00  0.00     0.210 HD
ENDBRANCH  14  16
BRANCH  15  18
HETATM   18  O4  UNL     1     -42.852  25.605   3.751  1.00  0.00    -0.390 OA
ATOM     19  H4  UNL     1     -43.696  26.043   3.787  1.00  0.00     0.210 HD
ENDBRANCH  15  18
ENDBRANCH   5   8
ENDBRANCH   1   2
BRANCH   1  20
HETATM   20  C8  UNL     1     -39.033  23.468   7.400  1.00  0.00     0.013 C 
BRANCH  20  21
HETATM   21  C9  UNL     1     -38.736  22.951   8.756  1.00  0.00     0.001 C 
BRANCH  21  22
HETATM   22  C10 UNL     1     -39.352  23.856   9.797  1.00  0.00     0.002 C 
BRANCH  22  23
HETATM   23  C11 UNL     1     -38.335  24.587  10.632  1.00  0.00     0.020 C 
BRANCH  23  24
HETATM   24  C12 UNL     1     -37.662  23.628  11.620  1.00  0.00     0.132 C 
BRANCH  24  25
HETATM   25  N2  UNL     1     -36.456  24.192  12.159  1.00  0.00    -0.315 N 
HETATM   26  C13 UNL     1     -36.294  24.710  13.395  1.00  0.00     0.202 A 
HETATM   27  N3  UNL     1     -34.989  25.120  13.437  1.00  0.00    -0.278 N 
HETATM   28  N4  UNL     1     -34.403  24.861  12.289  1.00  0.00    -0.287 N 
ATOM     29  H3  UNL     1     -34.538  25.561  14.240  1.00  0.00     0.189 HD
HETATM   30  C15 UNL     1     -35.281  24.285  11.470  1.00  0.00     0.104 A 
ATOM     31  H4  UNL     1     -33.431  25.069  12.061  1.00  0.00     0.188 HD
BRANCH  26  32
HETATM   32  C14 UNL     1     -37.262  24.824  14.478  1.00  0.00     0.246 C 
HETATM   33  O2  UNL     1     -37.951  25.852  14.648  1.00  0.00    -0.642 OA
HETATM   34  O3  UNL     1     -37.431  23.765  15.353  1.00  0.00    -0.642 OA
ENDBRANCH  26  32
BRANCH  30  35
HETATM   35  C16 UNL     1     -35.050  23.819  10.070  1.00  0.00     0.055 A 
HETATM   36  C17 UNL     1     -33.752  24.105   9.412  1.00  0.00     0.013 A 
HETATM   37  C18 UNL     1     -34.889  24.976   9.089  1.00  0.00     0.013 A 
ENDBRANCH  30  35
ENDBRANCH  24  25
ENDBRANCH  23  24
ENDBRANCH  22  23
ENDBRANCH  21  22
ENDBRANCH  20  21
ENDBRANCH   1  20
BRANCH   1  38
HETATM   38  C19 UNL     1     -38.997  21.261   6.205  1.00  0.00     0.095 C 
BRANCH  38  39
HETATM   39  S1  UNL     1     -39.929  19.781   6.619  1.00  0.00    -0.093 SA
BRANCH  39  40
HETATM   40  C20 UNL     1     -41.556  19.751   5.905  1.00  0.00     0.146 A 
HETATM   41  N5  UNL     1     -42.599  19.250   6.603  1.00  0.00    -0.332 N 
HETATM   42  C21 UNL     1     -43.855  19.192   6.170  1.00  0.00     0.107 A 
ATOM     43  H5  UNL     1     -42.408  18.888   7.536  1.00  0.00     0.168 HD
HETATM   44  C22 UNL     1     -44.871  18.670   6.929  1.00  0.00     0.161 A 
HETATM   45  C24 UNL     1     -44.101  19.695   4.886  1.00  0.00     0.122 A 
HETATM   46  N6  UNL     1     -44.605  18.167   8.223  1.00  0.00    -0.080 NA
HETATM   47  N7  UNL     1     -46.112  18.639   6.441  1.00  0.00    -0.177 N 
HETATM   48  C23 UNL     1     -46.359  19.124   5.200  1.00  0.00     0.677 A 
ATOM     49  H7  UNL     1     -46.873  18.252   7.000  1.00  0.00     0.185 HD
HETATM   50  N9  UNL     1     -45.369  19.637   4.450  1.00  0.00    -0.186 N 
ATOM     51  H9  UNL     1     -45.589  19.994   3.520  1.00  0.00     0.184 HD
HETATM   52  C25 UNL     1     -43.074  20.211   4.146  1.00  0.00     0.131 A 
HETATM   53  N11 UNL     1     -41.828  20.223   4.681  1.00  0.00    -0.321 N 
ATOM     54  H11 UNL     1     -41.064  20.609   4.126  1.00  0.00     0.169 HD
BRANCH  48  55
HETATM   55  N8  UNL     1     -47.587  19.062   4.791  1.00  0.00    -0.234 N 
ATOM     56  H82 UNL     1     -48.356  19.510   5.288  1.00  0.00     0.174 HD
ATOM     57  H81 UNL     1     -47.752  18.533   3.935  1.00  0.00     0.174 HD
ENDBRANCH  48  55
BRANCH  52  58
HETATM   58  N10 UNL     1     -43.322  20.669   2.969  1.00  0.00    -0.383 N 
ATOM     59 2H10 UNL     1     -42.653  21.240   2.453  1.00  0.00     0.157 HD
ATOM     60 1H10 UNL     1     -44.221  20.456   2.536  1.00  0.00     0.157 HD
ENDBRANCH  52  58
ENDBRANCH  39  40
ENDBRANCH  38  39
ENDBRANCH   1  38
TORSDOF 17
ENDMDL
MODEL 4
REMARK VINA RESULT: -8.978037760      4.029      6.673
REMARK  17 active torsions:
REMARK  status: ('A' for Active; 'I' for Inactive)
REMARK    1  A    between atoms: C3_6  and  C4_7 
REMARK    2  A    between atoms: C6_10  and  C7_11 
REMARK    3  A    between atoms: C7_11  and  C8_12 
REMARK    4  A    between atoms: C7_11  and  C19_30 
REMARK    5  A    between atoms: C8_12  and  C9_13 
REMARK    6  A    between atoms: C9_13  and  C10_14 
REMARK    7  A    between atoms: C10_14  and  C11_15 
REMARK    8  A    between atoms: C11_15  and  C12_16 
REMARK    9  A    between atoms: C12_16  and  N2_17 
REMARK   10  A    between atoms: C13_18  and  C14_19 
REMARK   11  A    between atoms: C15_26  and  C16_27 
REMARK   12  A    between atoms: C19_30  and  S1_31 
REMARK   13  A    between atoms: S1_31  and  C20_32 
REMARK   14  A    between atoms: C23_40  and  N8_41 
REMARK   15  A    between atoms: C25_47  and  N10_48 
REMARK   16  A    between atoms: C26_55  and  O4_56 
REMARK   17  A    between atoms: C27_58  and  O5_59 
ROOT
HETATM    1  C7  UNL     1     -39.802  22.422   6.385  1.00  0.00     0.071 C 
ENDROOT
BRANCH   1   2
HETATM    2  C6  UNL     1     -40.114  23.065   5.083  1.00  0.00     0.128 A 
HETATM    3  O1  UNL     1     -40.325  22.365   3.981  1.00  0.00    -0.307 OA
HETATM    4  C5  UNL     1     -40.575  23.198   2.998  1.00  0.00     0.171 A 
HETATM    5  C4  UNL     1     -40.521  24.485   3.484  1.00  0.00     0.067 A 
HETATM    6  N12 UNL     1     -40.235  24.385   4.779  1.00  0.00    -0.340 N 
ATOM      7  H12 UNL     1     -40.125  25.163   5.430  1.00  0.00     0.167 HD
BRANCH   5   8
HETATM    8  C3  UNL     1     -40.753  25.692   2.657  1.00  0.00     0.268 C 
HETATM    9  N1  UNL     1     -40.277  26.868   3.361  1.00  0.00    -0.056 N 
HETATM   10  C2  UNL     1     -40.857  27.951   2.584  1.00  0.00     0.214 C 
ATOM     11  H12 UNL     1     -39.265  26.918   3.479  1.00  0.00     0.278 HD
ATOM     12  H11 UNL     1     -40.494  26.890   4.357  1.00  0.00     0.278 HD
HETATM   13  C1  UNL     1     -40.863  29.246   3.367  1.00  0.00     0.043 C 
HETATM   14  C27 UNL     1     -42.244  27.462   2.283  1.00  0.00     0.179 C 
HETATM   15  C26 UNL     1     -42.218  25.970   2.508  1.00  0.00     0.185 C 
BRANCH  14  16
HETATM   16  O5  UNL     1     -43.206  28.007   3.130  1.00  0.00    -0.391 OA
ATOM     17  H5  UNL     1     -43.215  28.957   3.116  1.00  0.00     0.210 HD
ENDBRANCH  14  16
BRANCH  15  18
HETATM   18  O4  UNL     1     -42.850  25.613   3.703  1.00  0.00    -0.390 OA
ATOM     19  H4  UNL     1     -42.870  26.379   4.265  1.00  0.00     0.210 HD
ENDBRANCH  15  18
ENDBRANCH   5   8
ENDBRANCH   1   2
BRANCH   1  20
HETATM   20  C8  UNL     1     -39.104  23.345   7.344  1.00  0.00     0.013 C 
BRANCH  20  21
HETATM   21  C9  UNL     1     -39.534  23.266   8.758  1.00  0.00     0.001 C 
BRANCH  21  22
HETATM   22  C10 UNL     1     -38.452  22.617   9.589  1.00  0.00     0.002 C 
BRANCH  22  23
HETATM   23  C11 UNL     1     -37.269  23.514   9.838  1.00  0.00     0.020 C 
BRANCH  23  24
HETATM   24  C12 UNL     1     -36.014  22.681  10.119  1.00  0.00     0.132 C 
BRANCH  24  25
HETATM   25  N2  UNL     1     -34.911  23.102   9.300  1.00  0.00    -0.315 N 
HETATM   26  C13 UNL     1     -33.837  23.813   9.701  1.00  0.00     0.202 A 
HETATM   27  N3  UNL     1     -33.075  23.969   8.575  1.00  0.00    -0.278 N 
HETATM   28  N4  UNL     1     -33.664  23.383   7.555  1.00  0.00    -0.287 N 
ATOM     29  H3  UNL     1     -32.185  24.465   8.533  1.00  0.00     0.189 HD
HETATM   30  C15 UNL     1     -34.805  22.834   7.965  1.00  0.00     0.104 A 
ATOM     31  H4  UNL     1     -33.303  23.354   6.601  1.00  0.00     0.188 HD
BRANCH  26  32
HETATM   32  C14 UNL     1     -33.513  24.319  11.029  1.00  0.00     0.246 C 
HETATM   33  O2  UNL     1     -33.843  25.464  11.402  1.00  0.00    -0.642 OA
HETATM   34  O3  UNL     1     -32.818  23.512  11.913  1.00  0.00    -0.642 OA
ENDBRANCH  26  32
BRANCH  30  35
HETATM   35  C16 UNL     1     -35.791  22.067   7.147  1.00  0.00     0.055 A 
HETATM   36  C17 UNL     1     -36.013  20.629   7.433  1.00  0.00     0.013 A 
HETATM   37  C18 UNL     1     -35.132  20.975   6.310  1.00  0.00     0.013 A 
ENDBRANCH  30  35
ENDBRANCH  24  25
ENDBRANCH  23  24
ENDBRANCH  22  23
ENDBRANCH  21  22
ENDBRANCH  20  21
ENDBRANCH   1  20
BRANCH   1  38
HETATM   38  C19 UNL     1     -39.063  21.165   6.101  1.00  0.00     0.095 C 
BRANCH  38  39
HETATM   39  S1  UNL     1     -39.995  19.680   6.492  1.00  0.00    -0.093 SA
BRANCH  39  40
HETATM   40  C20 UNL     1     -41.637  19.680   5.812  1.00  0.00     0.146 A 
HETATM   41  N5  UNL     1     -42.673  19.188   6.527  1.00  0.00    -0.332 N 
HETATM   42  C21 UNL     1     -43.938  19.152   6.120  1.00  0.00     0.107 A 
ATOM     43  H5  UNL     1     -42.467  18.815   7.453  1.00  0.00     0.168 HD
HETATM   44  C22 UNL     1     -44.946  18.638   6.896  1.00  0.00     0.161 A 
HETATM   45  C24 UNL     1     -44.203  19.669   4.846  1.00  0.00     0.122 A 
HETATM   46  N6  UNL     1     -44.661  18.121   8.180  1.00  0.00    -0.080 NA
HETATM   47  N7  UNL     1     -46.197  18.630   6.434  1.00  0.00    -0.177 N 
HETATM   48  C23 UNL     1     -46.462  19.129   5.202  1.00  0.00     0.677 A 
ATOM     49  H7  UNL     1     -46.951  18.249   7.006  1.00  0.00     0.185 HD
HETATM   50  N9  UNL     1     -45.481  19.633   4.436  1.00  0.00    -0.186 N 
ATOM     51  H9  UNL     1     -45.715  20.002   3.514  1.00  0.00     0.184 HD
HETATM   52  C25 UNL     1     -43.184  20.177   4.089  1.00  0.00     0.131 A 
HETATM   53  N11 UNL     1     -41.928  20.166   4.598  1.00  0.00    -0.321 N 
ATOM     54  H11 UNL     1     -41.169  20.545   4.030  1.00  0.00     0.169 HD
BRANCH  48  55
HETATM   55  N8  UNL     1     -47.699  19.087   4.819  1.00  0.00    -0.234 N 
ATOM     56  H82 UNL     1     -48.014  18.517   4.035  1.00  0.00     0.174 HD
ATOM     57  H81 UNL     1     -48.356  19.662   5.346  1.00  0.00     0.174 HD
ENDBRANCH  48  55
BRANCH  52  58
HETATM   58  N10 UNL     1     -43.450  20.648   2.921  1.00  0.00    -0.383 N 
ATOM     59 2H10 UNL     1     -43.280  20.118   2.067  1.00  0.00     0.157 HD
ATOM     60 1H10 UNL     1     -43.845  21.586   2.845  1.00  0.00     0.157 HD
ENDBRANCH  52  58
ENDBRANCH  39  40
ENDBRANCH  38  39
ENDBRANCH   1  38
TORSDOF 17
ENDMDL
MODEL 5
REMARK VINA RESULT: -8.934254952      1.350      1.611
REMARK  17 active torsions:
REMARK  status: ('A' for Active; 'I' for Inactive)
REMARK    1  A    between atoms: C3_6  and  C4_7 
REMARK    2  A    between atoms: C6_10  and  C7_11 
REMARK    3  A    between atoms: C7_11  and  C8_12 
REMARK    4  A    between atoms: C7_11  and  C19_30 
REMARK    5  A    between atoms: C8_12  and  C9_13 
REMARK    6  A    between atoms: C9_13  and  C10_14 
REMARK    7  A    between atoms: C10_14  and  C11_15 
REMARK    8  A    between atoms: C11_15  and  C12_16 
REMARK    9  A    between atoms: C12_16  and  N2_17 
REMARK   10  A    between atoms: C13_18  and  C14_19 
REMARK   11  A    between atoms: C15_26  and  C16_27 
REMARK   12  A    between atoms: C19_30  and  S1_31 
REMARK   13  A    between atoms: S1_31  and  C20_32 
REMARK   14  A    between atoms: C23_40  and  N8_41 
REMARK   15  A    between atoms: C25_47  and  N10_48 
REMARK   16  A    between atoms: C26_55  and  O4_56 
REMARK   17  A    between atoms: C27_58  and  O5_59 
ROOT
HETATM    1  C7  UNL     1     -38.470  22.212   7.952  1.00  0.00     0.071 C 
ENDROOT
BRANCH   1   2
HETATM    2  C6  UNL     1     -37.089  21.791   7.605  1.00  0.00     0.128 A 
HETATM    3  O1  UNL     1     -36.709  21.567   6.358  1.00  0.00    -0.307 OA
HETATM    4  C5  UNL     1     -35.445  21.211   6.363  1.00  0.00     0.171 A 
HETATM    5  C4  UNL     1     -34.993  21.205   7.663  1.00  0.00     0.067 A 
HETATM    6  N12 UNL     1     -36.024  21.566   8.422  1.00  0.00    -0.340 N 
ATOM      7  H12 UNL     1     -36.017  21.659   9.437  1.00  0.00     0.167 HD
BRANCH   5   8
HETATM    8  C3  UNL     1     -33.608  20.852   8.055  1.00  0.00     0.268 C 
HETATM    9  N1  UNL     1     -33.549  20.612   9.484  1.00  0.00    -0.056 N 
HETATM   10  C2  UNL     1     -32.119  20.603   9.739  1.00  0.00     0.214 C 
ATOM     11  H12 UNL     1     -34.047  19.781   9.802  1.00  0.00     0.278 HD
ATOM     12  H11 UNL     1     -34.083  21.269  10.053  1.00  0.00     0.278 HD
HETATM   13  C1  UNL     1     -31.821  20.804  11.209  1.00  0.00     0.043 C 
HETATM   14  C27 UNL     1     -31.605  21.734   8.895  1.00  0.00     0.179 C 
HETATM   15  C26 UNL     1     -32.685  22.020   7.880  1.00  0.00     0.185 C 
BRANCH  14  16
HETATM   16  O5  UNL     1     -31.386  22.899   9.627  1.00  0.00    -0.391 OA
ATOM     17  H5  UNL     1     -32.187  23.369   9.823  1.00  0.00     0.210 HD
ENDBRANCH  14  16
BRANCH  15  18
HETATM   18  O4  UNL     1     -33.396  23.183   8.189  1.00  0.00    -0.390 OA
ATOM     19  H4  UNL     1     -34.079  23.292   7.538  1.00  0.00     0.210 HD
ENDBRANCH  15  18
ENDBRANCH   5   8
ENDBRANCH   1   2
BRANCH   1  20
HETATM   20  C8  UNL     1     -38.957  21.621   9.245  1.00  0.00     0.013 C 
BRANCH  20  21
HETATM   21  C9  UNL     1     -39.120  22.564  10.375  1.00  0.00     0.001 C 
BRANCH  21  22
HETATM   22  C10 UNL     1     -38.928  23.983   9.892  1.00  0.00     0.002 C 
BRANCH  22  23
HETATM   23  C11 UNL     1     -37.960  24.774  10.730  1.00  0.00     0.020 C 
BRANCH  23  24
HETATM   24  C12 UNL     1     -37.601  24.005  12.005  1.00  0.00     0.132 C 
BRANCH  24  25
HETATM   25  N2  UNL     1     -36.498  24.617  12.694  1.00  0.00    -0.315 N 
HETATM   26  C13 UNL     1     -35.229  24.718  12.248  1.00  0.00     0.202 A 
HETATM   27  N3  UNL     1     -34.554  25.367  13.246  1.00  0.00    -0.278 N 
HETATM   28  N4  UNL     1     -35.377  25.639  14.236  1.00  0.00    -0.287 N 
ATOM     29  H3  UNL     1     -33.562  25.604  13.226  1.00  0.00     0.189 HD
HETATM   30  C15 UNL     1     -36.592  25.189  13.930  1.00  0.00     0.104 A 
ATOM     31  H4  UNL     1     -35.124  26.118  15.100  1.00  0.00     0.188 HD
BRANCH  26  32
HETATM   32  C14 UNL     1     -34.658  24.258  10.988  1.00  0.00     0.246 C 
HETATM   33  O2  UNL     1     -34.438  23.050  10.761  1.00  0.00    -0.642 OA
HETATM   34  O3  UNL     1     -34.345  25.182  10.006  1.00  0.00    -0.642 OA
ENDBRANCH  26  32
BRANCH  30  35
HETATM   35  C16 UNL     1     -37.832  25.283  14.757  1.00  0.00     0.055 A 
HETATM   36  C17 UNL     1     -37.762  25.895  16.106  1.00  0.00     0.013 A 
HETATM   37  C18 UNL     1     -37.758  24.429  16.019  1.00  0.00     0.013 A 
ENDBRANCH  30  35
ENDBRANCH  24  25
ENDBRANCH  23  24
ENDBRANCH  22  23
ENDBRANCH  21  22
ENDBRANCH  20  21
ENDBRANCH   1  20
BRANCH   1  38
HETATM   38  C19 UNL     1     -39.337  21.917   6.782  1.00  0.00     0.095 C 
BRANCH  38  39
HETATM   39  S1  UNL     1     -39.920  20.218   6.730  1.00  0.00    -0.093 SA
BRANCH  39  40
HETATM   40  C20 UNL     1     -41.526  20.046   5.988  1.00  0.00     0.146 A 
HETATM   41  N5  UNL     1     -42.538  19.471   6.674  1.00  0.00    -0.332 N 
HETATM   42  C21 UNL     1     -43.776  19.306   6.219  1.00  0.00     0.107 A 
ATOM     43  H5  UNL     1     -42.335  19.138   7.616  1.00  0.00     0.168 HD
HETATM   44  C22 UNL     1     -44.761  18.713   6.968  1.00  0.00     0.161 A 
HETATM   45  C24 UNL     1     -44.038  19.769   4.924  1.00  0.00     0.122 A 
HETATM   46  N6  UNL     1     -44.480  18.250   8.274  1.00  0.00    -0.080 NA
HETATM   47  N7  UNL     1     -45.986  18.574   6.458  1.00  0.00    -0.177 N 
HETATM   48  C23 UNL     1     -46.247  19.021   5.206  1.00  0.00     0.677 A 
ATOM     49  H7  UNL     1     -46.723  18.134   7.009  1.00  0.00     0.185 HD
HETATM   50  N9  UNL     1     -45.288  19.603   4.466  1.00  0.00    -0.186 N 
ATOM     51  H9  UNL     1     -45.518  19.928   3.527  1.00  0.00     0.184 HD
HETATM   52  C25 UNL     1     -43.042  20.358   4.195  1.00  0.00     0.131 A 
HETATM   53  N11 UNL     1     -41.812  20.478   4.752  1.00  0.00    -0.321 N 
ATOM     54  H11 UNL     1     -41.070  20.917   4.205  1.00  0.00     0.169 HD
BRANCH  48  55
HETATM   55  N8  UNL     1     -47.458  18.853   4.776  1.00  0.00    -0.234 N 
ATOM     56  H82 UNL     1     -47.692  18.202   4.027  1.00  0.00     0.174 HD
ATOM     57  H81 UNL     1     -48.180  19.413   5.229  1.00  0.00     0.174 HD
ENDBRANCH  48  55
BRANCH  52  58
HETATM   58  N10 UNL     1     -43.304  20.778   3.007  1.00  0.00    -0.383 N 
ATOM     59 2H10 UNL     1     -44.062  20.389   2.446  1.00  0.00     0.157 HD
ATOM     60 1H10 UNL     1     -42.734  21.526   2.611  1.00  0.00     0.157 HD
ENDBRANCH  52  58
ENDBRANCH  39  40
ENDBRANCH  38  39
ENDBRANCH   1  38
TORSDOF 17
ENDMDL
