MODEL 1
REMARK VINA RESULT: -7.996084762      0.000      0.000
REMARK  7 active torsions:
REMARK  status: ('A' for Active; 'I' for Inactive)
REMARK    1  A    between atoms: N1_2  and  C3_4 
REMARK    2  A    between atoms: C3_4  and  C4_5 
REMARK    3  A    between atoms: C4_5  and  C5_6 
REMARK    4  A    between atoms: C4_5  and  N3_14 
REMARK    5  A    between atoms: C5_6  and  N2_7 
REMARK       I    between atoms: N2_7  and  C6_9 
REMARK    6  A    between atoms: C6_9  and  C7_11 
REMARK    7  A    between atoms: N3_14  and  C10_16 
ROOT
HETATM    1  N3  UNL     1      43.383  30.992  31.560  1.00  0.00    -0.409 N 
ATOM      2  H3  UNL     1      43.698  30.634  30.659  1.00  0.00     0.154 HD
ENDROOT
BRANCH   1   3
HETATM    3  C4  UNL     1      42.158  30.580  32.144  1.00  0.00     0.123 C 
BRANCH   3   4
HETATM    4  C3  UNL     1      41.069  30.507  31.094  1.00  0.00     0.297 C 
BRANCH   4   5
HETATM    5  N1  UNL     1      40.069  31.535  31.252  1.00  0.00     0.082 N 
HETATM    6  C1  UNL     1      38.780  30.847  31.358  1.00  0.00     0.309 C 
HETATM    7  C2  UNL     1      40.019  32.266  29.981  1.00  0.00     0.309 C 
ENDBRANCH   4   5
ENDBRANCH   3   4
BRANCH   3   8
HETATM    8  C5  UNL     1      42.182  29.267  32.867  1.00  0.00     0.149 C 
BRANCH   8   9
HETATM    9  N2  UNL     1      40.860  28.771  33.159  1.00  0.00    -0.359 N 
HETATM   10  C6  UNL     1      40.295  28.970  34.443  1.00  0.00     0.221 C 
HETATM   11  O1  UNL     1      40.968  29.582  35.307  1.00  0.00    -0.273 OA
ATOM     12  H2  UNL     1      40.331  28.276  32.441  1.00  0.00     0.162 HD
BRANCH  10  13
HETATM   13  C7  UNL     1      38.946  28.488  34.805  1.00  0.00     0.078 A 
HETATM   14  C8  UNL     1      38.862  27.048  35.317  1.00  0.00     0.015 A 
HETATM   15  C9  UNL     1      38.619  28.184  36.225  1.00  0.00     0.015 A 
ENDBRANCH  10  13
ENDBRANCH   8   9
ENDBRANCH   3   8
ENDBRANCH   1   3
BRANCH   1  16
HETATM   16  C10 UNL     1      44.143  31.930  32.300  1.00  0.00     0.085 C 
HETATM   17  C11 UNL     1      43.588  33.305  32.425  1.00  0.00     0.009 C 
HETATM   18  C12 UNL     1      44.339  33.952  33.603  1.00  0.00     0.011 C 
HETATM   19  C16 UNL     1      43.789  34.204  31.253  1.00  0.00     0.012 C 
HETATM   20  C13 UNL     1      45.823  34.051  33.269  1.00  0.00    -0.013 C 
HETATM   21  C14 UNL     1      45.946  34.970  32.088  1.00  0.00     0.010 C 
HETATM   22  C21 UNL     1      46.331  32.670  33.004  1.00  0.00     0.012 C 
HETATM   23  C15 UNL     1      45.264  34.306  30.917  1.00  0.00    -0.006 C 
HETATM   24  C17 UNL     1      45.770  32.922  30.647  1.00  0.00    -0.038 C 
HETATM   25  C18 UNL     1      47.268  33.043  30.386  1.00  0.00     0.015 C 
HETATM   26  C19 UNL     1      45.156  32.403  29.383  1.00  0.00     0.015 C 
HETATM   27  C20 UNL     1      45.590  32.021  31.829  1.00  0.00     0.017 C 
ENDBRANCH   1  16
TORSDOF 7
ENDMDL
MODEL 2
REMARK VINA RESULT: -7.893699157      2.378      7.030
REMARK  7 active torsions:
REMARK  status: ('A' for Active; 'I' for Inactive)
REMARK    1  A    between atoms: N1_2  and  C3_4 
REMARK    2  A    between atoms: C3_4  and  C4_5 
REMARK    3  A    between atoms: C4_5  and  C5_6 
REMARK    4  A    between atoms: C4_5  and  N3_14 
REMARK    5  A    between atoms: C5_6  and  N2_7 
REMARK       I    between atoms: N2_7  and  C6_9 
REMARK    6  A    between atoms: C6_9  and  C7_11 
REMARK    7  A    between atoms: N3_14  and  C10_16 
ROOT
HETATM    1  N3  UNL     1      41.836  32.963  32.557  1.00  0.00    -0.409 N 
ATOM      2  H3  UNL     1      41.225  33.619  32.070  1.00  0.00     0.154 HD
ENDROOT
BRANCH   1   3
HETATM    3  C4  UNL     1      43.248  33.077  32.508  1.00  0.00     0.123 C 
BRANCH   3   4
HETATM    4  C3  UNL     1      43.721  33.204  31.075  1.00  0.00     0.297 C 
BRANCH   4   5
HETATM    5  N1  UNL     1      44.475  32.059  30.630  1.00  0.00     0.082 N 
HETATM    6  C1  UNL     1      45.128  31.505  31.819  1.00  0.00     0.309 C 
HETATM    7  C2  UNL     1      45.562  32.575  29.791  1.00  0.00     0.309 C 
ENDBRANCH   4   5
ENDBRANCH   3   4
BRANCH   3   8
HETATM    8  C5  UNL     1      43.845  34.210  33.286  1.00  0.00     0.149 C 
BRANCH   8   9
HETATM    9  N2  UNL     1      45.233  33.990  33.610  1.00  0.00    -0.359 N 
HETATM   10  C6  UNL     1      46.240  34.753  32.969  1.00  0.00     0.221 C 
HETATM   11  O1  UNL     1      45.896  35.613  32.123  1.00  0.00    -0.273 OA
ATOM     12  H2  UNL     1      45.489  33.286  34.301  1.00  0.00     0.162 HD
BRANCH  10  13
HETATM   13  C7  UNL     1      47.679  34.577  33.257  1.00  0.00     0.078 A 
HETATM   14  C8  UNL     1      48.278  33.218  32.886  1.00  0.00     0.015 A 
HETATM   15  C9  UNL     1      48.651  34.433  32.139  1.00  0.00     0.015 A 
ENDBRANCH  10  13
ENDBRANCH   8   9
ENDBRANCH   3   8
ENDBRANCH   1   3
BRANCH   1  16
HETATM   16  C10 UNL     1      41.321  31.887  33.320  1.00  0.00     0.085 C 
HETATM   17  C11 UNL     1      42.123  30.634  33.351  1.00  0.00     0.009 C 
HETATM   18  C12 UNL     1      41.602  29.836  34.560  1.00  0.00     0.011 C 
HETATM   19  C16 UNL     1      41.991  29.739  32.167  1.00  0.00     0.012 C 
HETATM   20  C13 UNL     1      40.139  29.475  34.341  1.00  0.00    -0.013 C 
HETATM   21  C14 UNL     1      40.085  28.574  33.140  1.00  0.00     0.010 C 
HETATM   22  C21 UNL     1      39.370  30.745  34.166  1.00  0.00     0.012 C 
HETATM   23  C15 UNL     1      40.535  29.376  31.944  1.00  0.00    -0.006 C 
HETATM   24  C17 UNL     1      39.768  30.649  31.765  1.00  0.00    -0.038 C 
HETATM   25  C18 UNL     1      38.299  30.263  31.618  1.00  0.00     0.015 C 
HETATM   26  C19 UNL     1      40.170  31.298  30.476  1.00  0.00     0.015 C 
HETATM   27  C20 UNL     1      39.880  31.544  32.960  1.00  0.00     0.017 C 
ENDBRANCH   1  16
TORSDOF 7
ENDMDL
MODEL 3
REMARK VINA RESULT: -7.889953404      2.798      7.351
REMARK  7 active torsions:
REMARK  status: ('A' for Active; 'I' for Inactive)
REMARK    1  A    between atoms: N1_2  and  C3_4 
REMARK    2  A    between atoms: C3_4  and  C4_5 
REMARK    3  A    between atoms: C4_5  and  C5_6 
REMARK    4  A    between atoms: C4_5  and  N3_14 
REMARK    5  A    between atoms: C5_6  and  N2_7 
REMARK       I    between atoms: N2_7  and  C6_9 
REMARK    6  A    between atoms: C6_9  and  C7_11 
REMARK    7  A    between atoms: N3_14  and  C10_16 
ROOT
HETATM    1  N3  UNL     1      43.627  31.576  30.871  1.00  0.00    -0.409 N 
ATOM      2  H3  UNL     1      43.670  30.944  30.072  1.00  0.00     0.154 HD
ENDROOT
BRANCH   1   3
HETATM    3  C4  UNL     1      44.286  32.832  30.869  1.00  0.00     0.123 C 
BRANCH   3   4
HETATM    4  C3  UNL     1      44.885  33.119  32.230  1.00  0.00     0.297 C 
BRANCH   4   5
HETATM    5  N1  UNL     1      44.798  34.511  32.597  1.00  0.00     0.082 N 
HETATM    6  C1  UNL     1      46.143  34.912  33.017  1.00  0.00     0.309 C 
HETATM    7  C2  UNL     1      43.976  34.572  33.810  1.00  0.00     0.309 C 
ENDBRANCH   4   5
ENDBRANCH   3   4
BRANCH   3   8
HETATM    8  C5  UNL     1      45.371  33.005  29.849  1.00  0.00     0.149 C 
BRANCH   8   9
HETATM    9  N2  UNL     1      46.689  32.835  30.408  1.00  0.00    -0.359 N 
HETATM   10  C6  UNL     1      47.781  33.572  29.887  1.00  0.00     0.221 C 
HETATM   11  O1  UNL     1      47.572  34.367  28.939  1.00  0.00    -0.273 OA
ATOM     12  H2  UNL     1      46.836  32.184  31.179  1.00  0.00     0.162 HD
BRANCH  10  13
HETATM   13  C7  UNL     1      49.155  33.445  30.415  1.00  0.00     0.078 A 
HETATM   14  C8  UNL     1      49.589  34.512  31.423  1.00  0.00     0.015 A 
HETATM   15  C9  UNL     1      49.375  33.118  31.850  1.00  0.00     0.015 A 
ENDBRANCH  10  13
ENDBRANCH   8   9
ENDBRANCH   3   8
ENDBRANCH   1   3
BRANCH   1  16
HETATM   16  C10 UNL     1      42.906  31.250  32.046  1.00  0.00     0.085 C 
HETATM   17  C11 UNL     1      42.837  29.812  32.421  1.00  0.00     0.009 C 
HETATM   18  C12 UNL     1      42.418  29.788  33.902  1.00  0.00     0.011 C 
HETATM   19  C16 UNL     1      41.836  28.988  31.687  1.00  0.00     0.012 C 
HETATM   20  C13 UNL     1      41.031  30.400  34.050  1.00  0.00    -0.013 C 
HETATM   21  C14 UNL     1      40.080  29.518  33.291  1.00  0.00     0.010 C 
HETATM   22  C21 UNL     1      41.085  31.801  33.532  1.00  0.00     0.012 C 
HETATM   23  C15 UNL     1      40.453  29.593  31.830  1.00  0.00    -0.006 C 
HETATM   24  C17 UNL     1      40.508  30.995  31.306  1.00  0.00    -0.038 C 
HETATM   25  C18 UNL     1      39.128  31.605  31.531  1.00  0.00     0.015 C 
HETATM   26  C19 UNL     1      40.727  30.967  29.825  1.00  0.00     0.015 C 
HETATM   27  C20 UNL     1      41.498  31.833  32.055  1.00  0.00     0.017 C 
ENDBRANCH   1  16
TORSDOF 7
ENDMDL
MODEL 4
REMARK VINA RESULT: -7.874844609      2.707      7.554
REMARK  7 active torsions:
REMARK  status: ('A' for Active; 'I' for Inactive)
REMARK    1  A    between atoms: N1_2  and  C3_4 
REMARK    2  A    between atoms: C3_4  and  C4_5 
REMARK    3  A    between atoms: C4_5  and  C5_6 
REMARK    4  A    between atoms: C4_5  and  N3_14 
REMARK    5  A    between atoms: C5_6  and  N2_7 
REMARK       I    between atoms: N2_7  and  C6_9 
REMARK    6  A    between atoms: C6_9  and  C7_11 
REMARK    7  A    between atoms: N3_14  and  C10_16 
ROOT
HETATM    1  N3  UNL     1      43.194  32.555  30.869  1.00  0.00    -0.409 N 
ATOM      2  H3  UNL     1      42.584  32.740  30.074  1.00  0.00     0.154 HD
ENDROOT
BRANCH   1   3
HETATM    3  C4  UNL     1      44.502  33.095  30.953  1.00  0.00     0.123 C 
BRANCH   3   4
HETATM    4  C3  UNL     1      44.886  33.333  32.398  1.00  0.00     0.297 C 
BRANCH   4   5
HETATM    5  N1  UNL     1      45.023  34.732  32.718  1.00  0.00     0.082 N 
HETATM    6  C1  UNL     1      46.422  34.935  33.103  1.00  0.00     0.309 C 
HETATM    7  C2  UNL     1      44.244  34.958  33.941  1.00  0.00     0.309 C 
ENDBRANCH   4   5
ENDBRANCH   3   4
BRANCH   3   8
HETATM    8  C5  UNL     1      45.592  32.283  30.320  1.00  0.00     0.149 C 
BRANCH   8   9
HETATM    9  N2  UNL     1      46.407  33.058  29.418  1.00  0.00    -0.359 N 
HETATM   10  C6  UNL     1      47.736  33.394  29.775  1.00  0.00     0.221 C 
HETATM   11  O1  UNL     1      48.178  33.004  30.883  1.00  0.00    -0.273 OA
ATOM     12  H2  UNL     1      46.028  33.363  28.522  1.00  0.00     0.162 HD
BRANCH  10  13
HETATM   13  C7  UNL     1      48.624  34.183  28.896  1.00  0.00     0.078 A 
HETATM   14  C8  UNL     1      48.406  35.698  28.906  1.00  0.00     0.015 A 
HETATM   15  C9  UNL     1      49.626  35.112  29.488  1.00  0.00     0.015 A 
ENDBRANCH  10  13
ENDBRANCH   8   9
ENDBRANCH   3   8
ENDBRANCH   1   3
BRANCH   1  16
HETATM   16  C10 UNL     1      42.782  31.742  31.955  1.00  0.00     0.085 C 
HETATM   17  C11 UNL     1      43.047  30.283  31.846  1.00  0.00     0.009 C 
HETATM   18  C12 UNL     1      42.932  29.731  33.279  1.00  0.00     0.011 C 
HETATM   19  C16 UNL     1      42.088  29.500  31.015  1.00  0.00     0.012 C 
HETATM   20  C13 UNL     1      41.512  29.934  33.791  1.00  0.00    -0.013 C 
HETATM   21  C14 UNL     1      40.607  29.118  32.912  1.00  0.00     0.010 C 
HETATM   22  C21 UNL     1      41.212  31.398  33.756  1.00  0.00     0.012 C 
HETATM   23  C15 UNL     1      40.673  29.699  31.521  1.00  0.00    -0.006 C 
HETATM   24  C17 UNL     1      40.373  31.166  31.480  1.00  0.00    -0.038 C 
HETATM   25  C18 UNL     1      38.974  31.348  32.063  1.00  0.00     0.015 C 
HETATM   26  C19 UNL     1      40.305  31.623  30.055  1.00  0.00     0.015 C 
HETATM   27  C20 UNL     1      41.321  31.954  32.330  1.00  0.00     0.017 C 
ENDBRANCH   1  16
TORSDOF 7
ENDMDL
MODEL 5
REMARK VINA RESULT: -7.739159299      3.052      7.516
REMARK  7 active torsions:
REMARK  status: ('A' for Active; 'I' for Inactive)
REMARK    1  A    between atoms: N1_2  and  C3_4 
REMARK    2  A    between atoms: C3_4  and  C4_5 
REMARK    3  A    between atoms: C4_5  and  C5_6 
REMARK    4  A    between atoms: C4_5  and  N3_14 
REMARK    5  A    between atoms: C5_6  and  N2_7 
REMARK       I    between atoms: N2_7  and  C6_9 
REMARK    6  A    between atoms: C6_9  and  C7_11 
REMARK    7  A    between atoms: N3_14  and  C10_16 
ROOT
HETATM    1  N3  UNL     1      44.136  31.546  30.919  1.00  0.00    -0.409 N 
ATOM      2  H3  UNL     1      44.708  30.708  31.014  1.00  0.00     0.154 HD
ENDROOT
BRANCH   1   3
HETATM    3  C4  UNL     1      44.708  32.842  30.855  1.00  0.00     0.123 C 
BRANCH   3   4
HETATM    4  C3  UNL     1      45.416  33.174  32.152  1.00  0.00     0.297 C 
BRANCH   4   5
HETATM    5  N1  UNL     1      45.362  34.578  32.476  1.00  0.00     0.082 N 
HETATM    6  C1  UNL     1      46.686  34.935  32.994  1.00  0.00     0.309 C 
HETATM    7  C2  UNL     1      44.448  34.709  33.616  1.00  0.00     0.309 C 
ENDBRANCH   4   5
ENDBRANCH   3   4
BRANCH   3   8
HETATM    8  C5  UNL     1      45.677  33.079  29.736  1.00  0.00     0.149 C 
BRANCH   8   9
HETATM    9  N2  UNL     1      47.045  32.859  30.130  1.00  0.00    -0.359 N 
HETATM   10  C6  UNL     1      48.069  33.709  29.645  1.00  0.00     0.221 C 
HETATM   11  O1  UNL     1      47.756  34.647  28.872  1.00  0.00    -0.273 OA
ATOM     12  H2  UNL     1      47.277  32.091  30.760  1.00  0.00     0.162 HD
BRANCH  10  13
HETATM   13  C7  UNL     1      49.491  33.538  30.012  1.00  0.00     0.078 A 
HETATM   14  C8  UNL     1      50.047  34.537  31.029  1.00  0.00     0.015 A 
HETATM   15  C9  UNL     1      49.859  33.120  31.392  1.00  0.00     0.015 A 
ENDBRANCH  10  13
ENDBRANCH   8   9
ENDBRANCH   3   8
ENDBRANCH   1   3
BRANCH   1  16
HETATM   16  C10 UNL     1      42.722  31.483  30.844  1.00  0.00     0.085 C 
HETATM   17  C11 UNL     1      41.956  32.432  31.696  1.00  0.00     0.009 C 
HETATM   18  C12 UNL     1      40.535  32.467  31.105  1.00  0.00     0.011 C 
HETATM   19  C16 UNL     1      41.806  32.055  33.130  1.00  0.00     0.012 C 
HETATM   20  C13 UNL     1      39.901  31.087  31.217  1.00  0.00    -0.013 C 
HETATM   21  C14 UNL     1      39.780  30.778  32.682  1.00  0.00     0.010 C 
HETATM   22  C21 UNL     1      40.765  30.119  30.475  1.00  0.00     0.012 C 
HETATM   23  C15 UNL     1      41.176  30.681  33.248  1.00  0.00    -0.006 C 
HETATM   24  C17 UNL     1      42.045  29.712  32.508  1.00  0.00    -0.038 C 
HETATM   25  C18 UNL     1      41.352  28.354  32.576  1.00  0.00     0.015 C 
HETATM   26  C19 UNL     1      43.351  29.562  33.227  1.00  0.00     0.015 C 
HETATM   27  C20 UNL     1      42.182  30.075  31.061  1.00  0.00     0.017 C 
ENDBRANCH   1  16
TORSDOF 7
ENDMDL
