MODEL 1
REMARK VINA RESULT: -8.508514616      0.000      0.000
REMARK  6 active torsions:
REMARK  status: ('A' for Active; 'I' for Inactive)
REMARK    1  A    between atoms: C2_2  and  C3_3 
REMARK    2  A    between atoms: C2_2  and  C13_20 
REMARK    3  A    between atoms: C3_3  and  N1_4 
REMARK       I    between atoms: C4_6  and  N3_8 
REMARK       I    between atoms: N3_8  and  C5_10 
REMARK    4  A    between atoms: C5_10  and  C6_12 
REMARK    5  A    between atoms: C6_12  and  N4_13 
REMARK    6  A    between atoms: C13_20  and  C14_21 
ROOT
HETATM    1  N1  UNL     1      44.886  33.161  31.766  1.00  0.00    -0.364 N 
ATOM      2  H1  UNL     1      45.009  32.415  31.082  1.00  0.00     0.162 HD
HETATM    3  C4  UNL     1      45.918  33.774  32.167  1.00  0.00     0.191 C 
HETATM    4  N2  UNL     1      45.788  34.816  33.121  1.00  0.00    -0.063 NA
HETATM    5  N3  UNL     1      47.191  33.432  31.681  1.00  0.00    -0.297 N 
ATOM      6  H3  UNL     1      47.281  32.677  31.001  1.00  0.00     0.171 HD
HETATM    7  C5  UNL     1      48.344  34.108  32.113  1.00  0.00     0.263 C 
HETATM    8  O1  UNL     1      48.189  35.065  32.969  1.00  0.00    -0.267 OA
ENDROOT
BRANCH   1   9
HETATM    9  C3  UNL     1      43.554  33.451  32.216  1.00  0.00     0.126 C 
BRANCH   9  10
HETATM   10  C2  UNL     1      42.720  32.170  32.053  1.00  0.00    -0.000 C 
HETATM   11  C1  UNL     1      43.633  30.970  32.036  1.00  0.00     0.011 C 
BRANCH  10  12
HETATM   12  C13 UNL     1      41.696  32.173  33.127  1.00  0.00     0.010 C 
BRANCH  12  13
HETATM   13  C14 UNL     1      40.426  31.457  32.870  1.00  0.00    -0.014 C 
HETATM   14  C15 UNL     1      40.149  31.153  31.411  1.00  0.00     0.005 C 
HETATM   15  C16 UNL     1      38.631  30.934  31.333  1.00  0.00     0.000 C 
HETATM   16  C17 UNL     1      38.277  29.767  32.215  1.00  0.00     0.000 C 
HETATM   17  C18 UNL     1      38.639  30.045  33.674  1.00  0.00     0.000 C 
HETATM   18  C19 UNL     1      40.151  30.268  33.748  1.00  0.00     0.005 C 
ENDBRANCH  12  13
ENDBRANCH  10  12
ENDBRANCH   9  10
ENDBRANCH   1   9
BRANCH   7  19
HETATM   19  C6  UNL     1      49.723  33.795  31.647  1.00  0.00     0.161 C 
BRANCH  19  20
HETATM   20  N4  UNL     1      50.226  34.799  30.810  1.00  0.00    -0.381 N 
HETATM   21  C7  UNL     1      49.287  35.449  29.947  1.00  0.00     0.123 C 
HETATM   22  C8  UNL     1      49.179  34.801  28.589  1.00  0.00     0.020 C 
HETATM   23  C9  UNL     1      50.303  33.877  28.248  1.00  0.00     0.004 C 
HETATM   24  C10 UNL     1      51.609  34.329  28.851  1.00  0.00     0.025 C 
HETATM   25  C11 UNL     1      51.540  34.680  30.297  1.00  0.00     0.079 C 
HETATM   26  C12 UNL     1      52.411  33.711  31.063  1.00  0.00     0.032 C 
ENDBRANCH  19  20
ENDBRANCH   7  19
TORSDOF 6
ENDMDL
MODEL 2
REMARK VINA RESULT: -8.440810144      1.954      9.557
REMARK  6 active torsions:
REMARK  status: ('A' for Active; 'I' for Inactive)
REMARK    1  A    between atoms: C2_2  and  C3_3 
REMARK    2  A    between atoms: C2_2  and  C13_20 
REMARK    3  A    between atoms: C3_3  and  N1_4 
REMARK       I    between atoms: C4_6  and  N3_8 
REMARK       I    between atoms: N3_8  and  C5_10 
REMARK    4  A    between atoms: C5_10  and  C6_12 
REMARK    5  A    between atoms: C6_12  and  N4_13 
REMARK    6  A    between atoms: C13_20  and  C14_21 
ROOT
HETATM    1  N1  UNL     1      46.485  33.576  32.779  1.00  0.00    -0.364 N 
ATOM      2  H1  UNL     1      46.913  32.655  32.686  1.00  0.00     0.162 HD
HETATM    3  C4  UNL     1      45.224  33.655  32.708  1.00  0.00     0.191 C 
HETATM    4  N2  UNL     1      44.591  34.918  32.830  1.00  0.00    -0.063 NA
HETATM    5  N3  UNL     1      44.443  32.504  32.503  1.00  0.00    -0.297 N 
ATOM      6  H3  UNL     1      44.902  31.599  32.408  1.00  0.00     0.171 HD
HETATM    7  C5  UNL     1      43.042  32.576  32.427  1.00  0.00     0.263 C 
HETATM    8  O1  UNL     1      42.496  33.741  32.562  1.00  0.00    -0.267 OA
ENDROOT
BRANCH   1   9
HETATM    9  C3  UNL     1      47.349  34.704  32.984  1.00  0.00     0.126 C 
BRANCH   9  10
HETATM   10  C2  UNL     1      48.564  34.531  32.059  1.00  0.00    -0.000 C 
HETATM   11  C1  UNL     1      49.263  33.234  32.377  1.00  0.00     0.011 C 
BRANCH  10  12
HETATM   12  C13 UNL     1      48.076  34.664  30.664  1.00  0.00     0.010 C 
BRANCH  12  13
HETATM   13  C14 UNL     1      49.084  34.844  29.595  1.00  0.00    -0.014 C 
HETATM   14  C15 UNL     1      49.317  33.623  28.726  1.00  0.00     0.005 C 
HETATM   15  C16 UNL     1      50.703  33.841  28.101  1.00  0.00     0.000 C 
HETATM   16  C17 UNL     1      50.657  35.101  27.280  1.00  0.00     0.000 C 
HETATM   17  C18 UNL     1      50.336  36.318  28.147  1.00  0.00     0.000 C 
HETATM   18  C19 UNL     1      48.956  36.096  28.773  1.00  0.00     0.005 C 
ENDBRANCH  12  13
ENDBRANCH  10  12
ENDBRANCH   9  10
ENDBRANCH   1   9
BRANCH   7  19
HETATM   19  C6  UNL     1      42.154  31.402  32.206  1.00  0.00     0.161 C 
BRANCH  19  20
HETATM   20  N4  UNL     1      40.818  31.699  32.511  1.00  0.00    -0.381 N 
HETATM   21  C7  UNL     1      40.389  31.435  33.850  1.00  0.00     0.123 C 
HETATM   22  C8  UNL     1      39.799  30.058  34.025  1.00  0.00     0.020 C 
HETATM   23  C9  UNL     1      39.414  29.378  32.751  1.00  0.00     0.004 C 
HETATM   24  C10 UNL     1      38.940  30.359  31.708  1.00  0.00     0.025 C 
HETATM   25  C11 UNL     1      39.828  31.539  31.513  1.00  0.00     0.079 C 
HETATM   26  C12 UNL     1      40.377  31.493  30.106  1.00  0.00     0.032 C 
ENDBRANCH  19  20
ENDBRANCH   7  19
TORSDOF 6
ENDMDL
MODEL 3
REMARK VINA RESULT: -8.425802321      0.389      1.091
REMARK  6 active torsions:
REMARK  status: ('A' for Active; 'I' for Inactive)
REMARK    1  A    between atoms: C2_2  and  C3_3 
REMARK    2  A    between atoms: C2_2  and  C13_20 
REMARK    3  A    between atoms: C3_3  and  N1_4 
REMARK       I    between atoms: C4_6  and  N3_8 
REMARK       I    between atoms: N3_8  and  C5_10 
REMARK    4  A    between atoms: C5_10  and  C6_12 
REMARK    5  A    between atoms: C6_12  and  N4_13 
REMARK    6  A    between atoms: C13_20  and  C14_21 
ROOT
HETATM    1  N1  UNL     1      44.853  33.135  31.918  1.00  0.00    -0.364 N 
ATOM      2  H1  UNL     1      44.964  32.353  31.273  1.00  0.00     0.162 HD
HETATM    3  C4  UNL     1      45.891  33.770  32.266  1.00  0.00     0.191 C 
HETATM    4  N2  UNL     1      45.778  34.862  33.164  1.00  0.00    -0.063 NA
HETATM    5  N3  UNL     1      47.156  33.403  31.775  1.00  0.00    -0.297 N 
ATOM      6  H3  UNL     1      47.233  32.612  31.135  1.00  0.00     0.171 HD
HETATM    7  C5  UNL     1      48.315  34.102  32.147  1.00  0.00     0.263 C 
HETATM    8  O1  UNL     1      48.175  35.104  32.953  1.00  0.00    -0.267 OA
ENDROOT
BRANCH   1   9
HETATM    9  C3  UNL     1      43.529  33.448  32.378  1.00  0.00     0.126 C 
BRANCH   9  10
HETATM   10  C2  UNL     1      42.583  32.362  31.841  1.00  0.00    -0.000 C 
HETATM   11  C1  UNL     1      43.358  31.391  30.989  1.00  0.00     0.011 C 
BRANCH  10  12
HETATM   12  C13 UNL     1      41.888  31.768  33.010  1.00  0.00     0.010 C 
BRANCH  12  13
HETATM   13  C14 UNL     1      40.613  31.056  32.765  1.00  0.00    -0.014 C 
HETATM   14  C15 UNL     1      39.746  30.862  33.993  1.00  0.00     0.005 C 
HETATM   15  C16 UNL     1      38.816  29.691  33.640  1.00  0.00     0.000 C 
HETATM   16  C17 UNL     1      37.995  30.085  32.442  1.00  0.00     0.000 C 
HETATM   17  C18 UNL     1      38.882  30.365  31.229  1.00  0.00     0.000 C 
HETATM   18  C19 UNL     1      39.811  31.529  31.585  1.00  0.00     0.005 C 
ENDBRANCH  12  13
ENDBRANCH  10  12
ENDBRANCH   9  10
ENDBRANCH   1   9
BRANCH   7  19
HETATM   19  C6  UNL     1      49.686  33.765  31.673  1.00  0.00     0.161 C 
BRANCH  19  20
HETATM   20  N4  UNL     1      50.200  34.759  30.831  1.00  0.00    -0.381 N 
HETATM   21  C7  UNL     1      49.271  35.409  29.957  1.00  0.00     0.123 C 
HETATM   22  C8  UNL     1      49.166  34.751  28.604  1.00  0.00     0.020 C 
HETATM   23  C9  UNL     1      50.286  33.817  28.276  1.00  0.00     0.004 C 
HETATM   24  C10 UNL     1      51.591  34.265  28.883  1.00  0.00     0.025 C 
HETATM   25  C11 UNL     1      51.516  34.627  30.326  1.00  0.00     0.079 C 
HETATM   26  C12 UNL     1      52.376  33.659  31.104  1.00  0.00     0.032 C 
ENDBRANCH  19  20
ENDBRANCH   7  19
TORSDOF 6
ENDMDL
MODEL 4
REMARK VINA RESULT: -8.401980617      2.261      9.760
REMARK  6 active torsions:
REMARK  status: ('A' for Active; 'I' for Inactive)
REMARK    1  A    between atoms: C2_2  and  C3_3 
REMARK    2  A    between atoms: C2_2  and  C13_20 
REMARK    3  A    between atoms: C3_3  and  N1_4 
REMARK       I    between atoms: C4_6  and  N3_8 
REMARK       I    between atoms: N3_8  and  C5_10 
REMARK    4  A    between atoms: C5_10  and  C6_12 
REMARK    5  A    between atoms: C6_12  and  N4_13 
REMARK    6  A    between atoms: C13_20  and  C14_21 
ROOT
HETATM    1  N1  UNL     1      45.965  32.248  31.930  1.00  0.00    -0.364 N 
ATOM      2  H1  UNL     1      46.228  31.664  32.724  1.00  0.00     0.162 HD
HETATM    3  C4  UNL     1      44.800  32.114  31.454  1.00  0.00     0.191 C 
HETATM    4  N2  UNL     1      44.399  32.906  30.348  1.00  0.00    -0.063 NA
HETATM    5  N3  UNL     1      43.900  31.187  32.008  1.00  0.00    -0.297 N 
ATOM      6  H3  UNL     1      44.196  30.614  32.798  1.00  0.00     0.171 HD
HETATM    7  C5  UNL     1      42.602  31.033  31.494  1.00  0.00     0.263 C 
HETATM    8  O1  UNL     1      42.262  31.784  30.497  1.00  0.00    -0.267 OA
ENDROOT
BRANCH   1   9
HETATM    9  C3  UNL     1      46.940  33.170  31.419  1.00  0.00     0.126 C 
BRANCH   9  10
HETATM   10  C2  UNL     1      47.694  33.761  32.622  1.00  0.00    -0.000 C 
HETATM   11  C1  UNL     1      47.995  32.670  33.617  1.00  0.00     0.011 C 
BRANCH  10  12
HETATM   12  C13 UNL     1      48.879  34.478  32.088  1.00  0.00     0.010 C 
BRANCH  12  13
HETATM   13  C14 UNL     1      49.500  33.956  30.850  1.00  0.00    -0.014 C 
HETATM   14  C15 UNL     1      49.747  34.995  29.774  1.00  0.00     0.005 C 
HETATM   15  C16 UNL     1      49.861  34.194  28.468  1.00  0.00     0.000 C 
HETATM   16  C17 UNL     1      51.022  33.245  28.596  1.00  0.00     0.000 C 
HETATM   17  C18 UNL     1      50.807  32.254  29.740  1.00  0.00     0.000 C 
HETATM   18  C19 UNL     1      50.689  33.056  31.038  1.00  0.00     0.005 C 
ENDBRANCH  12  13
ENDBRANCH  10  12
ENDBRANCH   9  10
ENDBRANCH   1   9
BRANCH   7  19
HETATM   19  C6  UNL     1      41.600  30.068  32.024  1.00  0.00     0.161 C 
BRANCH  19  20
HETATM   20  N4  UNL     1      40.753  30.667  32.966  1.00  0.00    -0.381 N 
HETATM   21  C7  UNL     1      41.121  30.531  34.342  1.00  0.00     0.123 C 
HETATM   22  C8  UNL     1      40.502  29.328  35.009  1.00  0.00     0.020 C 
HETATM   23  C9  UNL     1      39.348  28.732  34.269  1.00  0.00     0.004 C 
HETATM   24  C10 UNL     1      38.549  29.776  33.530  1.00  0.00     0.025 C 
HETATM   25  C11 UNL     1      39.362  30.718  32.712  1.00  0.00     0.079 C 
HETATM   26  C12 UNL     1      38.997  30.523  31.259  1.00  0.00     0.032 C 
ENDBRANCH  19  20
ENDBRANCH   7  19
TORSDOF 6
ENDMDL
MODEL 5
REMARK VINA RESULT: -8.320335892      2.054      9.426
REMARK  6 active torsions:
REMARK  status: ('A' for Active; 'I' for Inactive)
REMARK    1  A    between atoms: C2_2  and  C3_3 
REMARK    2  A    between atoms: C2_2  and  C13_20 
REMARK    3  A    between atoms: C3_3  and  N1_4 
REMARK       I    between atoms: C4_6  and  N3_8 
REMARK       I    between atoms: N3_8  and  C5_10 
REMARK    4  A    between atoms: C5_10  and  C6_12 
REMARK    5  A    between atoms: C6_12  and  N4_13 
REMARK    6  A    between atoms: C13_20  and  C14_21 
ROOT
HETATM    1  N1  UNL     1      45.890  32.289  31.962  1.00  0.00    -0.364 N 
ATOM      2  H1  UNL     1      46.105  31.341  32.270  1.00  0.00     0.162 HD
HETATM    3  C4  UNL     1      44.694  32.691  32.069  1.00  0.00     0.191 C 
HETATM    4  N2  UNL     1      44.355  34.002  31.649  1.00  0.00    -0.063 NA
HETATM    5  N3  UNL     1      43.698  31.850  32.595  1.00  0.00    -0.297 N 
ATOM      6  H3  UNL     1      43.946  30.905  32.888  1.00  0.00     0.171 HD
HETATM    7  C5  UNL     1      42.369  32.285  32.724  1.00  0.00     0.263 C 
HETATM    8  O1  UNL     1      42.097  33.492  32.350  1.00  0.00    -0.267 OA
ENDROOT
BRANCH   1   9
HETATM    9  C3  UNL     1      46.961  33.086  31.434  1.00  0.00     0.126 C 
BRANCH   9  10
HETATM   10  C2  UNL     1      47.703  33.713  32.624  1.00  0.00    -0.000 C 
HETATM   11  C1  UNL     1      48.039  32.644  33.632  1.00  0.00     0.011 C 
BRANCH  10  12
HETATM   12  C13 UNL     1      48.864  34.457  32.075  1.00  0.00     0.010 C 
BRANCH  12  13
HETATM   13  C14 UNL     1      49.473  33.956  30.822  1.00  0.00    -0.014 C 
HETATM   14  C15 UNL     1      49.709  35.014  29.762  1.00  0.00     0.005 C 
HETATM   15  C16 UNL     1      49.810  34.236  28.441  1.00  0.00     0.000 C 
HETATM   16  C17 UNL     1      50.972  33.285  28.541  1.00  0.00     0.000 C 
HETATM   17  C18 UNL     1      50.768  32.275  29.669  1.00  0.00     0.000 C 
HETATM   18  C19 UNL     1      50.664  33.054  30.983  1.00  0.00     0.005 C 
ENDBRANCH  12  13
ENDBRANCH  10  12
ENDBRANCH   9  10
ENDBRANCH   1   9
BRANCH   7  19
HETATM   19  C6  UNL     1      41.263  31.448  33.266  1.00  0.00     0.161 C 
BRANCH  19  20
HETATM   20  N4  UNL     1      40.825  30.502  32.329  1.00  0.00    -0.381 N 
HETATM   21  C7  UNL     1      41.240  30.697  30.973  1.00  0.00     0.123 C 
HETATM   22  C8  UNL     1      40.258  31.502  30.159  1.00  0.00     0.020 C 
HETATM   23  C9  UNL     1      38.895  31.618  30.763  1.00  0.00     0.004 C 
HETATM   24  C10 UNL     1      38.515  30.383  31.540  1.00  0.00     0.025 C 
HETATM   25  C11 UNL     1      39.553  29.902  32.494  1.00  0.00     0.079 C 
HETATM   26  C12 UNL     1      39.000  30.014  33.895  1.00  0.00     0.032 C 
ENDBRANCH  19  20
ENDBRANCH   7  19
TORSDOF 6
ENDMDL
