MODEL 1
REMARK VINA RESULT: -8.490260304      0.000      0.000
REMARK  8 active torsions:
REMARK  status: ('A' for Active; 'I' for Inactive)
REMARK    1  A    between atoms: C2_2  and  C3_3 
REMARK    2  A    between atoms: C3_3  and  N1_4 
REMARK    3  A    between atoms: N1_4  and  C4_6 
REMARK    4  A    between atoms: C4_6  and  N2_8 
REMARK    5  A    between atoms: C7_11  and  N3_12 
REMARK    6  A    between atoms: N3_12  and  C8_15 
REMARK    7  A    between atoms: C8_15  and  C9_16 
REMARK    8  A    between atoms: C9_16  and  C10_17 
ROOT
HETATM    1  N3  UNL     1      45.453  34.211  32.767  1.00  0.00    -0.069 N 
ATOM      2  H31 UNL     1      45.498  35.148  32.367  1.00  0.00     0.277 HD
ATOM      3  H32 UNL     1      45.757  34.428  33.716  1.00  0.00     0.277 HD
ENDROOT
BRANCH   1   4
HETATM    4  C7  UNL     1      46.360  33.330  32.123  1.00  0.00     0.205 C 
HETATM    5  C6  UNL     1      47.257  32.564  33.063  1.00  0.00     0.054 C 
HETATM    6  C5  UNL     1      48.500  33.471  33.152  1.00  0.00     0.127 C 
HETATM    7  N2  UNL     1      48.634  34.030  31.856  1.00  0.00    -0.356 N 
HETATM    8  C20 UNL     1      47.283  34.049  31.218  1.00  0.00     0.158 C 
BRANCH   7   9
HETATM    9  C4  UNL     1      49.706  34.563  31.139  1.00  0.00     0.170 C 
HETATM   10  S1  UNL     1      51.115  33.658  31.010  1.00  0.00    -0.041 SA
BRANCH   9  11
HETATM   11  N1  UNL     1      49.748  35.790  30.502  1.00  0.00    -0.364 N 
ATOM     12  H1  UNL     1      49.544  36.604  31.083  1.00  0.00     0.162 HD
BRANCH  11  13
HETATM   13  C3  UNL     1      50.048  36.064  29.096  1.00  0.00     0.148 C 
BRANCH  13  14
HETATM   14  C2  UNL     1      48.784  36.502  28.460  1.00  0.00    -0.018 C 
HETATM   15  C1  UNL     1      48.723  37.584  27.707  1.00  0.00     0.008 C 
ENDBRANCH  13  14
ENDBRANCH  11  13
ENDBRANCH   9  11
ENDBRANCH   7   9
ENDBRANCH   1   4
BRANCH   1  16
HETATM   16  C8  UNL     1      44.126  33.704  32.752  1.00  0.00     0.233 C 
BRANCH  16  17
HETATM   17  C9  UNL     1      43.778  32.940  31.528  1.00  0.00     0.037 C 
BRANCH  17  18
HETATM   18  C10 UNL     1      42.788  31.829  31.869  1.00  0.00    -0.038 C 
HETATM   19  C11 UNL     1      41.843  31.522  30.760  1.00  0.00     0.014 C 
HETATM   20  C12 UNL     1      40.937  30.385  31.235  1.00  0.00    -0.013 C 
HETATM   21  C13 UNL     1      40.069  30.962  32.320  1.00  0.00     0.009 C 
HETATM   22  C17 UNL     1      41.749  29.199  31.683  1.00  0.00     0.009 C 
HETATM   23  C14 UNL     1      40.953  31.352  33.466  1.00  0.00    -0.013 C 
HETATM   24  C15 UNL     1      41.684  30.111  33.954  1.00  0.00     0.009 C 
HETATM   25  C19 UNL     1      41.950  32.401  33.026  1.00  0.00     0.014 C 
HETATM   26  C16 UNL     1      42.580  29.607  32.877  1.00  0.00    -0.013 C 
HETATM   27  C18 UNL     1      43.552  30.661  32.372  1.00  0.00     0.014 C 
ENDBRANCH  17  18
ENDBRANCH  16  17
ENDBRANCH   1  16
TORSDOF 8
ENDMDL
MODEL 2
REMARK VINA RESULT: -8.485216771      0.199      1.487
REMARK  8 active torsions:
REMARK  status: ('A' for Active; 'I' for Inactive)
REMARK    1  A    between atoms: C2_2  and  C3_3 
REMARK    2  A    between atoms: C3_3  and  N1_4 
REMARK    3  A    between atoms: N1_4  and  C4_6 
REMARK    4  A    between atoms: C4_6  and  N2_8 
REMARK    5  A    between atoms: C7_11  and  N3_12 
REMARK    6  A    between atoms: N3_12  and  C8_15 
REMARK    7  A    between atoms: C8_15  and  C9_16 
REMARK    8  A    between atoms: C9_16  and  C10_17 
ROOT
HETATM    1  N3  UNL     1      45.474  34.344  32.880  1.00  0.00    -0.069 N 
ATOM      2  H31 UNL     1      45.480  35.296  32.515  1.00  0.00     0.277 HD
ATOM      3  H32 UNL     1      45.877  34.523  33.800  1.00  0.00     0.277 HD
ENDROOT
BRANCH   1   4
HETATM    4  C7  UNL     1      46.304  33.490  32.109  1.00  0.00     0.205 C 
HETATM    5  C6  UNL     1      47.207  32.598  32.925  1.00  0.00     0.054 C 
HETATM    6  C5  UNL     1      48.496  33.436  33.032  1.00  0.00     0.127 C 
HETATM    7  N2  UNL     1      48.593  34.111  31.789  1.00  0.00    -0.356 N 
HETATM    8  C20 UNL     1      47.216  34.250  31.228  1.00  0.00     0.158 C 
BRANCH   7   9
HETATM    9  C4  UNL     1      49.655  34.662  31.069  1.00  0.00     0.170 C 
HETATM   10  S1  UNL     1      51.090  33.796  30.963  1.00  0.00    -0.041 SA
BRANCH   9  11
HETATM   11  N1  UNL     1      49.666  35.879  30.411  1.00  0.00    -0.364 N 
ATOM     12  H1  UNL     1      49.395  36.691  30.967  1.00  0.00     0.162 HD
BRANCH  11  13
HETATM   13  C3  UNL     1      50.018  36.144  29.016  1.00  0.00     0.148 C 
BRANCH  13  14
HETATM   14  C2  UNL     1      48.812  36.708  28.364  1.00  0.00    -0.018 C 
HETATM   15  C1  UNL     1      48.874  37.781  27.598  1.00  0.00     0.008 C 
ENDBRANCH  13  14
ENDBRANCH  11  13
ENDBRANCH   9  11
ENDBRANCH   7   9
ENDBRANCH   1   4
BRANCH   1  16
HETATM   16  C8  UNL     1      44.150  33.838  32.985  1.00  0.00     0.233 C 
BRANCH  16  17
HETATM   17  C9  UNL     1      43.648  33.184  31.751  1.00  0.00     0.037 C 
BRANCH  17  18
HETATM   18  C10 UNL     1      42.788  31.974  32.113  1.00  0.00    -0.038 C 
HETATM   19  C11 UNL     1      43.581  30.733  32.330  1.00  0.00     0.014 C 
HETATM   20  C12 UNL     1      42.597  29.623  32.704  1.00  0.00    -0.013 C 
HETATM   21  C13 UNL     1      41.788  29.342  31.468  1.00  0.00     0.009 C 
HETATM   22  C17 UNL     1      41.760  30.022  33.890  1.00  0.00     0.009 C 
HETATM   23  C14 UNL     1      40.992  30.570  31.142  1.00  0.00    -0.013 C 
HETATM   24  C15 UNL     1      40.088  30.885  32.324  1.00  0.00     0.009 C 
HETATM   25  C19 UNL     1      41.915  31.737  30.869  1.00  0.00     0.014 C 
HETATM   26  C16 UNL     1      40.924  31.221  33.511  1.00  0.00    -0.013 C 
HETATM   27  C18 UNL     1      41.905  32.351  33.245  1.00  0.00     0.014 C 
ENDBRANCH  17  18
ENDBRANCH  16  17
ENDBRANCH   1  16
TORSDOF 8
ENDMDL
MODEL 3
REMARK VINA RESULT: -8.451418886      0.106      1.511
REMARK  8 active torsions:
REMARK  status: ('A' for Active; 'I' for Inactive)
REMARK    1  A    between atoms: C2_2  and  C3_3 
REMARK    2  A    between atoms: C3_3  and  N1_4 
REMARK    3  A    between atoms: N1_4  and  C4_6 
REMARK    4  A    between atoms: C4_6  and  N2_8 
REMARK    5  A    between atoms: C7_11  and  N3_12 
REMARK    6  A    between atoms: N3_12  and  C8_15 
REMARK    7  A    between atoms: C8_15  and  C9_16 
REMARK    8  A    between atoms: C9_16  and  C10_17 
ROOT
HETATM    1  N3  UNL     1      45.469  34.316  32.738  1.00  0.00    -0.069 N 
ATOM      2  H31 UNL     1      45.543  35.266  32.375  1.00  0.00     0.277 HD
ATOM      3  H32 UNL     1      45.782  34.486  33.694  1.00  0.00     0.277 HD
ENDROOT
BRANCH   1   4
HETATM    4  C7  UNL     1      46.344  33.432  32.056  1.00  0.00     0.205 C 
HETATM    5  C6  UNL     1      47.219  32.602  32.962  1.00  0.00     0.054 C 
HETATM    6  C5  UNL     1      48.492  33.464  33.079  1.00  0.00     0.127 C 
HETATM    7  N2  UNL     1      48.638  34.068  31.805  1.00  0.00    -0.356 N 
HETATM    8  C20 UNL     1      47.286  34.155  31.175  1.00  0.00     0.158 C 
BRANCH   7   9
HETATM    9  C4  UNL     1      49.724  34.594  31.103  1.00  0.00     0.170 C 
HETATM   10  S1  UNL     1      51.127  33.677  30.990  1.00  0.00    -0.041 SA
BRANCH   9  11
HETATM   11  N1  UNL     1      49.785  35.822  30.470  1.00  0.00    -0.364 N 
ATOM     12  H1  UNL     1      49.614  36.638  31.057  1.00  0.00     0.162 HD
BRANCH  11  13
HETATM   13  C3  UNL     1      50.065  36.094  29.059  1.00  0.00     0.148 C 
BRANCH  13  14
HETATM   14  C2  UNL     1      48.794  36.545  28.444  1.00  0.00    -0.018 C 
HETATM   15  C1  UNL     1      48.739  37.606  27.662  1.00  0.00     0.008 C 
ENDBRANCH  13  14
ENDBRANCH  11  13
ENDBRANCH   9  11
ENDBRANCH   7   9
ENDBRANCH   1   4
BRANCH   1  16
HETATM   16  C8  UNL     1      44.125  33.854  32.709  1.00  0.00     0.233 C 
BRANCH  16  17
HETATM   17  C9  UNL     1      43.806  32.978  31.555  1.00  0.00     0.037 C 
BRANCH  17  18
HETATM   18  C10 UNL     1      42.761  31.941  31.958  1.00  0.00    -0.038 C 
HETATM   19  C11 UNL     1      41.949  32.351  33.137  1.00  0.00     0.014 C 
HETATM   20  C12 UNL     1      40.940  31.234  33.406  1.00  0.00    -0.013 C 
HETATM   21  C13 UNL     1      41.735  30.052  33.889  1.00  0.00     0.009 C 
HETATM   22  C17 UNL     1      40.119  30.941  32.178  1.00  0.00     0.009 C 
HETATM   23  C14 UNL     1      42.629  29.604  32.772  1.00  0.00    -0.013 C 
HETATM   24  C15 UNL     1      41.760  29.225  31.583  1.00  0.00     0.009 C 
HETATM   25  C19 UNL     1      43.582  30.712  32.385  1.00  0.00     0.014 C 
HETATM   26  C16 UNL     1      41.037  30.431  31.093  1.00  0.00    -0.013 C 
HETATM   27  C18 UNL     1      41.969  31.584  30.755  1.00  0.00     0.014 C 
ENDBRANCH  17  18
ENDBRANCH  16  17
ENDBRANCH   1  16
TORSDOF 8
ENDMDL
MODEL 4
REMARK VINA RESULT: -8.377317466      4.170      9.052
REMARK  8 active torsions:
REMARK  status: ('A' for Active; 'I' for Inactive)
REMARK    1  A    between atoms: C2_2  and  C3_3 
REMARK    2  A    between atoms: C3_3  and  N1_4 
REMARK    3  A    between atoms: N1_4  and  C4_6 
REMARK    4  A    between atoms: C4_6  and  N2_8 
REMARK    5  A    between atoms: C7_11  and  N3_12 
REMARK    6  A    between atoms: N3_12  and  C8_15 
REMARK    7  A    between atoms: C8_15  and  C9_16 
REMARK    8  A    between atoms: C9_16  and  C10_17 
ROOT
HETATM    1  N3  UNL     1      42.558  32.016  31.368  1.00  0.00    -0.069 N 
ATOM      2  H31 UNL     1      42.590  33.036  31.378  1.00  0.00     0.277 HD
ATOM      3  H32 UNL     1      41.832  31.886  30.664  1.00  0.00     0.277 HD
ENDROOT
BRANCH   1   4
HETATM    4  C7  UNL     1      42.156  31.500  32.627  1.00  0.00     0.205 C 
HETATM    5  C6  UNL     1      42.657  30.106  32.916  1.00  0.00     0.054 C 
HETATM    6  C5  UNL     1      41.503  29.224  32.401  1.00  0.00     0.127 C 
HETATM    7  N2  UNL     1      40.327  29.958  32.695  1.00  0.00    -0.356 N 
HETATM    8  C20 UNL     1      40.686  31.408  32.745  1.00  0.00     0.158 C 
BRANCH   7   9
HETATM    9  C4  UNL     1      38.990  29.606  32.891  1.00  0.00     0.170 C 
HETATM   10  S1  UNL     1      37.850  30.126  31.773  1.00  0.00    -0.041 SA
BRANCH   9  11
HETATM   11  N1  UNL     1      38.476  28.855  33.933  1.00  0.00    -0.364 N 
ATOM     12  H1  UNL     1      37.524  28.510  33.810  1.00  0.00     0.162 HD
BRANCH  11  13
HETATM   13  C3  UNL     1      39.131  28.497  35.192  1.00  0.00     0.148 C 
BRANCH  13  14
HETATM   14  C2  UNL     1      38.313  27.433  35.819  1.00  0.00    -0.018 C 
HETATM   15  C1  UNL     1      38.225  27.305  37.129  1.00  0.00     0.008 C 
ENDBRANCH  13  14
ENDBRANCH  11  13
ENDBRANCH   9  11
ENDBRANCH   7   9
ENDBRANCH   1   4
BRANCH   1  16
HETATM   16  C8  UNL     1      43.796  31.464  30.942  1.00  0.00     0.233 C 
BRANCH  16  17
HETATM   17  C9  UNL     1      44.633  32.390  30.139  1.00  0.00     0.037 C 
BRANCH  17  18
HETATM   18  C10 UNL     1      45.692  33.040  31.027  1.00  0.00    -0.038 C 
HETATM   19  C11 UNL     1      45.325  34.412  31.473  1.00  0.00     0.014 C 
HETATM   20  C12 UNL     1      46.460  34.921  32.363  1.00  0.00    -0.013 C 
HETATM   21  C13 UNL     1      47.646  35.124  31.461  1.00  0.00     0.009 C 
HETATM   22  C17 UNL     1      46.726  33.966  33.497  1.00  0.00     0.009 C 
HETATM   23  C14 UNL     1      48.053  33.787  30.918  1.00  0.00    -0.013 C 
HETATM   24  C15 UNL     1      48.407  32.881  32.087  1.00  0.00     0.009 C 
HETATM   25  C19 UNL     1      46.924  33.180  30.115  1.00  0.00     0.014 C 
HETATM   26  C16 UNL     1      47.195  32.651  32.921  1.00  0.00    -0.013 C 
HETATM   27  C18 UNL     1      46.023  32.099  32.125  1.00  0.00     0.014 C 
ENDBRANCH  17  18
ENDBRANCH  16  17
ENDBRANCH   1  16
TORSDOF 8
ENDMDL
MODEL 5
REMARK VINA RESULT: -8.368425119      4.171      9.043
REMARK  8 active torsions:
REMARK  status: ('A' for Active; 'I' for Inactive)
REMARK    1  A    between atoms: C2_2  and  C3_3 
REMARK    2  A    between atoms: C3_3  and  N1_4 
REMARK    3  A    between atoms: N1_4  and  C4_6 
REMARK    4  A    between atoms: C4_6  and  N2_8 
REMARK    5  A    between atoms: C7_11  and  N3_12 
REMARK    6  A    between atoms: N3_12  and  C8_15 
REMARK    7  A    between atoms: C8_15  and  C9_16 
REMARK    8  A    between atoms: C9_16  and  C10_17 
ROOT
HETATM    1  N3  UNL     1      42.609  32.007  31.366  1.00  0.00    -0.069 N 
ATOM      2  H31 UNL     1      42.628  33.025  31.421  1.00  0.00     0.277 HD
ATOM      3  H32 UNL     1      41.864  31.899  30.678  1.00  0.00     0.277 HD
ENDROOT
BRANCH   1   4
HETATM    4  C7  UNL     1      42.250  31.429  32.611  1.00  0.00     0.205 C 
HETATM    5  C6  UNL     1      42.787  30.036  32.829  1.00  0.00     0.054 C 
HETATM    6  C5  UNL     1      41.638  29.151  32.306  1.00  0.00     0.127 C 
HETATM    7  N2  UNL     1      40.455  29.847  32.659  1.00  0.00    -0.356 N 
HETATM    8  C20 UNL     1      40.785  31.301  32.761  1.00  0.00     0.158 C 
BRANCH   7   9
HETATM    9  C4  UNL     1      39.131  29.458  32.873  1.00  0.00     0.170 C 
HETATM   10  S1  UNL     1      37.935  30.106  31.889  1.00  0.00    -0.041 SA
BRANCH   9  11
HETATM   11  N1  UNL     1      38.673  28.573  33.833  1.00  0.00    -0.364 N 
ATOM     12  H1  UNL     1      38.002  27.874  33.514  1.00  0.00     0.162 HD
BRANCH  11  13
HETATM   13  C3  UNL     1      39.034  28.518  35.250  1.00  0.00     0.148 C 
BRANCH  13  14
HETATM   14  C2  UNL     1      38.241  27.422  35.856  1.00  0.00    -0.018 C 
HETATM   15  C1  UNL     1      38.196  27.238  37.162  1.00  0.00     0.008 C 
ENDBRANCH  13  14
ENDBRANCH  11  13
ENDBRANCH   9  11
ENDBRANCH   7   9
ENDBRANCH   1   4
BRANCH   1  16
HETATM   16  C8  UNL     1      43.841  31.490  30.880  1.00  0.00     0.233 C 
BRANCH  16  17
HETATM   17  C9  UNL     1      44.650  32.467  30.112  1.00  0.00     0.037 C 
BRANCH  17  18
HETATM   18  C10 UNL     1      45.813  32.969  30.966  1.00  0.00    -0.038 C 
HETATM   19  C11 UNL     1      46.080  32.116  32.157  1.00  0.00     0.014 C 
HETATM   20  C12 UNL     1      47.274  32.724  32.894  1.00  0.00    -0.013 C 
HETATM   21  C13 UNL     1      46.797  34.030  33.467  1.00  0.00     0.009 C 
HETATM   22  C17 UNL     1      48.459  32.869  31.976  1.00  0.00     0.009 C 
HETATM   23  C14 UNL     1      46.450  34.940  32.327  1.00  0.00    -0.013 C 
HETATM   24  C15 UNL     1      47.695  35.141  31.476  1.00  0.00     0.009 C 
HETATM   25  C19 UNL     1      45.343  34.337  31.491  1.00  0.00     0.014 C 
HETATM   26  C16 UNL     1      48.101  33.840  30.876  1.00  0.00    -0.013 C 
HETATM   27  C18 UNL     1      46.985  33.180  30.080  1.00  0.00     0.014 C 
ENDBRANCH  17  18
ENDBRANCH  16  17
ENDBRANCH   1  16
TORSDOF 8
ENDMDL
