MODEL 1
REMARK VINA RESULT: -8.386814947      0.000      0.000
REMARK  10 active torsions:
REMARK  status: ('A' for Active; 'I' for Inactive)
REMARK    1  A    between atoms: C3_3  and  C4_4 
REMARK    2  A    between atoms: C4_4  and  N1_7 
REMARK       I    between atoms: N1_7  and  C7_9 
REMARK    3  A    between atoms: C7_9  and  C8_11 
REMARK    4  A    between atoms: N2_14  and  C11_15 
REMARK    5  A    between atoms: C11_15  and  N3_17 
REMARK    6  A    between atoms: N3_17  and  C12_19 
REMARK    7  A    between atoms: C12_19  and  C13_20 
REMARK    8  A    between atoms: C13_20  and  C14_21 
REMARK    9  A    between atoms: C14_21  and  C15_22 
REMARK   10  A    between atoms: C15_22  and  C16_23 
ROOT
HETATM    1  C1  UNL     1      48.764  37.436  27.810  1.00  0.00     0.112 C 
HETATM    2  C2  UNL     1      48.698  36.263  28.693  1.00  0.00    -0.108 C 
HETATM    3  C3  UNL     1      48.639  35.302  29.431  1.00  0.00    -0.076 C 
ENDROOT
BRANCH   3   4
HETATM    4  C4  UNL     1      48.577  34.142  30.341  1.00  0.00     0.089 C 
HETATM    5  C5  UNL     1      49.371  33.042  29.724  1.00  0.00     0.053 C 
HETATM    6  C6  UNL     1      49.241  34.547  31.663  1.00  0.00     0.053 C 
BRANCH   4   7
HETATM    7  N1  UNL     1      47.215  33.754  30.531  1.00  0.00    -0.341 N 
HETATM    8  C7  UNL     1      46.793  33.014  31.664  1.00  0.00     0.223 C 
HETATM    9  O1  UNL     1      47.638  32.685  32.533  1.00  0.00    -0.273 OA
ATOM     10  H1  UNL     1      46.524  34.017  29.828  1.00  0.00     0.164 HD
BRANCH   8  11
HETATM   11  C8  UNL     1      45.387  32.613  31.861  1.00  0.00     0.081 C 
HETATM   12  C9  UNL     1      44.538  33.687  32.442  1.00  0.00     0.034 C 
HETATM   13  C10 UNL     1      43.166  33.171  32.732  1.00  0.00     0.126 C 
HETATM   14  N2  UNL     1      42.669  32.180  31.833  1.00  0.00    -0.358 N 
HETATM   15  C18 UNL     1      43.509  31.426  30.913  1.00  0.00     0.126 C 
HETATM   16  C19 UNL     1      44.743  32.212  30.525  1.00  0.00     0.034 C 
BRANCH  14  17
HETATM   17  C11 UNL     1      41.264  31.889  31.818  1.00  0.00     0.169 C 
HETATM   18  S1  UNL     1      40.466  31.760  30.401  1.00  0.00    -0.041 SA
BRANCH  17  19
HETATM   19  N3  UNL     1      40.535  31.733  33.017  1.00  0.00    -0.367 N 
ATOM     20  H3  UNL     1      39.825  32.428  33.249  1.00  0.00     0.161 HD
BRANCH  19  21
HETATM   21  C12 UNL     1      40.751  30.623  33.940  1.00  0.00     0.122 C 
BRANCH  21  22
HETATM   22  C13 UNL     1      39.529  29.850  34.220  1.00  0.00     0.020 C 
BRANCH  22  23
HETATM   23  C14 UNL     1      39.553  28.704  35.135  1.00  0.00     0.002 C 
BRANCH  23  24
HETATM   24  C15 UNL     1      38.373  27.925  35.511  1.00  0.00    -0.000 C 
BRANCH  24  25
HETATM   25  C16 UNL     1      38.207  27.513  36.920  1.00  0.00    -0.005 C 
HETATM   26  C17 UNL     1      36.867  26.749  37.044  1.00  0.00     0.005 C 
ENDBRANCH  24  25
ENDBRANCH  23  24
ENDBRANCH  22  23
ENDBRANCH  21  22
ENDBRANCH  19  21
ENDBRANCH  17  19
ENDBRANCH  14  17
ENDBRANCH   8  11
ENDBRANCH   4   7
ENDBRANCH   3   4
TORSDOF 10
ENDMDL
MODEL 2
REMARK VINA RESULT: -8.304569896      1.735      2.359
REMARK  10 active torsions:
REMARK  status: ('A' for Active; 'I' for Inactive)
REMARK    1  A    between atoms: C3_3  and  C4_4 
REMARK    2  A    between atoms: C4_4  and  N1_7 
REMARK       I    between atoms: N1_7  and  C7_9 
REMARK    3  A    between atoms: C7_9  and  C8_11 
REMARK    4  A    between atoms: N2_14  and  C11_15 
REMARK    5  A    between atoms: C11_15  and  N3_17 
REMARK    6  A    between atoms: N3_17  and  C12_19 
REMARK    7  A    between atoms: C12_19  and  C13_20 
REMARK    8  A    between atoms: C13_20  and  C14_21 
REMARK    9  A    between atoms: C14_21  and  C15_22 
REMARK   10  A    between atoms: C15_22  and  C16_23 
ROOT
HETATM    1  C1  UNL     1      48.681  33.477  28.747  1.00  0.00     0.112 C 
HETATM    2  C2  UNL     1      48.228  33.457  30.146  1.00  0.00    -0.108 C 
HETATM    3  C3  UNL     1      47.843  33.440  31.296  1.00  0.00    -0.076 C 
ENDROOT
BRANCH   3   4
HETATM    4  C4  UNL     1      47.362  33.430  32.690  1.00  0.00     0.089 C 
HETATM    5  C5  UNL     1      48.439  32.839  33.535  1.00  0.00     0.053 C 
HETATM    6  C6  UNL     1      47.142  34.886  33.121  1.00  0.00     0.053 C 
BRANCH   4   7
HETATM    7  N1  UNL     1      46.158  32.665  32.778  1.00  0.00    -0.341 N 
HETATM    8  C7  UNL     1      44.970  33.048  32.106  1.00  0.00     0.223 C 
HETATM    9  O1  UNL     1      44.968  34.093  31.410  1.00  0.00    -0.273 OA
ATOM     10  H1  UNL     1      46.153  31.816  33.343  1.00  0.00     0.164 HD
BRANCH   8  11
HETATM   11  C8  UNL     1      43.728  32.259  32.196  1.00  0.00     0.081 C 
HETATM   12  C9  UNL     1      42.639  32.946  32.941  1.00  0.00     0.034 C 
HETATM   13  C10 UNL     1      41.461  32.040  33.101  1.00  0.00     0.126 C 
HETATM   14  N2  UNL     1      41.223  31.131  32.027  1.00  0.00    -0.358 N 
HETATM   15  C18 UNL     1      42.208  30.805  31.006  1.00  0.00     0.126 C 
HETATM   16  C19 UNL     1      43.178  31.948  30.795  1.00  0.00     0.034 C 
BRANCH  14  17
HETATM   17  C11 UNL     1      39.946  30.484  31.927  1.00  0.00     0.169 C 
HETATM   18  S1  UNL     1      38.811  31.057  30.906  1.00  0.00    -0.041 SA
BRANCH  17  19
HETATM   19  N3  UNL     1      39.629  29.359  32.721  1.00  0.00    -0.367 N 
ATOM     20  H3  UNL     1      40.003  28.450  32.448  1.00  0.00     0.161 HD
BRANCH  19  21
HETATM   21  C12 UNL     1      38.791  29.439  33.913  1.00  0.00     0.122 C 
BRANCH  21  22
HETATM   22  C13 UNL     1      39.390  28.791  35.093  1.00  0.00     0.020 C 
BRANCH  22  23
HETATM   23  C14 UNL     1      38.755  27.627  35.719  1.00  0.00     0.002 C 
BRANCH  23  24
HETATM   24  C15 UNL     1      38.345  27.569  37.123  1.00  0.00    -0.000 C 
BRANCH  24  25
HETATM   25  C16 UNL     1      37.008  27.032  37.455  1.00  0.00    -0.005 C 
HETATM   26  C17 UNL     1      36.482  26.258  36.223  1.00  0.00     0.005 C 
ENDBRANCH  24  25
ENDBRANCH  23  24
ENDBRANCH  22  23
ENDBRANCH  21  22
ENDBRANCH  19  21
ENDBRANCH  17  19
ENDBRANCH  14  17
ENDBRANCH   8  11
ENDBRANCH   4   7
ENDBRANCH   3   4
TORSDOF 10
ENDMDL
MODEL 3
REMARK VINA RESULT: -8.007040205      0.886      2.059
REMARK  10 active torsions:
REMARK  status: ('A' for Active; 'I' for Inactive)
REMARK    1  A    between atoms: C3_3  and  C4_4 
REMARK    2  A    between atoms: C4_4  and  N1_7 
REMARK       I    between atoms: N1_7  and  C7_9 
REMARK    3  A    between atoms: C7_9  and  C8_11 
REMARK    4  A    between atoms: N2_14  and  C11_15 
REMARK    5  A    between atoms: C11_15  and  N3_17 
REMARK    6  A    between atoms: N3_17  and  C12_19 
REMARK    7  A    between atoms: C12_19  and  C13_20 
REMARK    8  A    between atoms: C13_20  and  C14_21 
REMARK    9  A    between atoms: C14_21  and  C15_22 
REMARK   10  A    between atoms: C15_22  and  C16_23 
ROOT
HETATM    1  C1  UNL     1      51.458  31.150  29.478  1.00  0.00     0.112 C 
HETATM    2  C2  UNL     1      50.564  32.307  29.627  1.00  0.00    -0.108 C 
HETATM    3  C3  UNL     1      49.820  33.256  29.761  1.00  0.00    -0.076 C 
ENDROOT
BRANCH   3   4
HETATM    4  C4  UNL     1      48.903  34.400  29.924  1.00  0.00     0.089 C 
HETATM    5  C5  UNL     1      49.400  35.217  31.069  1.00  0.00     0.053 C 
HETATM    6  C6  UNL     1      48.975  35.247  28.647  1.00  0.00     0.053 C 
BRANCH   4   7
HETATM    7  N1  UNL     1      47.578  33.923  30.167  1.00  0.00    -0.341 N 
HETATM    8  C7  UNL     1      47.219  33.276  31.376  1.00  0.00     0.223 C 
HETATM    9  O1  UNL     1      48.089  33.113  32.268  1.00  0.00    -0.273 OA
ATOM     10  H1  UNL     1      46.867  34.051  29.447  1.00  0.00     0.164 HD
BRANCH   8  11
HETATM   11  C8  UNL     1      45.852  32.784  31.628  1.00  0.00     0.081 C 
HETATM   12  C9  UNL     1      45.042  33.690  32.486  1.00  0.00     0.034 C 
HETATM   13  C10 UNL     1      43.720  33.068  32.802  1.00  0.00     0.126 C 
HETATM   14  N2  UNL     1      43.157  32.246  31.781  1.00  0.00    -0.358 N 
HETATM   15  C18 UNL     1      43.914  31.718  30.656  1.00  0.00     0.126 C 
HETATM   16  C19 UNL     1      45.082  32.617  30.309  1.00  0.00     0.034 C 
BRANCH  14  17
HETATM   17  C11 UNL     1      41.766  31.902  31.847  1.00  0.00     0.169 C 
HETATM   18  S1  UNL     1      40.994  31.337  30.525  1.00  0.00    -0.041 SA
BRANCH  17  19
HETATM   19  N3  UNL     1      41.025  32.064  33.039  1.00  0.00    -0.367 N 
ATOM     20  H3  UNL     1      40.676  32.994  33.272  1.00  0.00     0.161 HD
BRANCH  19  21
HETATM   21  C12 UNL     1      40.738  30.962  33.952  1.00  0.00     0.122 C 
BRANCH  21  22
HETATM   22  C13 UNL     1      39.317  30.572  33.967  1.00  0.00     0.020 C 
BRANCH  22  23
HETATM   23  C14 UNL     1      38.919  29.180  34.199  1.00  0.00     0.002 C 
BRANCH  23  24
HETATM   24  C15 UNL     1      39.073  28.481  35.475  1.00  0.00    -0.000 C 
BRANCH  24  25
HETATM   25  C16 UNL     1      38.339  27.216  35.691  1.00  0.00    -0.005 C 
HETATM   26  C17 UNL     1      37.967  27.126  37.190  1.00  0.00     0.005 C 
ENDBRANCH  24  25
ENDBRANCH  23  24
ENDBRANCH  22  23
ENDBRANCH  21  22
ENDBRANCH  19  21
ENDBRANCH  17  19
ENDBRANCH  14  17
ENDBRANCH   8  11
ENDBRANCH   4   7
ENDBRANCH   3   4
TORSDOF 10
ENDMDL
MODEL 4
REMARK VINA RESULT: -7.828773932      2.370      3.486
REMARK  10 active torsions:
REMARK  status: ('A' for Active; 'I' for Inactive)
REMARK    1  A    between atoms: C3_3  and  C4_4 
REMARK    2  A    between atoms: C4_4  and  N1_7 
REMARK       I    between atoms: N1_7  and  C7_9 
REMARK    3  A    between atoms: C7_9  and  C8_11 
REMARK    4  A    between atoms: N2_14  and  C11_15 
REMARK    5  A    between atoms: C11_15  and  N3_17 
REMARK    6  A    between atoms: N3_17  and  C12_19 
REMARK    7  A    between atoms: C12_19  and  C13_20 
REMARK    8  A    between atoms: C13_20  and  C14_21 
REMARK    9  A    between atoms: C14_21  and  C15_22 
REMARK   10  A    between atoms: C15_22  and  C16_23 
ROOT
HETATM    1  C1  UNL     1      48.427  32.925  33.495  1.00  0.00     0.112 C 
HETATM    2  C2  UNL     1      47.477  32.894  32.374  1.00  0.00    -0.108 C 
HETATM    3  C3  UNL     1      46.702  32.864  31.441  1.00  0.00    -0.076 C 
ENDROOT
BRANCH   3   4
HETATM    4  C4  UNL     1      45.772  32.835  30.296  1.00  0.00     0.089 C 
HETATM    5  C5  UNL     1      45.423  34.245  29.962  1.00  0.00     0.053 C 
HETATM    6  C6  UNL     1      46.512  32.215  29.105  1.00  0.00     0.053 C 
BRANCH   4   7
HETATM    7  N1  UNL     1      44.607  32.083  30.644  1.00  0.00    -0.341 N 
HETATM    8  C7  UNL     1      43.786  32.430  31.746  1.00  0.00     0.223 C 
HETATM    9  O1  UNL     1      44.086  33.430  32.445  1.00  0.00    -0.273 OA
ATOM     10  H1  UNL     1      44.358  31.270  30.080  1.00  0.00     0.164 HD
BRANCH   8  11
HETATM   11  C8  UNL     1      42.583  31.656  32.104  1.00  0.00     0.081 C 
HETATM   12  C9  UNL     1      41.754  32.300  33.158  1.00  0.00     0.034 C 
HETATM   13  C10 UNL     1      40.628  31.402  33.559  1.00  0.00     0.126 C 
HETATM   14  N2  UNL     1      40.083  30.584  32.525  1.00  0.00    -0.358 N 
HETATM   15  C18 UNL     1      40.753  30.324  31.259  1.00  0.00     0.126 C 
HETATM   16  C19 UNL     1      41.674  31.464  30.881  1.00  0.00     0.034 C 
BRANCH  14  17
HETATM   17  C11 UNL     1      38.803  29.966  32.721  1.00  0.00     0.169 C 
HETATM   18  S1  UNL     1      37.625  30.144  31.607  1.00  0.00    -0.041 SA
BRANCH  17  19
HETATM   19  N3  UNL     1      38.520  29.217  33.885  1.00  0.00    -0.367 N 
ATOM     20  H3  UNL     1      37.571  29.237  34.258  1.00  0.00     0.161 HD
BRANCH  19  21
HETATM   21  C12 UNL     1      39.525  28.415  34.576  1.00  0.00     0.122 C 
BRANCH  21  22
HETATM   22  C13 UNL     1      39.114  27.015  34.781  1.00  0.00     0.020 C 
BRANCH  22  23
HETATM   23  C14 UNL     1      38.771  26.516  36.116  1.00  0.00     0.002 C 
BRANCH  23  24
HETATM   24  C15 UNL     1      38.169  27.333  37.171  1.00  0.00    -0.000 C 
BRANCH  24  25
HETATM   25  C16 UNL     1      36.713  27.236  37.407  1.00  0.00    -0.005 C 
HETATM   26  C17 UNL     1      36.170  26.048  36.578  1.00  0.00     0.005 C 
ENDBRANCH  24  25
ENDBRANCH  23  24
ENDBRANCH  22  23
ENDBRANCH  21  22
ENDBRANCH  19  21
ENDBRANCH  17  19
ENDBRANCH  14  17
ENDBRANCH   8  11
ENDBRANCH   4   7
ENDBRANCH   3   4
TORSDOF 10
ENDMDL
MODEL 5
REMARK VINA RESULT: -7.575906838      1.603      2.316
REMARK  10 active torsions:
REMARK  status: ('A' for Active; 'I' for Inactive)
REMARK    1  A    between atoms: C3_3  and  C4_4 
REMARK    2  A    between atoms: C4_4  and  N1_7 
REMARK       I    between atoms: N1_7  and  C7_9 
REMARK    3  A    between atoms: C7_9  and  C8_11 
REMARK    4  A    between atoms: N2_14  and  C11_15 
REMARK    5  A    between atoms: C11_15  and  N3_17 
REMARK    6  A    between atoms: N3_17  and  C12_19 
REMARK    7  A    between atoms: C12_19  and  C13_20 
REMARK    8  A    between atoms: C13_20  and  C14_21 
REMARK    9  A    between atoms: C14_21  and  C15_22 
REMARK   10  A    between atoms: C15_22  and  C16_23 
ROOT
HETATM    1  C1  UNL     1      48.583  37.412  27.817  1.00  0.00     0.112 C 
HETATM    2  C2  UNL     1      48.875  36.178  28.560  1.00  0.00    -0.108 C 
HETATM    3  C3  UNL     1      49.107  35.154  29.167  1.00  0.00    -0.076 C 
ENDROOT
BRANCH   3   4
HETATM    4  C4  UNL     1      49.373  33.906  29.907  1.00  0.00     0.089 C 
HETATM    5  C5  UNL     1      50.295  33.077  29.079  1.00  0.00     0.053 C 
HETATM    6  C6  UNL     1      50.085  34.277  31.214  1.00  0.00     0.053 C 
BRANCH   4   7
HETATM    7  N1  UNL     1      48.142  33.221  30.152  1.00  0.00    -0.341 N 
HETATM    8  C7  UNL     1      47.119  33.776  30.961  1.00  0.00     0.223 C 
HETATM    9  O1  UNL     1      47.292  34.905  31.483  1.00  0.00    -0.273 OA
ATOM     10  H1  UNL     1      47.996  32.304  29.731  1.00  0.00     0.164 HD
BRANCH   8  11
HETATM   11  C8  UNL     1      45.848  33.071  31.214  1.00  0.00     0.081 C 
HETATM   12  C9  UNL     1      44.825  33.913  31.889  1.00  0.00     0.034 C 
HETATM   13  C10 UNL     1      43.618  33.099  32.227  1.00  0.00     0.126 C 
HETATM   14  N2  UNL     1      43.292  32.056  31.309  1.00  0.00    -0.358 N 
HETATM   15  C18 UNL     1      44.215  31.536  30.311  1.00  0.00     0.126 C 
HETATM   16  C19 UNL     1      45.223  32.586  29.896  1.00  0.00     0.034 C 
BRANCH  14  17
HETATM   17  C11 UNL     1      41.985  31.466  31.355  1.00  0.00     0.169 C 
HETATM   18  S1  UNL     1      41.816  29.844  31.413  1.00  0.00    -0.041 SA
BRANCH  17  19
HETATM   19  N3  UNL     1      40.818  32.262  31.326  1.00  0.00    -0.367 N 
ATOM     20  H3  UNL     1      40.679  32.948  32.068  1.00  0.00     0.161 HD
BRANCH  19  21
HETATM   21  C12 UNL     1      39.804  32.147  30.284  1.00  0.00     0.122 C 
BRANCH  21  22
HETATM   22  C13 UNL     1      38.473  31.785  30.802  1.00  0.00     0.020 C 
BRANCH  22  23
HETATM   23  C14 UNL     1      38.193  30.428  31.283  1.00  0.00     0.002 C 
BRANCH  23  24
HETATM   24  C15 UNL     1      37.848  30.100  32.667  1.00  0.00    -0.000 C 
BRANCH  24  25
HETATM   25  C16 UNL     1      38.844  30.347  33.730  1.00  0.00    -0.005 C 
HETATM   26  C17 UNL     1      39.185  28.992  34.394  1.00  0.00     0.005 C 
ENDBRANCH  24  25
ENDBRANCH  23  24
ENDBRANCH  22  23
ENDBRANCH  21  22
ENDBRANCH  19  21
ENDBRANCH  17  19
ENDBRANCH  14  17
ENDBRANCH   8  11
ENDBRANCH   4   7
ENDBRANCH   3   4
TORSDOF 10
ENDMDL
