MODEL 1
REMARK VINA RESULT: -8.846312773      0.000      0.000
REMARK  6 active torsions:
REMARK  status: ('A' for Active; 'I' for Inactive)
REMARK    1  A    between atoms: N1_2  and  C2_3 
REMARK    2  A    between atoms: N1_2  and  C17_23 
REMARK    3  A    between atoms: C2_3  and  C3_4 
REMARK    4  A    between atoms: C3_4  and  C4_5 
REMARK    5  A    between atoms: C4_5  and  N2_6 
REMARK       I    between atoms: N2_6  and  C5_8 
REMARK       I    between atoms: C5_8  and  N3_10 
REMARK    6  A    between atoms: N3_10  and  C6_12 
ROOT
HETATM    1  N2  UNL     1      44.699  33.323  31.606  1.00  0.00    -0.343 N 
ATOM      2  H2  UNL     1      45.203  32.729  30.948  1.00  0.00     0.164 HD
HETATM    3  C5  UNL     1      43.341  32.972  31.960  1.00  0.00     0.316 C 
HETATM    4  O1  UNL     1      42.799  33.756  32.770  1.00  0.00    -0.247 OA
HETATM    5  N3  UNL     1      42.728  31.827  31.405  1.00  0.00    -0.334 N 
ATOM      6  H3  UNL     1      43.294  31.287  30.750  1.00  0.00     0.165 HD
ENDROOT
BRANCH   1   7
HETATM    7  C4  UNL     1      45.366  34.476  32.146  1.00  0.00     0.126 C 
BRANCH   7   8
HETATM    8  C3  UNL     1      46.631  34.114  32.879  1.00  0.00     0.050 C 
BRANCH   8   9
HETATM    9  C2  UNL     1      47.828  34.527  32.043  1.00  0.00     0.274 C 
BRANCH   9  10
HETATM   10  N1  UNL     1      48.427  33.359  31.460  1.00  0.00     0.088 N 
HETATM   11  C1  UNL     1      49.716  33.049  32.051  1.00  0.00     0.310 C 
BRANCH  10  12
HETATM   12  C17 UNL     1      48.464  33.336  30.027  1.00  0.00     0.222 C 
HETATM   13  C18 UNL     1      48.021  34.596  29.374  1.00  0.00     0.036 C 
HETATM   14  C19 UNL     1      49.233  35.081  28.603  1.00  0.00     0.002 C 
HETATM   15  C20 UNL     1      49.904  33.794  28.209  1.00  0.00     0.002 C 
HETATM   16  C21 UNL     1      49.798  32.943  29.457  1.00  0.00     0.036 C 
ENDBRANCH  10  12
ENDBRANCH   9  10
ENDBRANCH   8   9
ENDBRANCH   7   8
ENDBRANCH   1   7
BRANCH   5  17
HETATM   17  C6  UNL     1      41.396  31.333  31.654  1.00  0.00     0.036 C 
HETATM   18  C7  UNL     1      40.934  30.424  30.553  1.00  0.00     0.035 C 
HETATM   19  C8  UNL     1      39.611  31.059  30.673  1.00  0.00    -0.009 C 
HETATM   20  C9  UNL     1      38.546  30.410  31.392  1.00  0.00     0.009 C 
HETATM   21  C16 UNL     1      40.305  32.231  31.286  1.00  0.00     0.035 C 
HETATM   22  C10 UNL     1      38.577  29.842  32.711  1.00  0.00    -0.013 C 
HETATM   23  C11 UNL     1      38.995  30.681  33.876  1.00  0.00     0.014 C 
HETATM   24  C14 UNL     1      39.644  28.913  33.139  1.00  0.00     0.014 C 
HETATM   25  C12 UNL     1      40.346  30.107  33.703  1.00  0.00    -0.041 C 
HETATM   26  C13 UNL     1      40.922  29.758  35.108  1.00  0.00     0.015 C 
HETATM   27  C15 UNL     1      41.398  30.757  33.007  1.00  0.00     0.040 C 
ENDBRANCH   5  17
TORSDOF 6
ENDMDL
MODEL 2
REMARK VINA RESULT: -8.829062259      0.867      1.254
REMARK  6 active torsions:
REMARK  status: ('A' for Active; 'I' for Inactive)
REMARK    1  A    between atoms: N1_2  and  C2_3 
REMARK    2  A    between atoms: N1_2  and  C17_23 
REMARK    3  A    between atoms: C2_3  and  C3_4 
REMARK    4  A    between atoms: C3_4  and  C4_5 
REMARK    5  A    between atoms: C4_5  and  N2_6 
REMARK       I    between atoms: N2_6  and  C5_8 
REMARK       I    between atoms: C5_8  and  N3_10 
REMARK    6  A    between atoms: N3_10  and  C6_12 
ROOT
HETATM    1  N2  UNL     1      44.783  33.379  32.564  1.00  0.00    -0.343 N 
ATOM      2  H2  UNL     1      45.424  32.756  32.074  1.00  0.00     0.164 HD
HETATM    3  C5  UNL     1      43.387  33.010  32.651  1.00  0.00     0.316 C 
HETATM    4  O1  UNL     1      42.673  33.833  33.267  1.00  0.00    -0.247 OA
HETATM    5  N3  UNL     1      42.925  31.809  32.070  1.00  0.00    -0.334 N 
ATOM      6  H3  UNL     1      43.625  31.242  31.592  1.00  0.00     0.165 HD
ENDROOT
BRANCH   1   7
HETATM    7  C4  UNL     1      45.301  34.589  33.141  1.00  0.00     0.126 C 
BRANCH   7   8
HETATM    8  C3  UNL     1      46.745  34.820  32.784  1.00  0.00     0.050 C 
BRANCH   8   9
HETATM    9  C2  UNL     1      47.051  34.128  31.467  1.00  0.00     0.274 C 
BRANCH   9  10
HETATM   10  N1  UNL     1      48.215  33.301  31.624  1.00  0.00     0.088 N 
HETATM   11  C1  UNL     1      48.609  33.166  33.014  1.00  0.00     0.310 C 
BRANCH  10  12
HETATM   12  C17 UNL     1      49.320  33.625  30.772  1.00  0.00     0.222 C 
HETATM   13  C18 UNL     1      50.644  33.165  31.267  1.00  0.00     0.036 C 
HETATM   14  C19 UNL     1      51.141  32.199  30.209  1.00  0.00     0.002 C 
HETATM   15  C20 UNL     1      50.558  32.773  28.947  1.00  0.00     0.002 C 
HETATM   16  C21 UNL     1      49.152  33.163  29.351  1.00  0.00     0.036 C 
ENDBRANCH  10  12
ENDBRANCH   9  10
ENDBRANCH   8   9
ENDBRANCH   7   8
ENDBRANCH   1   7
BRANCH   5  17
HETATM   17  C6  UNL     1      41.579  31.291  32.073  1.00  0.00     0.036 C 
HETATM   18  C7  UNL     1      41.332  30.403  30.889  1.00  0.00     0.035 C 
HETATM   19  C8  UNL     1      39.997  31.017  30.789  1.00  0.00    -0.009 C 
HETATM   20  C9  UNL     1      38.835  30.336  31.297  1.00  0.00     0.009 C 
HETATM   21  C16 UNL     1      40.552  32.182  31.539  1.00  0.00     0.035 C 
HETATM   22  C10 UNL     1      38.645  29.736  32.589  1.00  0.00    -0.013 C 
HETATM   23  C11 UNL     1      38.839  30.552  33.826  1.00  0.00     0.014 C 
HETATM   24  C14 UNL     1      39.638  28.811  33.176  1.00  0.00     0.014 C 
HETATM   25  C12 UNL     1      40.210  30.001  33.880  1.00  0.00    -0.041 C 
HETATM   26  C13 UNL     1      40.538  29.626  35.356  1.00  0.00     0.015 C 
HETATM   27  C15 UNL     1      41.355  30.682  33.392  1.00  0.00     0.040 C 
ENDBRANCH   5  17
TORSDOF 6
ENDMDL
MODEL 3
REMARK VINA RESULT: -8.793176556      1.081      1.387
REMARK  6 active torsions:
REMARK  status: ('A' for Active; 'I' for Inactive)
REMARK    1  A    between atoms: N1_2  and  C2_3 
REMARK    2  A    between atoms: N1_2  and  C17_23 
REMARK    3  A    between atoms: C2_3  and  C3_4 
REMARK    4  A    between atoms: C3_4  and  C4_5 
REMARK    5  A    between atoms: C4_5  and  N2_6 
REMARK       I    between atoms: N2_6  and  C5_8 
REMARK       I    between atoms: C5_8  and  N3_10 
REMARK    6  A    between atoms: N3_10  and  C6_12 
ROOT
HETATM    1  N2  UNL     1      45.890  32.216  32.071  1.00  0.00    -0.343 N 
ATOM      2  H2  UNL     1      46.340  31.441  31.585  1.00  0.00     0.164 HD
HETATM    3  C5  UNL     1      44.451  32.202  32.218  1.00  0.00     0.316 C 
HETATM    4  O1  UNL     1      43.984  33.193  32.824  1.00  0.00    -0.247 OA
HETATM    5  N3  UNL     1      43.687  31.134  31.699  1.00  0.00    -0.334 N 
ATOM      6  H3  UNL     1      44.209  30.399  31.221  1.00  0.00     0.165 HD
ENDROOT
BRANCH   1   7
HETATM    7  C4  UNL     1      46.710  33.279  32.584  1.00  0.00     0.126 C 
BRANCH   7   8
HETATM    8  C3  UNL     1      48.107  32.819  32.905  1.00  0.00     0.050 C 
BRANCH   8   9
HETATM    9  C2  UNL     1      49.105  33.780  32.284  1.00  0.00     0.274 C 
BRANCH   9  10
HETATM   10  N1  UNL     1      49.768  33.132  31.186  1.00  0.00     0.088 N 
HETATM   11  C1  UNL     1      51.201  33.029  31.393  1.00  0.00     0.310 C 
BRANCH  10  12
HETATM   12  C17 UNL     1      49.439  33.635  29.886  1.00  0.00     0.222 C 
HETATM   13  C18 UNL     1      48.269  32.979  29.243  1.00  0.00     0.036 C 
HETATM   14  C19 UNL     1      47.255  34.090  29.056  1.00  0.00     0.002 C 
HETATM   15  C20 UNL     1      48.129  35.292  28.823  1.00  0.00     0.002 C 
HETATM   16  C21 UNL     1      49.239  35.124  29.839  1.00  0.00     0.036 C 
ENDBRANCH  10  12
ENDBRANCH   9  10
ENDBRANCH   8   9
ENDBRANCH   7   8
ENDBRANCH   1   7
BRANCH   5  17
HETATM   17  C6  UNL     1      42.257  30.961  31.765  1.00  0.00     0.036 C 
HETATM   18  C7  UNL     1      41.752  30.132  30.621  1.00  0.00     0.035 C 
HETATM   19  C8  UNL     1      40.604  31.051  30.547  1.00  0.00    -0.009 C 
HETATM   20  C9  UNL     1      39.333  30.688  31.116  1.00  0.00     0.009 C 
HETATM   21  C16 UNL     1      41.457  32.063  31.237  1.00  0.00     0.035 C 
HETATM   22  C10 UNL     1      39.057  30.184  32.434  1.00  0.00    -0.013 C 
HETATM   23  C11 UNL     1      39.495  30.958  33.636  1.00  0.00     0.014 C 
HETATM   24  C14 UNL     1      39.818  29.059  33.017  1.00  0.00     0.014 C 
HETATM   25  C12 UNL     1      40.691  30.090  33.660  1.00  0.00    -0.041 C 
HETATM   26  C13 UNL     1      40.979  29.681  35.136  1.00  0.00     0.015 C 
HETATM   27  C15 UNL     1      41.946  30.457  33.111  1.00  0.00     0.040 C 
ENDBRANCH   5  17
TORSDOF 6
ENDMDL
MODEL 4
REMARK VINA RESULT: -8.694152667      0.923      1.387
REMARK  6 active torsions:
REMARK  status: ('A' for Active; 'I' for Inactive)
REMARK    1  A    between atoms: N1_2  and  C2_3 
REMARK    2  A    between atoms: N1_2  and  C17_23 
REMARK    3  A    between atoms: C2_3  and  C3_4 
REMARK    4  A    between atoms: C3_4  and  C4_5 
REMARK    5  A    between atoms: C4_5  and  N2_6 
REMARK       I    between atoms: N2_6  and  C5_8 
REMARK       I    between atoms: C5_8  and  N3_10 
REMARK    6  A    between atoms: N3_10  and  C6_12 
ROOT
HETATM    1  N2  UNL     1      44.840  33.290  32.460  1.00  0.00    -0.343 N 
ATOM      2  H2  UNL     1      45.461  32.650  31.966  1.00  0.00     0.164 HD
HETATM    3  C5  UNL     1      43.439  32.951  32.573  1.00  0.00     0.316 C 
HETATM    4  O1  UNL     1      42.751  33.794  33.192  1.00  0.00    -0.247 OA
HETATM    5  N3  UNL     1      42.943  31.754  32.013  1.00  0.00    -0.334 N 
ATOM      6  H3  UNL     1      43.624  31.167  31.530  1.00  0.00     0.165 HD
ENDROOT
BRANCH   1   7
HETATM    7  C4  UNL     1      45.392  34.496  33.015  1.00  0.00     0.126 C 
BRANCH   7   8
HETATM    8  C3  UNL     1      46.835  34.692  32.635  1.00  0.00     0.050 C 
BRANCH   8   9
HETATM    9  C2  UNL     1      47.336  33.451  31.918  1.00  0.00     0.274 C 
BRANCH   9  10
HETATM   10  N1  UNL     1      47.862  33.824  30.634  1.00  0.00     0.088 N 
HETATM   11  C1  UNL     1      46.939  33.525  29.555  1.00  0.00     0.310 C 
BRANCH  10  12
HETATM   12  C17 UNL     1      49.192  33.366  30.358  1.00  0.00     0.222 C 
HETATM   13  C18 UNL     1      49.981  34.252  29.462  1.00  0.00     0.036 C 
HETATM   14  C19 UNL     1      51.164  34.698  30.300  1.00  0.00     0.002 C 
HETATM   15  C20 UNL     1      51.402  33.504  31.184  1.00  0.00     0.002 C 
HETATM   16  C21 UNL     1      50.007  33.078  31.588  1.00  0.00     0.036 C 
ENDBRANCH  10  12
ENDBRANCH   9  10
ENDBRANCH   8   9
ENDBRANCH   7   8
ENDBRANCH   1   7
BRANCH   5  17
HETATM   17  C6  UNL     1      41.587  31.263  32.043  1.00  0.00     0.036 C 
HETATM   18  C7  UNL     1      41.297  30.384  30.861  1.00  0.00     0.035 C 
HETATM   19  C8  UNL     1      39.973  31.025  30.793  1.00  0.00    -0.009 C 
HETATM   20  C9  UNL     1      38.809  30.366  31.323  1.00  0.00     0.009 C 
HETATM   21  C16 UNL     1      40.568  32.176  31.534  1.00  0.00     0.035 C 
HETATM   22  C10 UNL     1      38.634  29.765  32.617  1.00  0.00    -0.013 C 
HETATM   23  C11 UNL     1      38.871  30.572  33.852  1.00  0.00     0.014 C 
HETATM   24  C14 UNL     1      39.621  28.818  33.179  1.00  0.00     0.014 C 
HETATM   25  C12 UNL     1      40.231  29.993  33.874  1.00  0.00    -0.041 C 
HETATM   26  C13 UNL     1      40.584  29.606  35.341  1.00  0.00     0.015 C 
HETATM   27  C15 UNL     1      41.380  30.653  33.364  1.00  0.00     0.040 C 
ENDBRANCH   5  17
TORSDOF 6
ENDMDL
MODEL 5
REMARK VINA RESULT: -8.647457894      1.451      3.116
REMARK  6 active torsions:
REMARK  status: ('A' for Active; 'I' for Inactive)
REMARK    1  A    between atoms: N1_2  and  C2_3 
REMARK    2  A    between atoms: N1_2  and  C17_23 
REMARK    3  A    between atoms: C2_3  and  C3_4 
REMARK    4  A    between atoms: C3_4  and  C4_5 
REMARK    5  A    between atoms: C4_5  and  N2_6 
REMARK       I    between atoms: N2_6  and  C5_8 
REMARK       I    between atoms: C5_8  and  N3_10 
REMARK    6  A    between atoms: N3_10  and  C6_12 
ROOT
HETATM    1  N2  UNL     1      44.440  32.187  30.034  1.00  0.00    -0.343 N 
ATOM      2  H2  UNL     1      43.862  32.569  29.286  1.00  0.00     0.164 HD
HETATM    3  C5  UNL     1      43.791  31.532  31.148  1.00  0.00     0.316 C 
HETATM    4  O1  UNL     1      44.577  31.097  32.020  1.00  0.00    -0.247 OA
HETATM    5  N3  UNL     1      42.385  31.423  31.196  1.00  0.00    -0.334 N 
ATOM      6  H3  UNL     1      41.875  31.835  30.413  1.00  0.00     0.165 HD
ENDROOT
BRANCH   1   7
HETATM    7  C4  UNL     1      45.868  32.321  29.940  1.00  0.00     0.126 C 
BRANCH   7   8
HETATM    8  C3  UNL     1      46.284  33.685  29.456  1.00  0.00     0.050 C 
BRANCH   8   9
HETATM    9  C2  UNL     1      47.797  33.799  29.519  1.00  0.00     0.274 C 
BRANCH   9  10
HETATM   10  N1  UNL     1      48.155  34.928  30.331  1.00  0.00     0.088 N 
HETATM   11  C1  UNL     1      49.171  35.754  29.706  1.00  0.00     0.310 C 
BRANCH  10  12
HETATM   12  C17 UNL     1      48.459  34.629  31.699  1.00  0.00     0.222 C 
HETATM   13  C18 UNL     1      47.310  34.758  32.634  1.00  0.00     0.036 C 
HETATM   14  C19 UNL     1      47.116  33.367  33.205  1.00  0.00     0.002 C 
HETATM   15  C20 UNL     1      48.520  32.827  33.227  1.00  0.00     0.002 C 
HETATM   16  C21 UNL     1      49.096  33.283  31.904  1.00  0.00     0.036 C 
ENDBRANCH  10  12
ENDBRANCH   9  10
ENDBRANCH   8   9
ENDBRANCH   7   8
ENDBRANCH   1   7
BRANCH   5  17
HETATM   17  C6  UNL     1      41.584  30.799  32.220  1.00  0.00     0.036 C 
HETATM   18  C7  UNL     1      41.814  31.436  33.559  1.00  0.00     0.035 C 
HETATM   19  C8  UNL     1      41.764  30.083  34.139  1.00  0.00    -0.009 C 
HETATM   20  C9  UNL     1      40.572  29.604  34.788  1.00  0.00     0.009 C 
HETATM   21  C16 UNL     1      42.123  29.564  32.785  1.00  0.00     0.035 C 
HETATM   22  C10 UNL     1      39.221  29.625  34.300  1.00  0.00    -0.013 C 
HETATM   23  C11 UNL     1      38.890  28.988  32.989  1.00  0.00     0.014 C 
HETATM   24  C14 UNL     1      38.611  30.848  33.735  1.00  0.00     0.014 C 
HETATM   25  C12 UNL     1      39.024  30.333  32.392  1.00  0.00    -0.041 C 
HETATM   26  C13 UNL     1      37.862  30.543  31.374  1.00  0.00     0.015 C 
HETATM   27  C15 UNL     1      40.195  30.796  31.739  1.00  0.00     0.040 C 
ENDBRANCH   5  17
TORSDOF 6
ENDMDL
