MODEL 1
REMARK VINA RESULT: -10.573336814      0.000      0.000
REMARK  5 active torsions:
REMARK  status: ('A' for Active; 'I' for Inactive)
REMARK    1  A    between atoms: C2_2  and  C3_3 
REMARK    2  A    between atoms: N1_8  and  C8_9 
REMARK    3  A    between atoms: C8_9  and  C9_10 
REMARK    4  A    between atoms: C9_10  and  C10_11 
REMARK    5  A    between atoms: C10_11  and  C11_12 
ROOT
HETATM    1  C3  UNL     1      40.035  30.546  31.253  1.00  0.00     0.042 C 
HETATM    2  C4  UNL     1      41.218  30.880  30.487  1.00  0.00     0.020 C 
HETATM    3  C5  UNL     1      42.563  30.787  31.130  1.00  0.00     0.024 C 
HETATM    4  C6  UNL     1      42.833  29.580  31.923  1.00  0.00     0.039 C 
HETATM    5  C7  UNL     1      41.691  28.753  32.363  1.00  0.00     0.273 C 
HETATM    6  N1  UNL     1      40.772  29.380  33.282  1.00  0.00     0.094 N 
HETATM    7  C13 UNL     1      40.134  30.554  32.752  1.00  0.00     0.236 C 
HETATM    8  C14 UNL     1      40.554  31.846  33.341  1.00  0.00     0.094 C 
HETATM    9  C15 UNL     1      41.843  32.381  32.935  1.00  0.00     0.019 A 
HETATM   10  N2  UNL     1      42.352  33.471  33.509  1.00  0.00    -0.361 N 
ATOM     11  H2  UNL     1      41.895  34.002  34.251  1.00  0.00     0.165 HD
HETATM   12  C16 UNL     1      43.560  33.776  32.972  1.00  0.00     0.027 A 
HETATM   13  C17 UNL     1      43.845  32.836  32.002  1.00  0.00     0.063 A 
HETATM   14  C18 UNL     1      42.761  31.974  31.993  1.00  0.00    -0.014 A 
HETATM   15  C19 UNL     1      45.065  32.852  31.233  1.00  0.00     0.254 C 
HETATM   16  O1  UNL     1      45.329  32.022  30.369  1.00  0.00    -0.268 OA
HETATM   17  N3  UNL     1      45.995  33.907  31.522  1.00  0.00    -0.356 N 
ATOM     18  H3  UNL     1      46.685  34.197  30.829  1.00  0.00     0.162 HD
HETATM   19  C20 UNL     1      45.932  34.553  32.822  1.00  0.00     0.129 C 
HETATM   20  C21 UNL     1      44.526  34.863  33.227  1.00  0.00     0.078 C 
ENDROOT
BRANCH   6  21
HETATM   21  C8  UNL     1      39.794  28.435  33.750  1.00  0.00     0.273 C 
BRANCH  21  22
HETATM   22  C9  UNL     1      39.397  28.524  35.160  1.00  0.00     0.030 C 
BRANCH  22  23
HETATM   23  C10 UNL     1      38.682  27.276  35.601  1.00  0.00     0.001 C 
BRANCH  23  24
HETATM   24  C11 UNL     1      38.181  27.472  37.013  1.00  0.00    -0.005 C 
HETATM   25  C12 UNL     1      36.791  26.908  37.152  1.00  0.00     0.005 C 
ENDBRANCH  23  24
ENDBRANCH  22  23
ENDBRANCH  21  22
ENDBRANCH   6  21
BRANCH   1  26
HETATM   26  C2  UNL     1      38.906  31.456  30.883  1.00  0.00    -0.030 C 
HETATM   27  C1  UNL     1      39.072  32.481  30.060  1.00  0.00     0.007 C 
ENDBRANCH   1  26
TORSDOF 5
ENDMDL
MODEL 2
REMARK VINA RESULT: -8.787303526      3.347      6.265
REMARK  5 active torsions:
REMARK  status: ('A' for Active; 'I' for Inactive)
REMARK    1  A    between atoms: C2_2  and  C3_3 
REMARK    2  A    between atoms: N1_8  and  C8_9 
REMARK    3  A    between atoms: C8_9  and  C9_10 
REMARK    4  A    between atoms: C9_10  and  C10_11 
REMARK    5  A    between atoms: C10_11  and  C11_12 
ROOT
HETATM    1  C3  UNL     1      45.174  34.163  31.984  1.00  0.00     0.042 C 
HETATM    2  C4  UNL     1      45.970  34.834  30.978  1.00  0.00     0.020 C 
HETATM    3  C5  UNL     1      46.839  34.029  30.067  1.00  0.00     0.024 C 
HETATM    4  C6  UNL     1      46.238  32.825  29.476  1.00  0.00     0.039 C 
HETATM    5  C7  UNL     1      45.013  32.272  30.090  1.00  0.00     0.273 C 
HETATM    6  N1  UNL     1      45.151  31.771  31.436  1.00  0.00     0.094 N 
HETATM    7  C13 UNL     1      45.564  32.769  32.386  1.00  0.00     0.236 C 
HETATM    8  C14 UNL     1      46.941  32.636  32.912  1.00  0.00     0.094 C 
HETATM    9  C15 UNL     1      48.035  33.033  32.040  1.00  0.00     0.019 A 
HETATM   10  N2  UNL     1      49.305  32.829  32.387  1.00  0.00    -0.361 N 
ATOM     11  H2  UNL     1      49.606  32.396  33.261  1.00  0.00     0.165 HD
HETATM   12  C16 UNL     1      50.144  33.275  31.417  1.00  0.00     0.027 A 
HETATM   13  C17 UNL     1      49.376  33.794  30.395  1.00  0.00     0.063 A 
HETATM   14  C18 UNL     1      48.062  33.634  30.802  1.00  0.00    -0.014 A 
HETATM   15  C19 UNL     1      49.948  34.347  29.192  1.00  0.00     0.254 C 
HETATM   16  O1  UNL     1      49.275  34.811  28.277  1.00  0.00    -0.268 OA
HETATM   17  N3  UNL     1      51.380  34.338  29.096  1.00  0.00    -0.356 N 
ATOM     18  H3  UNL     1      51.865  34.991  28.480  1.00  0.00     0.162 HD
HETATM   19  C20 UNL     1      52.124  33.380  29.895  1.00  0.00     0.129 C 
HETATM   20  C21 UNL     1      51.615  33.304  31.299  1.00  0.00     0.078 C 
ENDROOT
BRANCH   6  21
HETATM   21  C8  UNL     1      43.939  31.127  31.868  1.00  0.00     0.273 C 
BRANCH  21  22
HETATM   22  C9  UNL     1      42.782  31.205  30.970  1.00  0.00     0.030 C 
BRANCH  22  23
HETATM   23  C10 UNL     1      41.655  31.975  31.604  1.00  0.00     0.001 C 
BRANCH  23  24
HETATM   24  C11 UNL     1      41.896  32.059  33.093  1.00  0.00    -0.005 C 
HETATM   25  C12 UNL     1      40.782  31.369  33.837  1.00  0.00     0.005 C 
ENDBRANCH  23  24
ENDBRANCH  22  23
ENDBRANCH  21  22
ENDBRANCH   6  21
BRANCH   1  26
HETATM   26  C2  UNL     1      45.126  34.982  33.236  1.00  0.00    -0.030 C 
HETATM   27  C1  UNL     1      44.103  34.922  34.075  1.00  0.00     0.007 C 
ENDBRANCH   1  26
TORSDOF 5
ENDMDL
MODEL 3
REMARK VINA RESULT: -8.592360266      3.638      6.430
REMARK  5 active torsions:
REMARK  status: ('A' for Active; 'I' for Inactive)
REMARK    1  A    between atoms: C2_2  and  C3_3 
REMARK    2  A    between atoms: N1_8  and  C8_9 
REMARK    3  A    between atoms: C8_9  and  C9_10 
REMARK    4  A    between atoms: C9_10  and  C10_11 
REMARK    5  A    between atoms: C10_11  and  C11_12 
ROOT
HETATM    1  C3  UNL     1      45.202  34.175  31.982  1.00  0.00     0.042 C 
HETATM    2  C4  UNL     1      46.004  34.834  30.972  1.00  0.00     0.020 C 
HETATM    3  C5  UNL     1      46.864  34.016  30.064  1.00  0.00     0.024 C 
HETATM    4  C6  UNL     1      46.252  32.815  29.480  1.00  0.00     0.039 C 
HETATM    5  C7  UNL     1      45.023  32.277  30.097  1.00  0.00     0.273 C 
HETATM    6  N1  UNL     1      45.156  31.781  31.446  1.00  0.00     0.094 N 
HETATM    7  C13 UNL     1      45.580  32.780  32.391  1.00  0.00     0.236 C 
HETATM    8  C14 UNL     1      46.955  32.636  32.916  1.00  0.00     0.094 C 
HETATM    9  C15 UNL     1      48.052  33.019  32.042  1.00  0.00     0.019 A 
HETATM   10  N2  UNL     1      49.321  32.804  32.389  1.00  0.00    -0.361 N 
ATOM     11  H2  UNL     1      49.618  32.373  33.265  1.00  0.00     0.165 HD
HETATM   12  C16 UNL     1      50.163  33.237  31.417  1.00  0.00     0.027 A 
HETATM   13  C17 UNL     1      49.399  33.758  30.392  1.00  0.00     0.063 A 
HETATM   14  C18 UNL     1      48.084  33.613  30.801  1.00  0.00    -0.014 A 
HETATM   15  C19 UNL     1      49.976  34.300  29.186  1.00  0.00     0.254 C 
HETATM   16  O1  UNL     1      49.307  34.766  28.269  1.00  0.00    -0.268 OA
HETATM   17  N3  UNL     1      51.408  34.278  29.089  1.00  0.00    -0.356 N 
ATOM     18  H3  UNL     1      51.898  34.922  28.470  1.00  0.00     0.162 HD
HETATM   19  C20 UNL     1      52.143  33.316  29.892  1.00  0.00     0.129 C 
HETATM   20  C21 UNL     1      51.635  33.251  31.297  1.00  0.00     0.078 C 
ENDROOT
BRANCH   6  21
HETATM   21  C8  UNL     1      43.939  31.151  31.882  1.00  0.00     0.273 C 
BRANCH  21  22
HETATM   22  C9  UNL     1      42.839  31.074  30.913  1.00  0.00     0.030 C 
BRANCH  22  23
HETATM   23  C10 UNL     1      41.599  31.738  31.447  1.00  0.00     0.001 C 
BRANCH  23  24
HETATM   24  C11 UNL     1      40.393  31.163  30.741  1.00  0.00    -0.005 C 
HETATM   25  C12 UNL     1      39.650  32.255  30.016  1.00  0.00     0.005 C 
ENDBRANCH  23  24
ENDBRANCH  22  23
ENDBRANCH  21  22
ENDBRANCH   6  21
BRANCH   1  26
HETATM   26  C2  UNL     1      45.163  35.001  33.229  1.00  0.00    -0.030 C 
HETATM   27  C1  UNL     1      44.137  34.960  34.066  1.00  0.00     0.007 C 
ENDBRANCH   1  26
TORSDOF 5
ENDMDL
MODEL 4
REMARK VINA RESULT: -8.328539603      4.233      9.647
REMARK  5 active torsions:
REMARK  status: ('A' for Active; 'I' for Inactive)
REMARK    1  A    between atoms: C2_2  and  C3_3 
REMARK    2  A    between atoms: N1_8  and  C8_9 
REMARK    3  A    between atoms: C8_9  and  C9_10 
REMARK    4  A    between atoms: C9_10  and  C10_11 
REMARK    5  A    between atoms: C10_11  and  C11_12 
ROOT
HETATM    1  C3  UNL     1      48.866  34.919  30.040  1.00  0.00     0.042 C 
HETATM    2  C4  UNL     1      47.871  35.274  31.031  1.00  0.00     0.020 C 
HETATM    3  C5  UNL     1      47.328  34.221  31.942  1.00  0.00     0.024 C 
HETATM    4  C6  UNL     1      48.306  33.309  32.552  1.00  0.00     0.039 C 
HETATM    5  C7  UNL     1      49.654  33.217  31.956  1.00  0.00     0.273 C 
HETATM    6  N1  UNL     1      49.720  32.691  30.614  1.00  0.00     0.094 N 
HETATM    7  C13 UNL     1      48.995  33.474  29.649  1.00  0.00     0.236 C 
HETATM    8  C14 UNL     1      47.760  32.863  29.110  1.00  0.00     0.094 C 
HETATM    9  C15 UNL     1      46.585  32.856  29.967  1.00  0.00     0.019 A 
HETATM   10  N2  UNL     1      45.471  32.216  29.609  1.00  0.00    -0.361 N 
ATOM     11  H2  UNL     1      45.353  31.700  28.737  1.00  0.00     0.165 HD
HETATM   12  C16 UNL     1      44.516  32.346  30.565  1.00  0.00     0.027 A 
HETATM   13  C17 UNL     1      45.040  33.108  31.590  1.00  0.00     0.063 A 
HETATM   14  C18 UNL     1      46.331  33.417  31.198  1.00  0.00    -0.014 A 
HETATM   15  C19 UNL     1      44.294  33.433  32.781  1.00  0.00     0.254 C 
HETATM   16  O1  UNL     1      44.749  34.109  33.698  1.00  0.00    -0.268 OA
HETATM   17  N3  UNL     1      42.955  32.922  32.862  1.00  0.00    -0.356 N 
ATOM     18  H3  UNL     1      42.263  33.367  33.466  1.00  0.00     0.162 HD
HETATM   19  C20 UNL     1      42.605  31.758  32.066  1.00  0.00     0.129 C 
HETATM   20  C21 UNL     1      43.127  31.857  30.668  1.00  0.00     0.078 C 
ENDROOT
BRANCH   6  21
HETATM   21  C8  UNL     1      51.086  32.511  30.202  1.00  0.00     0.273 C 
BRANCH  21  22
HETATM   22  C9  UNL     1      52.098  33.355  30.846  1.00  0.00     0.030 C 
BRANCH  22  23
HETATM   23  C10 UNL     1      52.574  34.437  29.915  1.00  0.00     0.001 C 
BRANCH  23  24
HETATM   24  C11 UNL     1      52.506  33.926  28.495  1.00  0.00    -0.005 C 
HETATM   25  C12 UNL     1      52.059  35.028  27.570  1.00  0.00     0.005 C 
ENDBRANCH  23  24
ENDBRANCH  22  23
ENDBRANCH  21  22
ENDBRANCH   6  21
BRANCH   1  26
HETATM   26  C2  UNL     1      48.640  35.695  28.781  1.00  0.00    -0.030 C 
HETATM   27  C1  UNL     1      48.934  36.983  28.689  1.00  0.00     0.007 C 
ENDBRANCH   1  26
TORSDOF 5
ENDMDL
MODEL 5
REMARK VINA RESULT: -8.191370028      4.462      9.277
REMARK  5 active torsions:
REMARK  status: ('A' for Active; 'I' for Inactive)
REMARK    1  A    between atoms: C2_2  and  C3_3 
REMARK    2  A    between atoms: N1_8  and  C8_9 
REMARK    3  A    between atoms: C8_9  and  C9_10 
REMARK    4  A    between atoms: C9_10  and  C10_11 
REMARK    5  A    between atoms: C10_11  and  C11_12 
ROOT
HETATM    1  C3  UNL     1      48.995  34.888  29.948  1.00  0.00     0.042 C 
HETATM    2  C4  UNL     1      48.026  35.262  30.957  1.00  0.00     0.020 C 
HETATM    3  C5  UNL     1      47.477  34.219  31.875  1.00  0.00     0.024 C 
HETATM    4  C6  UNL     1      48.447  33.286  32.467  1.00  0.00     0.039 C 
HETATM    5  C7  UNL     1      49.783  33.168  31.849  1.00  0.00     0.273 C 
HETATM    6  N1  UNL     1      49.815  32.644  30.505  1.00  0.00     0.094 N 
HETATM    7  C13 UNL     1      49.089  33.442  29.554  1.00  0.00     0.236 C 
HETATM    8  C14 UNL     1      47.833  32.856  29.036  1.00  0.00     0.094 C 
HETATM    9  C15 UNL     1      46.673  32.871  29.912  1.00  0.00     0.019 A 
HETATM   10  N2  UNL     1      45.541  32.254  29.573  1.00  0.00    -0.361 N 
ATOM     11  H2  UNL     1      45.398  31.742  28.703  1.00  0.00     0.165 HD
HETATM   12  C16 UNL     1      44.606  32.401  30.545  1.00  0.00     0.027 A 
HETATM   13  C17 UNL     1      45.162  33.151  31.562  1.00  0.00     0.063 A 
HETATM   14  C18 UNL     1      46.452  33.436  31.148  1.00  0.00    -0.014 A 
HETATM   15  C19 UNL     1      44.443  33.490  32.766  1.00  0.00     0.254 C 
HETATM   16  O1  UNL     1      44.927  34.156  33.676  1.00  0.00    -0.268 OA
HETATM   17  N3  UNL     1      43.095  33.006  32.869  1.00  0.00    -0.356 N 
ATOM     18  H3  UNL     1      42.423  33.463  33.486  1.00  0.00     0.162 HD
HETATM   19  C20 UNL     1      42.709  31.850  32.078  1.00  0.00     0.129 C 
HETATM   20  C21 UNL     1      43.209  31.940  30.672  1.00  0.00     0.078 C 
ENDROOT
BRANCH   6  21
HETATM   21  C8  UNL     1      51.169  32.437  30.069  1.00  0.00     0.273 C 
BRANCH  21  22
HETATM   22  C9  UNL     1      51.514  31.105  29.559  1.00  0.00     0.030 C 
BRANCH  22  23
HETATM   23  C10 UNL     1      52.991  30.844  29.678  1.00  0.00     0.001 C 
BRANCH  23  24
HETATM   24  C11 UNL     1      53.210  29.371  29.934  1.00  0.00    -0.005 C 
HETATM   25  C12 UNL     1      51.897  28.701  30.246  1.00  0.00     0.005 C 
ENDBRANCH  23  24
ENDBRANCH  22  23
ENDBRANCH  21  22
ENDBRANCH   6  21
BRANCH   1  26
HETATM   26  C2  UNL     1      48.763  35.670  28.694  1.00  0.00    -0.030 C 
HETATM   27  C1  UNL     1      48.933  36.983  28.644  1.00  0.00     0.007 C 
ENDBRANCH   1  26
TORSDOF 5
ENDMDL
