MODEL 1
REMARK VINA RESULT: -7.201591652      0.000      0.000
REMARK  11 active torsions:
REMARK  status: ('A' for Active; 'I' for Inactive)
REMARK    1  A    between atoms: C3_3  and  C4_4 
REMARK    2  A    between atoms: C4_4  and  O1_5 
REMARK    3  A    between atoms: N1_8  and  S1_9 
REMARK    4  A    between atoms: S1_9  and  C6_12 
REMARK    5  A    between atoms: C16_22  and  C17_23 
REMARK    6  A    between atoms: C17_23  and  C18_24 
REMARK    7  A    between atoms: C17_23  and  C19_27 
REMARK    8  A    between atoms: C18_24  and  O4_25 
REMARK    9  A    between atoms: C19_27  and  C20_28 
REMARK   10  A    between atoms: C20_28  and  C21_29 
REMARK   11  A    between atoms: C21_29  and  C22_30 
ROOT
HETATM    1  C1  UNL     1      51.390  26.886  32.589  1.00  0.00     0.112 C 
HETATM    2  C2  UNL     1      50.598  27.655  31.638  1.00  0.00    -0.105 C 
HETATM    3  C3  UNL     1      49.929  28.312  30.859  1.00  0.00    -0.033 C 
ENDROOT
BRANCH   3   4
HETATM    4  C4  UNL     1      49.088  29.106  29.921  1.00  0.00     0.267 C 
HETATM    5  C5  UNL     1      49.617  28.883  28.557  1.00  0.00     0.158 C 
HETATM    6  N1  UNL     1      49.285  27.600  28.083  1.00  0.00    -0.283 N 
HETATM    7  C10 UNL     1      47.871  27.325  28.064  1.00  0.00     0.144 C 
HETATM    8  C11 UNL     1      47.050  28.593  27.974  1.00  0.00     0.064 C 
HETATM    9  C12 UNL     1      46.819  29.196  29.342  1.00  0.00     0.089 C 
HETATM   10  C13 UNL     1      46.758  30.655  29.164  1.00  0.00     0.018 C 
HETATM   11  C25 UNL     1      45.545  28.663  29.881  1.00  0.00     0.070 C 
HETATM   12  O5  UNL     1      47.821  28.938  30.231  1.00  0.00    -0.325 OA
HETATM   13  C14 UNL     1      45.804  31.442  29.564  1.00  0.00    -0.056 C 
HETATM   14  C15 UNL     1      45.942  32.891  29.283  1.00  0.00     0.048 C 
HETATM   15  C16 UNL     1      44.616  30.910  30.182  1.00  0.00    -0.050 C 
HETATM   16  C24 UNL     1      44.511  29.607  30.323  1.00  0.00    -0.015 C 
BRANCH   4  17
HETATM   17  O1  UNL     1      49.434  30.448  30.253  1.00  0.00    -0.351 OA
ATOM     18  H1  UNL     1      48.789  30.954  29.772  1.00  0.00     0.214 HD
ENDBRANCH   4  17
BRANCH   6  19
HETATM   19  S1  UNL     1      50.121  26.972  26.769  1.00  0.00     0.239 S 
HETATM   20  O2  UNL     1      50.757  28.144  26.021  1.00  0.00    -0.205 OA
HETATM   21  O3  UNL     1      49.234  26.276  25.769  1.00  0.00    -0.205 OA
BRANCH  19  22
HETATM   22  C6  UNL     1      51.445  25.864  27.132  1.00  0.00     0.072 C 
HETATM   23  C7  UNL     1      52.752  26.608  26.921  1.00  0.00     0.033 C 
HETATM   24  C8  UNL     1      51.381  25.451  28.620  1.00  0.00     0.033 C 
HETATM   25  C9  UNL     1      51.452  24.604  26.351  1.00  0.00     0.033 C 
ENDBRANCH  19  22
ENDBRANCH   6  19
BRANCH  15  26
HETATM   26  C17 UNL     1      43.460  31.782  30.633  1.00  0.00     0.042 C 
BRANCH  26  27
HETATM   27  C18 UNL     1      42.167  31.138  30.314  1.00  0.00     0.173 C 
BRANCH  27  28
HETATM   28  O4  UNL     1      41.167  32.031  29.935  1.00  0.00    -0.400 OA
ATOM     29  H4  UNL     1      40.404  32.019  30.501  1.00  0.00     0.209 HD
ENDBRANCH  27  28
ENDBRANCH  26  27
BRANCH  26  30
HETATM   30  C19 UNL     1      43.676  31.954  32.133  1.00  0.00     0.011 C 
BRANCH  30  31
HETATM   31  C20 UNL     1      42.951  33.087  32.757  1.00  0.00     0.001 C 
BRANCH  31  32
HETATM   32  C21 UNL     1      41.946  32.762  33.812  1.00  0.00    -0.000 C 
BRANCH  32  33
HETATM   33  C22 UNL     1      41.231  31.478  33.776  1.00  0.00    -0.005 C 
HETATM   34  C23 UNL     1      40.811  30.882  35.070  1.00  0.00     0.005 C 
ENDBRANCH  32  33
ENDBRANCH  31  32
ENDBRANCH  30  31
ENDBRANCH  26  30
ENDBRANCH  15  26
ENDBRANCH   3   4
TORSDOF 11
ENDMDL
MODEL 2
REMARK VINA RESULT: -6.664004311      4.578      6.129
REMARK  11 active torsions:
REMARK  status: ('A' for Active; 'I' for Inactive)
REMARK    1  A    between atoms: C3_3  and  C4_4 
REMARK    2  A    between atoms: C4_4  and  O1_5 
REMARK    3  A    between atoms: N1_8  and  S1_9 
REMARK    4  A    between atoms: S1_9  and  C6_12 
REMARK    5  A    between atoms: C16_22  and  C17_23 
REMARK    6  A    between atoms: C17_23  and  C18_24 
REMARK    7  A    between atoms: C17_23  and  C19_27 
REMARK    8  A    between atoms: C18_24  and  O4_25 
REMARK    9  A    between atoms: C19_27  and  C20_28 
REMARK   10  A    between atoms: C20_28  and  C21_29 
REMARK   11  A    between atoms: C21_29  and  C22_30 
ROOT
HETATM    1  C1  UNL     1      48.241  23.821  35.094  1.00  0.00     0.112 C 
HETATM    2  C2  UNL     1      48.717  24.364  33.827  1.00  0.00    -0.105 C 
HETATM    3  C3  UNL     1      49.096  24.812  32.759  1.00  0.00    -0.033 C 
ENDROOT
BRANCH   3   4
HETATM    4  C4  UNL     1      49.557  25.333  31.443  1.00  0.00     0.267 C 
HETATM    5  C5  UNL     1      49.717  24.173  30.539  1.00  0.00     0.158 C 
HETATM    6  N1  UNL     1      48.469  23.669  30.126  1.00  0.00    -0.283 N 
HETATM    7  C10 UNL     1      47.631  24.638  29.466  1.00  0.00     0.144 C 
HETATM    8  C11 UNL     1      48.441  25.751  28.837  1.00  0.00     0.064 C 
HETATM    9  C12 UNL     1      48.748  26.840  29.841  1.00  0.00     0.089 C 
HETATM   10  C13 UNL     1      50.057  27.403  29.477  1.00  0.00     0.018 C 
HETATM   11  C25 UNL     1      47.679  27.864  29.764  1.00  0.00     0.070 C 
HETATM   12  O5  UNL     1      48.843  26.392  31.125  1.00  0.00    -0.325 OA
HETATM   13  C14 UNL     1      50.327  28.658  29.270  1.00  0.00    -0.056 C 
HETATM   14  C15 UNL     1      51.722  29.013  28.913  1.00  0.00     0.048 C 
HETATM   15  C16 UNL     1      49.287  29.655  29.302  1.00  0.00    -0.050 C 
HETATM   16  C24 UNL     1      48.052  29.265  29.535  1.00  0.00    -0.015 C 
BRANCH   4  17
HETATM   17  O1  UNL     1      50.879  25.782  31.731  1.00  0.00    -0.351 OA
ATOM     18  H1  UNL     1      50.956  26.560  31.193  1.00  0.00     0.214 HD
ENDBRANCH   4  17
BRANCH   6  19
HETATM   19  S1  UNL     1      48.387  22.129  29.464  1.00  0.00     0.239 S 
HETATM   20  O2  UNL     1      49.461  22.033  28.381  1.00  0.00    -0.205 OA
HETATM   21  O3  UNL     1      47.078  21.841  28.773  1.00  0.00    -0.205 OA
BRANCH  19  22
HETATM   22  C6  UNL     1      48.691  20.780  30.559  1.00  0.00     0.072 C 
HETATM   23  C7  UNL     1      47.498  20.653  31.490  1.00  0.00     0.033 C 
HETATM   24  C8  UNL     1      48.791  19.468  29.749  1.00  0.00     0.033 C 
HETATM   25  C9  UNL     1      49.940  20.875  31.352  1.00  0.00     0.033 C 
ENDBRANCH  19  22
ENDBRANCH   6  19
BRANCH  15  26
HETATM   26  C17 UNL     1      49.544  31.124  29.032  1.00  0.00     0.042 C 
BRANCH  26  27
HETATM   27  C18 UNL     1      48.417  31.719  28.281  1.00  0.00     0.173 C 
BRANCH  27  28
HETATM   28  O4  UNL     1      47.948  32.917  28.817  1.00  0.00    -0.400 OA
ATOM     29  H4  UNL     1      47.801  33.598  28.171  1.00  0.00     0.209 HD
ENDBRANCH  27  28
ENDBRANCH  26  27
BRANCH  26  30
HETATM   30  C19 UNL     1      49.718  31.740  30.417  1.00  0.00     0.011 C 
BRANCH  30  31
HETATM   31  C20 UNL     1      51.117  32.035  30.813  1.00  0.00     0.001 C 
BRANCH  31  32
HETATM   32  C21 UNL     1      51.702  31.225  31.921  1.00  0.00    -0.000 C 
BRANCH  32  33
HETATM   33  C22 UNL     1      50.820  30.500  32.848  1.00  0.00    -0.005 C 
HETATM   34  C23 UNL     1      50.859  29.015  32.824  1.00  0.00     0.005 C 
ENDBRANCH  32  33
ENDBRANCH  31  32
ENDBRANCH  30  31
ENDBRANCH  26  30
ENDBRANCH  15  26
ENDBRANCH   3   4
TORSDOF 11
ENDMDL
MODEL 3
REMARK VINA RESULT: -6.569006572      3.604      5.160
REMARK  11 active torsions:
REMARK  status: ('A' for Active; 'I' for Inactive)
REMARK    1  A    between atoms: C3_3  and  C4_4 
REMARK    2  A    between atoms: C4_4  and  O1_5 
REMARK    3  A    between atoms: N1_8  and  S1_9 
REMARK    4  A    between atoms: S1_9  and  C6_12 
REMARK    5  A    between atoms: C16_22  and  C17_23 
REMARK    6  A    between atoms: C17_23  and  C18_24 
REMARK    7  A    between atoms: C17_23  and  C19_27 
REMARK    8  A    between atoms: C18_24  and  O4_25 
REMARK    9  A    between atoms: C19_27  and  C20_28 
REMARK   10  A    between atoms: C20_28  and  C21_29 
REMARK   11  A    between atoms: C21_29  and  C22_30 
ROOT
HETATM    1  C1  UNL     1      49.560  25.158  34.443  1.00  0.00     0.112 C 
HETATM    2  C2  UNL     1      50.064  26.371  33.809  1.00  0.00    -0.105 C 
HETATM    3  C3  UNL     1      50.498  27.372  33.267  1.00  0.00    -0.033 C 
ENDROOT
BRANCH   3   4
HETATM    4  C4  UNL     1      51.054  28.590  32.616  1.00  0.00     0.267 C 
HETATM    5  C5  UNL     1      52.498  28.355  32.398  1.00  0.00     0.158 C 
HETATM    6  N1  UNL     1      52.716  27.448  31.343  1.00  0.00    -0.283 N 
HETATM    7  C10 UNL     1      52.136  27.854  30.088  1.00  0.00     0.144 C 
HETATM    8  C11 UNL     1      51.957  29.354  30.006  1.00  0.00     0.064 C 
HETATM    9  C12 UNL     1      50.653  29.786  30.641  1.00  0.00     0.089 C 
HETATM   10  C13 UNL     1      50.879  31.122  31.215  1.00  0.00     0.018 C 
HETATM   11  C25 UNL     1      49.608  29.819  29.591  1.00  0.00     0.070 C 
HETATM   12  O5  UNL     1      50.241  28.974  31.655  1.00  0.00    -0.325 OA
HETATM   13  C14 UNL     1      50.171  32.188  30.991  1.00  0.00    -0.056 C 
HETATM   14  C15 UNL     1      50.571  33.440  31.678  1.00  0.00     0.048 C 
HETATM   15  C16 UNL     1      49.088  32.171  30.039  1.00  0.00    -0.050 C 
HETATM   16  C24 UNL     1      48.838  31.053  29.393  1.00  0.00    -0.015 C 
BRANCH   4  17
HETATM   17  O1  UNL     1      50.975  29.563  33.654  1.00  0.00    -0.351 OA
ATOM     18  H1  UNL     1      51.327  30.340  33.238  1.00  0.00     0.214 HD
ENDBRANCH   4  17
BRANCH   6  19
HETATM   19  S1  UNL     1      54.217  26.709  31.195  1.00  0.00     0.239 S 
HETATM   20  O2  UNL     1      55.283  27.769  31.470  1.00  0.00    -0.205 OA
HETATM   21  O3  UNL     1      54.497  26.191  29.809  1.00  0.00    -0.205 OA
BRANCH  19  22
HETATM   22  C6  UNL     1      54.559  25.387  32.312  1.00  0.00     0.072 C 
HETATM   23  C7  UNL     1      55.117  25.986  33.592  1.00  0.00     0.033 C 
HETATM   24  C8  UNL     1      53.244  24.660  32.673  1.00  0.00     0.033 C 
HETATM   25  C9  UNL     1      55.482  24.346  31.800  1.00  0.00     0.033 C 
ENDBRANCH  19  22
ENDBRANCH   6  19
BRANCH  15  26
HETATM   26  C17 UNL     1      48.255  33.397  29.715  1.00  0.00     0.042 C 
BRANCH  26  27
HETATM   27  C18 UNL     1      48.856  34.151  28.593  1.00  0.00     0.173 C 
BRANCH  27  28
HETATM   28  O4  UNL     1      49.162  35.475  28.900  1.00  0.00    -0.400 OA
ATOM     29  H4  UNL     1      50.019  35.592  29.294  1.00  0.00     0.209 HD
ENDBRANCH  27  28
ENDBRANCH  26  27
BRANCH  26  30
HETATM   30  C19 UNL     1      46.876  32.841  29.378  1.00  0.00     0.011 C 
BRANCH  30  31
HETATM   31  C20 UNL     1      45.752  33.398  30.168  1.00  0.00     0.001 C 
BRANCH  31  32
HETATM   32  C21 UNL     1      44.657  32.462  30.559  1.00  0.00    -0.000 C 
BRANCH  32  33
HETATM   33  C22 UNL     1      44.707  31.055  30.140  1.00  0.00    -0.005 C 
HETATM   34  C23 UNL     1      43.844  30.084  30.861  1.00  0.00     0.005 C 
ENDBRANCH  32  33
ENDBRANCH  31  32
ENDBRANCH  30  31
ENDBRANCH  26  30
ENDBRANCH  15  26
ENDBRANCH   3   4
TORSDOF 11
ENDMDL
MODEL 4
REMARK VINA RESULT: -6.434075479      3.524      5.394
REMARK  11 active torsions:
REMARK  status: ('A' for Active; 'I' for Inactive)
REMARK    1  A    between atoms: C3_3  and  C4_4 
REMARK    2  A    between atoms: C4_4  and  O1_5 
REMARK    3  A    between atoms: N1_8  and  S1_9 
REMARK    4  A    between atoms: S1_9  and  C6_12 
REMARK    5  A    between atoms: C16_22  and  C17_23 
REMARK    6  A    between atoms: C17_23  and  C18_24 
REMARK    7  A    between atoms: C17_23  and  C19_27 
REMARK    8  A    between atoms: C18_24  and  O4_25 
REMARK    9  A    between atoms: C19_27  and  C20_28 
REMARK   10  A    between atoms: C20_28  and  C21_29 
REMARK   11  A    between atoms: C21_29  and  C22_30 
ROOT
HETATM    1  C1  UNL     1      48.672  24.219  34.750  1.00  0.00     0.112 C 
HETATM    2  C2  UNL     1      49.373  25.303  34.072  1.00  0.00    -0.105 C 
HETATM    3  C3  UNL     1      49.940  26.215  33.495  1.00  0.00    -0.033 C 
ENDROOT
BRANCH   3   4
HETATM    4  C4  UNL     1      50.627  27.316  32.767  1.00  0.00     0.267 C 
HETATM    5  C5  UNL     1      52.046  26.925  32.611  1.00  0.00     0.158 C 
HETATM    6  N1  UNL     1      52.196  25.919  31.638  1.00  0.00    -0.283 N 
HETATM    7  C10 UNL     1      51.686  26.275  30.338  1.00  0.00     0.144 C 
HETATM    8  C11 UNL     1      51.658  27.774  30.132  1.00  0.00     0.064 C 
HETATM    9  C12 UNL     1      50.390  28.381  30.692  1.00  0.00     0.089 C 
HETATM   10  C13 UNL     1      50.734  29.730  31.167  1.00  0.00     0.018 C 
HETATM   11  C25 UNL     1      49.376  28.429  29.613  1.00  0.00     0.070 C 
HETATM   12  O5  UNL     1      49.878  27.697  31.755  1.00  0.00    -0.325 OA
HETATM   13  C14 UNL     1      50.139  30.839  30.838  1.00  0.00    -0.056 C 
HETATM   14  C15 UNL     1      50.645  32.097  31.436  1.00  0.00     0.048 C 
HETATM   15  C16 UNL     1      49.081  30.849  29.859  1.00  0.00    -0.050 C 
HETATM   16  C24 UNL     1      48.736  29.711  29.295  1.00  0.00    -0.015 C 
BRANCH   4  17
HETATM   17  O1  UNL     1      50.622  28.373  33.723  1.00  0.00    -0.351 OA
ATOM     18  H1  UNL     1      49.905  28.920  33.424  1.00  0.00     0.214 HD
ENDBRANCH   4  17
BRANCH   6  19
HETATM   19  S1  UNL     1      53.619  25.029  31.593  1.00  0.00     0.239 S 
HETATM   20  O2  UNL     1      54.782  26.019  31.516  1.00  0.00    -0.205 OA
HETATM   21  O3  UNL     1      53.742  24.153  30.374  1.00  0.00    -0.205 OA
BRANCH  19  22
HETATM   22  C6  UNL     1      53.955  24.006  32.991  1.00  0.00     0.072 C 
HETATM   23  C7  UNL     1      52.665  23.304  33.379  1.00  0.00     0.033 C 
HETATM   24  C8  UNL     1      54.978  22.916  32.600  1.00  0.00     0.033 C 
HETATM   25  C9  UNL     1      54.522  24.705  34.169  1.00  0.00     0.033 C 
ENDBRANCH  19  22
ENDBRANCH   6  19
BRANCH  15  26
HETATM   26  C17 UNL     1      48.380  32.119  29.415  1.00  0.00     0.042 C 
BRANCH  26  27
HETATM   27  C18 UNL     1      49.140  32.778  28.330  1.00  0.00     0.173 C 
BRANCH  27  28
HETATM   28  O4  UNL     1      49.001  34.164  28.302  1.00  0.00    -0.400 OA
ATOM     29  H4  UNL     1      49.701  34.631  28.742  1.00  0.00     0.209 HD
ENDBRANCH  27  28
ENDBRANCH  26  27
BRANCH  26  30
HETATM   30  C19 UNL     1      46.999  31.654  28.967  1.00  0.00     0.011 C 
BRANCH  30  31
HETATM   31  C20 UNL     1      45.856  32.251  29.699  1.00  0.00     0.001 C 
BRANCH  31  32
HETATM   32  C21 UNL     1      44.739  31.341  30.090  1.00  0.00    -0.000 C 
BRANCH  32  33
HETATM   33  C22 UNL     1      44.952  29.887  30.120  1.00  0.00    -0.005 C 
HETATM   34  C23 UNL     1      43.917  29.048  30.779  1.00  0.00     0.005 C 
ENDBRANCH  32  33
ENDBRANCH  31  32
ENDBRANCH  30  31
ENDBRANCH  26  30
ENDBRANCH  15  26
ENDBRANCH   3   4
TORSDOF 11
ENDMDL
MODEL 5
REMARK VINA RESULT: -6.363528820      3.483      5.328
REMARK  11 active torsions:
REMARK  status: ('A' for Active; 'I' for Inactive)
REMARK    1  A    between atoms: C3_3  and  C4_4 
REMARK    2  A    between atoms: C4_4  and  O1_5 
REMARK    3  A    between atoms: N1_8  and  S1_9 
REMARK    4  A    between atoms: S1_9  and  C6_12 
REMARK    5  A    between atoms: C16_22  and  C17_23 
REMARK    6  A    between atoms: C17_23  and  C18_24 
REMARK    7  A    between atoms: C17_23  and  C19_27 
REMARK    8  A    between atoms: C18_24  and  O4_25 
REMARK    9  A    between atoms: C19_27  and  C20_28 
REMARK   10  A    between atoms: C20_28  and  C21_29 
REMARK   11  A    between atoms: C21_29  and  C22_30 
ROOT
HETATM    1  C1  UNL     1      48.599  24.061  34.688  1.00  0.00     0.112 C 
HETATM    2  C2  UNL     1      49.270  25.166  34.013  1.00  0.00    -0.105 C 
HETATM    3  C3  UNL     1      49.838  26.075  33.433  1.00  0.00    -0.033 C 
ENDROOT
BRANCH   3   4
HETATM    4  C4  UNL     1      50.556  27.173  32.731  1.00  0.00     0.267 C 
HETATM    5  C5  UNL     1      51.960  26.740  32.552  1.00  0.00     0.158 C 
HETATM    6  N1  UNL     1      52.069  25.758  31.549  1.00  0.00    -0.283 N 
HETATM    7  C10 UNL     1      51.561  26.169  30.264  1.00  0.00     0.144 C 
HETATM    8  C11 UNL     1      51.582  27.673  30.102  1.00  0.00     0.064 C 
HETATM    9  C12 UNL     1      50.339  28.305  30.690  1.00  0.00     0.089 C 
HETATM   10  C13 UNL     1      50.732  29.628  31.199  1.00  0.00     0.018 C 
HETATM   11  C25 UNL     1      49.319  28.418  29.621  1.00  0.00     0.070 C 
HETATM   12  O5  UNL     1      49.812  27.609  31.737  1.00  0.00    -0.325 OA
HETATM   13  C14 UNL     1      50.172  30.765  30.907  1.00  0.00    -0.056 C 
HETATM   14  C15 UNL     1      50.725  31.988  31.537  1.00  0.00     0.048 C 
HETATM   15  C16 UNL     1      49.107  30.839  29.938  1.00  0.00    -0.050 C 
HETATM   16  C24 UNL     1      48.720  29.730  29.346  1.00  0.00    -0.015 C 
BRANCH   4  17
HETATM   17  O1  UNL     1      50.594  28.202  33.716  1.00  0.00    -0.351 OA
ATOM     18  H1  UNL     1      51.317  28.744  33.424  1.00  0.00     0.214 HD
ENDBRANCH   4  17
BRANCH   6  19
HETATM   19  S1  UNL     1      53.461  24.823  31.467  1.00  0.00     0.239 S 
HETATM   20  O2  UNL     1      54.653  25.745  31.725  1.00  0.00    -0.205 OA
HETATM   21  O3  UNL     1      53.696  24.214  30.109  1.00  0.00    -0.205 OA
BRANCH  19  22
HETATM   22  C6  UNL     1      53.604  23.516  32.642  1.00  0.00     0.072 C 
HETATM   23  C7  UNL     1      54.491  22.439  32.041  1.00  0.00     0.033 C 
HETATM   24  C8  UNL     1      54.307  24.040  33.915  1.00  0.00     0.033 C 
HETATM   25  C9  UNL     1      52.323  22.920  33.090  1.00  0.00     0.033 C 
ENDBRANCH  19  22
ENDBRANCH   6  19
BRANCH  15  26
HETATM   26  C17 UNL     1      48.447  32.143  29.537  1.00  0.00     0.042 C 
BRANCH  26  27
HETATM   27  C18 UNL     1      49.121  32.724  28.355  1.00  0.00     0.173 C 
BRANCH  27  28
HETATM   28  O4  UNL     1      49.118  34.117  28.329  1.00  0.00    -0.400 OA
ATOM     29  H4  UNL     1      48.278  34.498  28.102  1.00  0.00     0.209 HD
ENDBRANCH  27  28
ENDBRANCH  26  27
BRANCH  26  30
HETATM   30  C19 UNL     1      46.996  31.765  29.259  1.00  0.00     0.011 C 
BRANCH  30  31
HETATM   31  C20 UNL     1      46.025  32.886  29.296  1.00  0.00     0.001 C 
BRANCH  31  32
HETATM   32  C21 UNL     1      46.209  33.919  30.358  1.00  0.00    -0.000 C 
BRANCH  32  33
HETATM   33  C22 UNL     1      45.168  34.121  31.376  1.00  0.00    -0.005 C 
HETATM   34  C23 UNL     1      44.232  32.998  31.643  1.00  0.00     0.005 C 
ENDBRANCH  32  33
ENDBRANCH  31  32
ENDBRANCH  30  31
ENDBRANCH  26  30
ENDBRANCH  15  26
ENDBRANCH   3   4
TORSDOF 11
ENDMDL
