MODEL 1
REMARK VINA RESULT: -9.665232180      0.000      0.000
REMARK  8 active torsions:
REMARK  status: ('A' for Active; 'I' for Inactive)
REMARK    1  A    between atoms: C10_10  and  O1_11 
REMARK    2  A    between atoms: C11_13  and  C12_14 
REMARK    3  A    between atoms: C12_14  and  C13_15 
REMARK    4  A    between atoms: C13_15  and  C14_16 
REMARK    5  A    between atoms: C14_16  and  C15_17 
REMARK    6  A    between atoms: C15_17  and  C16_18 
REMARK    7  A    between atoms: C18_20  and  C19_21 
REMARK    8  A    between atoms: C19_21  and  O2_22 
ROOT
HETATM    1  C1  UNL     1      44.010  33.582  32.296  1.00  0.00     0.013 C 
HETATM    2  C2  UNL     1      43.754  32.481  31.882  1.00  0.00    -0.106 C 
HETATM    3  C3  UNL     1      43.471  31.155  31.377  1.00  0.00     0.033 C 
HETATM    4  C4  UNL     1      44.370  30.719  30.274  1.00  0.00     0.030 C 
HETATM    5  C5  UNL     1      43.438  30.115  32.514  1.00  0.00     0.013 C 
HETATM    6  C6  UNL     1      42.928  28.919  31.768  1.00  0.00     0.007 C 
HETATM    7  C7  UNL     1      41.910  29.517  30.784  1.00  0.00     0.014 C 
HETATM    8  C8  UNL     1      41.985  31.009  31.017  1.00  0.00     0.001 C 
HETATM    9  C9  UNL     1      41.556  31.847  29.897  1.00  0.00     0.019 C 
HETATM   10  C10 UNL     1      41.347  31.289  32.344  1.00  0.00     0.132 C 
HETATM   11  C11 UNL     1      42.339  30.714  33.362  1.00  0.00     0.021 C 
ENDROOT
BRANCH  11  12
HETATM   12  C12 UNL     1      41.668  29.696  34.238  1.00  0.00     0.007 C 
BRANCH  12  13
HETATM   13  C13 UNL     1      40.203  30.060  34.330  1.00  0.00     0.001 C 
BRANCH  13  14
HETATM   14  C14 UNL     1      39.377  28.912  34.872  1.00  0.00     0.001 C 
BRANCH  14  15
HETATM   15  C15 UNL     1      39.323  28.896  36.371  1.00  0.00     0.012 C 
BRANCH  15  16
HETATM   16  C16 UNL     1      39.893  27.623  36.956  1.00  0.00     0.059 C 
HETATM   17  C17 UNL     1      39.011  26.488  36.611  1.00  0.00     0.024 C 
HETATM   18  C18 UNL     1      38.605  25.616  37.755  1.00  0.00    -0.015 C 
HETATM   19  C21 UNL     1      39.721  24.701  38.174  1.00  0.00     0.014 C 
HETATM   20  C28 UNL     1      38.176  26.457  38.962  1.00  0.00     0.060 C 
HETATM   21  C22 UNL     1      39.927  24.733  39.694  1.00  0.00     0.036 C 
HETATM   22  C23 UNL     1      40.404  26.106  40.044  1.00  0.00     0.167 A 
HETATM   23  O3  UNL     1      40.479  26.369  41.382  1.00  0.00    -0.347 OA
HETATM   24  C27 UNL     1      39.428  27.110  39.485  1.00  0.00     0.151 A 
HETATM   25  C24 UNL     1      39.782  27.519  41.655  1.00  0.00     0.159 A 
HETATM   26  C25 UNL     1      38.732  27.189  42.720  1.00  0.00     0.078 C 
HETATM   27  C26 UNL     1      40.673  28.653  42.135  1.00  0.00     0.078 C 
HETATM   28  O4  UNL     1      39.129  27.938  40.534  1.00  0.00    -0.335 OA
HETATM   29  C29 UNL     1      40.088  27.846  38.403  1.00  0.00     0.168 C 
HETATM   30  O5  UNL     1      40.881  28.733  38.719  1.00  0.00    -0.294 OA
BRANCH  18  31
HETATM   31  C19 UNL     1      37.378  24.821  37.340  1.00  0.00     0.176 C 
BRANCH  31  32
HETATM   32  O2  UNL     1      37.781  23.874  36.410  1.00  0.00    -0.395 OA
HETATM   33  C20 UNL     1      36.949  22.776  36.427  1.00  0.00     0.201 C 
ENDBRANCH  31  32
ENDBRANCH  18  31
ENDBRANCH  15  16
ENDBRANCH  14  15
ENDBRANCH  13  14
ENDBRANCH  12  13
ENDBRANCH  11  12
BRANCH  10  34
HETATM   34  O1  UNL     1      41.076  32.617  32.569  1.00  0.00    -0.394 OA
ATOM     35  H1  UNL     1      41.523  32.983  33.323  1.00  0.00     0.210 HD
ENDBRANCH  10  34
TORSDOF 8
ENDMDL
MODEL 2
REMARK VINA RESULT: -9.295145454      1.020      1.999
REMARK  8 active torsions:
REMARK  status: ('A' for Active; 'I' for Inactive)
REMARK    1  A    between atoms: C10_10  and  O1_11 
REMARK    2  A    between atoms: C11_13  and  C12_14 
REMARK    3  A    between atoms: C12_14  and  C13_15 
REMARK    4  A    between atoms: C13_15  and  C14_16 
REMARK    5  A    between atoms: C14_16  and  C15_17 
REMARK    6  A    between atoms: C15_17  and  C16_18 
REMARK    7  A    between atoms: C18_20  and  C19_21 
REMARK    8  A    between atoms: C19_21  and  O2_22 
ROOT
HETATM    1  C1  UNL     1      43.021  28.401  30.902  1.00  0.00     0.013 C 
HETATM    2  C2  UNL     1      42.423  29.443  30.975  1.00  0.00    -0.106 C 
HETATM    3  C3  UNL     1      41.699  30.695  31.039  1.00  0.00     0.033 C 
HETATM    4  C4  UNL     1      41.737  31.484  29.778  1.00  0.00     0.030 C 
HETATM    5  C5  UNL     1      40.251  30.484  31.522  1.00  0.00     0.013 C 
HETATM    6  C6  UNL     1      39.818  31.909  31.698  1.00  0.00     0.007 C 
HETATM    7  C7  UNL     1      41.077  32.603  32.241  1.00  0.00     0.014 C 
HETATM    8  C8  UNL     1      42.131  31.519  32.260  1.00  0.00     0.001 C 
HETATM    9  C9  UNL     1      43.518  31.984  32.209  1.00  0.00     0.019 C 
HETATM   10  C10 UNL     1      41.785  30.575  33.372  1.00  0.00     0.132 C 
HETATM   11  C11 UNL     1      40.531  29.851  32.865  1.00  0.00     0.021 C 
ENDROOT
BRANCH  11  12
HETATM   12  C12 UNL     1      39.395  30.021  33.831  1.00  0.00     0.007 C 
BRANCH  12  13
HETATM   13  C13 UNL     1      39.941  30.689  35.073  1.00  0.00     0.001 C 
BRANCH  13  14
HETATM   14  C14 UNL     1      40.290  29.675  36.142  1.00  0.00     0.001 C 
BRANCH  14  15
HETATM   15  C15 UNL     1      39.317  28.535  36.197  1.00  0.00     0.012 C 
BRANCH  15  16
HETATM   16  C16 UNL     1      39.905  27.303  36.851  1.00  0.00     0.059 C 
HETATM   17  C17 UNL     1      39.058  26.132  36.541  1.00  0.00     0.024 C 
HETATM   18  C18 UNL     1      38.650  25.303  37.716  1.00  0.00    -0.015 C 
HETATM   19  C21 UNL     1      39.778  24.436  38.197  1.00  0.00     0.014 C 
HETATM   20  C28 UNL     1      38.176  26.186  38.874  1.00  0.00     0.060 C 
HETATM   21  C22 UNL     1      39.953  24.541  39.717  1.00  0.00     0.036 C 
HETATM   22  C23 UNL     1      40.391  25.940  40.013  1.00  0.00     0.167 A 
HETATM   23  O3  UNL     1      40.432  26.264  41.339  1.00  0.00    -0.347 OA
HETATM   24  C27 UNL     1      39.402  26.894  39.391  1.00  0.00     0.151 A 
HETATM   25  C24 UNL     1      39.703  27.408  41.546  1.00  0.00     0.159 A 
HETATM   26  C25 UNL     1      38.640  27.100  42.605  1.00  0.00     0.078 C 
HETATM   27  C26 UNL     1      40.556  28.585  41.991  1.00  0.00     0.078 C 
HETATM   28  O4  UNL     1      39.062  27.759  40.395  1.00  0.00    -0.335 OA
HETATM   29  C29 UNL     1      40.066  27.596  38.289  1.00  0.00     0.168 C 
HETATM   30  O5  UNL     1      40.830  28.516  38.579  1.00  0.00    -0.294 OA
BRANCH  18  31
HETATM   31  C19 UNL     1      37.451  24.460  37.314  1.00  0.00     0.176 C 
BRANCH  31  32
HETATM   32  O2  UNL     1      37.769  23.806  36.133  1.00  0.00    -0.395 OA
HETATM   33  C20 UNL     1      37.110  22.599  36.041  1.00  0.00     0.201 C 
ENDBRANCH  31  32
ENDBRANCH  18  31
ENDBRANCH  15  16
ENDBRANCH  14  15
ENDBRANCH  13  14
ENDBRANCH  12  13
ENDBRANCH  11  12
BRANCH  10  34
HETATM   34  O1  UNL     1      42.793  29.704  33.706  1.00  0.00    -0.394 OA
ATOM     35  H1  UNL     1      42.720  29.340  34.580  1.00  0.00     0.210 HD
ENDBRANCH  10  34
TORSDOF 8
ENDMDL
MODEL 3
REMARK VINA RESULT: -9.162591802      6.267     10.764
REMARK  8 active torsions:
REMARK  status: ('A' for Active; 'I' for Inactive)
REMARK    1  A    between atoms: C10_10  and  O1_11 
REMARK    2  A    between atoms: C11_13  and  C12_14 
REMARK    3  A    between atoms: C12_14  and  C13_15 
REMARK    4  A    between atoms: C13_15  and  C14_16 
REMARK    5  A    between atoms: C14_16  and  C15_17 
REMARK    6  A    between atoms: C15_17  and  C16_18 
REMARK    7  A    between atoms: C18_20  and  C19_21 
REMARK    8  A    between atoms: C19_21  and  O2_22 
ROOT
HETATM    1  C1  UNL     1      39.711  32.985  30.629  1.00  0.00     0.013 C 
HETATM    2  C2  UNL     1      40.178  32.043  31.216  1.00  0.00    -0.106 C 
HETATM    3  C3  UNL     1      40.718  30.897  31.915  1.00  0.00     0.033 C 
HETATM    4  C4  UNL     1      39.686  29.957  32.430  1.00  0.00     0.030 C 
HETATM    5  C5  UNL     1      41.767  30.160  31.061  1.00  0.00     0.013 C 
HETATM    6  C6  UNL     1      42.299  29.187  32.071  1.00  0.00     0.007 C 
HETATM    7  C7  UNL     1      42.304  29.995  33.378  1.00  0.00     0.014 C 
HETATM    8  C8  UNL     1      41.711  31.333  33.003  1.00  0.00     0.001 C 
HETATM    9  C9  UNL     1      41.102  32.087  34.100  1.00  0.00     0.019 C 
HETATM   10  C10 UNL     1      42.728  32.061  32.177  1.00  0.00     0.132 C 
HETATM   11  C11 UNL     1      42.750  31.290  30.851  1.00  0.00     0.021 C 
ENDROOT
BRANCH  11  12
HETATM   12  C12 UNL     1      44.135  30.800  30.546  1.00  0.00     0.007 C 
BRANCH  12  13
HETATM   13  C13 UNL     1      44.960  31.989  30.108  1.00  0.00     0.001 C 
BRANCH  13  14
HETATM   14  C14 UNL     1      45.989  31.600  29.067  1.00  0.00     0.001 C 
BRANCH  14  15
HETATM   15  C15 UNL     1      46.289  30.130  29.072  1.00  0.00     0.012 C 
BRANCH  15  16
HETATM   16  C16 UNL     1      47.662  29.818  28.519  1.00  0.00     0.059 C 
HETATM   17  C17 UNL     1      47.689  28.423  28.033  1.00  0.00     0.024 C 
HETATM   18  C18 UNL     1      48.827  27.589  28.529  1.00  0.00    -0.015 C 
HETATM   19  C21 UNL     1      50.107  27.926  27.818  1.00  0.00     0.014 C 
HETATM   20  C28 UNL     1      49.033  27.779  30.034  1.00  0.00     0.060 C 
HETATM   21  C22 UNL     1      51.258  28.134  28.811  1.00  0.00     0.036 C 
HETATM   22  C23 UNL     1      50.931  29.353  29.612  1.00  0.00     0.167 A 
HETATM   23  O3  UNL     1      51.767  29.595  30.664  1.00  0.00    -0.347 OA
HETATM   24  C27 UNL     1      49.559  29.180  30.213  1.00  0.00     0.151 A 
HETATM   25  C24 UNL     1      51.022  29.745  31.807  1.00  0.00     0.159 A 
HETATM   26  C25 UNL     1      51.529  28.728  32.834  1.00  0.00     0.078 C 
HETATM   27  C26 UNL     1      51.095  31.149  32.384  1.00  0.00     0.078 C 
HETATM   28  O4  UNL     1      49.714  29.462  31.543  1.00  0.00    -0.335 OA
HETATM   29  C29 UNL     1      48.648  30.133  29.572  1.00  0.00     0.168 C 
HETATM   30  O5  UNL     1      48.703  31.306  29.940  1.00  0.00    -0.294 OA
BRANCH  18  31
HETATM   31  C19 UNL     1      48.468  26.126  28.335  1.00  0.00     0.176 C 
BRANCH  31  32
HETATM   32  O2  UNL     1      47.935  25.657  29.528  1.00  0.00    -0.395 OA
HETATM   33  C20 UNL     1      47.895  24.280  29.547  1.00  0.00     0.201 C 
ENDBRANCH  31  32
ENDBRANCH  18  31
ENDBRANCH  15  16
ENDBRANCH  14  15
ENDBRANCH  13  14
ENDBRANCH  12  13
ENDBRANCH  11  12
BRANCH  10  34
HETATM   34  O1  UNL     1      42.461  33.397  32.001  1.00  0.00    -0.394 OA
ATOM     35  H1  UNL     1      42.529  33.693  31.102  1.00  0.00     0.210 HD
ENDBRANCH  10  34
TORSDOF 8
ENDMDL
MODEL 4
REMARK VINA RESULT: -9.026156312      2.208      3.204
REMARK  8 active torsions:
REMARK  status: ('A' for Active; 'I' for Inactive)
REMARK    1  A    between atoms: C10_10  and  O1_11 
REMARK    2  A    between atoms: C11_13  and  C12_14 
REMARK    3  A    between atoms: C12_14  and  C13_15 
REMARK    4  A    between atoms: C13_15  and  C14_16 
REMARK    5  A    between atoms: C14_16  and  C15_17 
REMARK    6  A    between atoms: C15_17  and  C16_18 
REMARK    7  A    between atoms: C18_20  and  C19_21 
REMARK    8  A    between atoms: C19_21  and  O2_22 
ROOT
HETATM    1  C1  UNL     1      42.675  33.429  33.283  1.00  0.00     0.013 C 
HETATM    2  C2  UNL     1      42.759  32.405  32.655  1.00  0.00    -0.106 C 
HETATM    3  C3  UNL     1      42.886  31.176  31.900  1.00  0.00     0.033 C 
HETATM    4  C4  UNL     1      44.099  31.114  31.041  1.00  0.00     0.030 C 
HETATM    5  C5  UNL     1      42.785  29.941  32.815  1.00  0.00     0.013 C 
HETATM    6  C6  UNL     1      42.730  28.851  31.786  1.00  0.00     0.007 C 
HETATM    7  C7  UNL     1      41.888  29.465  30.657  1.00  0.00     0.014 C 
HETATM    8  C8  UNL     1      41.598  30.874  31.121  1.00  0.00     0.001 C 
HETATM    9  C9  UNL     1      41.298  31.840  30.063  1.00  0.00     0.019 C 
HETATM   10  C10 UNL     1      40.607  30.784  32.242  1.00  0.00     0.132 C 
HETATM   11  C11 UNL     1      41.412  30.180  33.400  1.00  0.00     0.021 C 
ENDROOT
BRANCH  11  12
HETATM   12  C12 UNL     1      40.767  28.918  33.892  1.00  0.00     0.007 C 
BRANCH  12  13
HETATM   13  C13 UNL     1      39.810  29.290  35.002  1.00  0.00     0.001 C 
BRANCH  13  14
HETATM   14  C14 UNL     1      40.033  28.442  36.237  1.00  0.00     0.001 C 
BRANCH  14  15
HETATM   15  C15 UNL     1      39.207  27.189  36.234  1.00  0.00     0.012 C 
BRANCH  15  16
HETATM   16  C16 UNL     1      40.056  25.937  36.268  1.00  0.00     0.059 C 
HETATM   17  C17 UNL     1      39.898  25.204  34.994  1.00  0.00     0.024 C 
HETATM   18  C18 UNL     1      39.574  23.751  35.123  1.00  0.00    -0.015 C 
HETATM   19  C21 UNL     1      40.785  22.948  35.506  1.00  0.00     0.014 C 
HETATM   20  C28 UNL     1      38.478  23.522  36.168  1.00  0.00     0.060 C 
HETATM   21  C22 UNL     1      40.478  22.000  36.672  1.00  0.00     0.036 C 
HETATM   22  C23 UNL     1      40.189  22.851  37.866  1.00  0.00     0.167 A 
HETATM   23  O3  UNL     1      39.728  22.177  38.960  1.00  0.00    -0.347 OA
HETATM   24  C27 UNL     1      39.102  23.832  37.504  1.00  0.00     0.151 A 
HETATM   25  C24 UNL     1      38.559  22.755  39.387  1.00  0.00     0.159 A 
HETATM   26  C25 UNL     1      37.480  21.669  39.414  1.00  0.00     0.078 C 
HETATM   27  C26 UNL     1      38.683  23.400  40.759  1.00  0.00     0.078 C 
HETATM   28  O4  UNL     1      38.170  23.715  38.500  1.00  0.00    -0.335 OA
HETATM   29  C29 UNL     1      39.681  25.178  37.477  1.00  0.00     0.168 C 
HETATM   30  O5  UNL     1      39.877  25.734  38.557  1.00  0.00    -0.294 OA
BRANCH  18  31
HETATM   31  C19 UNL     1      39.000  23.269  33.801  1.00  0.00     0.176 C 
BRANCH  31  32
HETATM   32  O2  UNL     1      39.790  23.782  32.782  1.00  0.00    -0.395 OA
HETATM   33  C20 UNL     1      39.604  23.083  31.610  1.00  0.00     0.201 C 
ENDBRANCH  31  32
ENDBRANCH  18  31
ENDBRANCH  15  16
ENDBRANCH  14  15
ENDBRANCH  13  14
ENDBRANCH  12  13
ENDBRANCH  11  12
BRANCH  10  34
HETATM   34  O1  UNL     1      40.024  31.982  32.578  1.00  0.00    -0.394 OA
ATOM     35  H1  UNL     1      39.195  32.147  32.145  1.00  0.00     0.210 HD
ENDBRANCH  10  34
TORSDOF 8
ENDMDL
MODEL 5
REMARK VINA RESULT: -9.005462098      2.346      3.928
REMARK  8 active torsions:
REMARK  status: ('A' for Active; 'I' for Inactive)
REMARK    1  A    between atoms: C10_10  and  O1_11 
REMARK    2  A    between atoms: C11_13  and  C12_14 
REMARK    3  A    between atoms: C12_14  and  C13_15 
REMARK    4  A    between atoms: C13_15  and  C14_16 
REMARK    5  A    between atoms: C14_16  and  C15_17 
REMARK    6  A    between atoms: C15_17  and  C16_18 
REMARK    7  A    between atoms: C18_20  and  C19_21 
REMARK    8  A    between atoms: C19_21  and  O2_22 
ROOT
HETATM    1  C1  UNL     1      42.487  29.335  30.916  1.00  0.00     0.013 C 
HETATM    2  C2  UNL     1      41.650  30.007  31.462  1.00  0.00    -0.106 C 
HETATM    3  C3  UNL     1      40.633  30.819  32.096  1.00  0.00     0.033 C 
HETATM    4  C4  UNL     1      40.041  31.855  31.206  1.00  0.00     0.030 C 
HETATM    5  C5  UNL     1      39.539  29.946  32.741  1.00  0.00     0.013 C 
HETATM    6  C6  UNL     1      38.765  30.995  33.483  1.00  0.00     0.007 C 
HETATM    7  C7  UNL     1      39.853  31.958  33.983  1.00  0.00     0.014 C 
HETATM    8  C8  UNL     1      41.142  31.403  33.421  1.00  0.00     0.001 C 
HETATM    9  C9  UNL     1      42.234  32.365  33.271  1.00  0.00     0.019 C 
HETATM   10  C10 UNL     1      41.457  30.147  34.177  1.00  0.00     0.132 C 
HETATM   11  C11 UNL     1      40.395  29.150  33.699  1.00  0.00     0.021 C 
ENDROOT
BRANCH  11  12
HETATM   12  C12 UNL     1      39.612  28.613  34.862  1.00  0.00     0.007 C 
BRANCH  12  13
HETATM   13  C13 UNL     1      40.342  28.999  36.128  1.00  0.00     0.001 C 
BRANCH  13  14
HETATM   14  C14 UNL     1      39.963  28.100  37.286  1.00  0.00     0.001 C 
BRANCH  14  15
HETATM   15  C15 UNL     1      39.149  26.915  36.855  1.00  0.00     0.012 C 
BRANCH  15  16
HETATM   16  C16 UNL     1      39.965  25.643  36.797  1.00  0.00     0.059 C 
HETATM   17  C17 UNL     1      39.756  24.986  35.489  1.00  0.00     0.024 C 
HETATM   18  C18 UNL     1      39.397  23.537  35.546  1.00  0.00    -0.015 C 
HETATM   19  C21 UNL     1      40.596  22.683  35.852  1.00  0.00     0.014 C 
HETATM   20  C28 UNL     1      38.323  23.277  36.606  1.00  0.00     0.060 C 
HETATM   21  C22 UNL     1      40.294  21.679  36.972  1.00  0.00     0.036 C 
HETATM   22  C23 UNL     1      40.058  22.470  38.218  1.00  0.00     0.167 A 
HETATM   23  O3  UNL     1      39.608  21.747  39.285  1.00  0.00    -0.347 OA
HETATM   24  C27 UNL     1      38.988  23.496  37.940  1.00  0.00     0.151 A 
HETATM   25  C24 UNL     1      38.466  22.329  39.775  1.00  0.00     0.159 A 
HETATM   26  C25 UNL     1      37.360  21.270  39.771  1.00  0.00     0.078 C 
HETATM   27  C26 UNL     1      38.641  22.893  41.176  1.00  0.00     0.078 C 
HETATM   28  O4  UNL     1      38.079  23.346  38.953  1.00  0.00    -0.335 OA
HETATM   29  C29 UNL     1      39.602  24.826  37.972  1.00  0.00     0.168 C 
HETATM   30  O5  UNL     1      39.840  25.317  39.076  1.00  0.00    -0.294 OA
BRANCH  18  31
HETATM   31  C19 UNL     1      38.777  23.144  34.216  1.00  0.00     0.176 C 
BRANCH  31  32
HETATM   32  O2  UNL     1      39.791  22.665  33.399  1.00  0.00    -0.395 OA
HETATM   33  C20 UNL     1      39.524  22.921  32.072  1.00  0.00     0.201 C 
ENDBRANCH  31  32
ENDBRANCH  18  31
ENDBRANCH  15  16
ENDBRANCH  14  15
ENDBRANCH  13  14
ENDBRANCH  12  13
ENDBRANCH  11  12
BRANCH  10  34
HETATM   34  O1  UNL     1      42.736  29.681  33.988  1.00  0.00    -0.394 OA
ATOM     35  H1  UNL     1      43.030  29.069  34.651  1.00  0.00     0.210 HD
ENDBRANCH  10  34
TORSDOF 8
ENDMDL
