MODEL 1
REMARK VINA RESULT: -8.337487057      0.000      0.000
REMARK  8 active torsions:
REMARK  status: ('A' for Active; 'I' for Inactive)
REMARK    1  A    between atoms: C2_2  and  C3_3 
REMARK    2  A    between atoms: C2_2  and  O4_27 
REMARK    3  A    between atoms: C3_3  and  C4_4 
REMARK    4  A    between atoms: C4_4  and  C5_5 
REMARK    5  A    between atoms: C21_22  and  O2_23 
REMARK    6  A    between atoms: O4_27  and  C22_28 
REMARK       I    between atoms: C22_28  and  N1_30 
REMARK    7  A    between atoms: N1_30  and  C23_32 
REMARK    8  A    between atoms: C23_32  and  C24_33 
ROOT
HETATM    1  C5  UNL     1      37.800  25.146  37.754  1.00  0.00     0.086 C 
HETATM    2  C6  UNL     1      37.242  23.898  37.049  1.00  0.00     0.030 C 
HETATM    3  C7  UNL     1      36.573  23.097  38.112  1.00  0.00     0.009 C 
HETATM    4  C8  UNL     1      37.459  22.362  39.036  1.00  0.00     0.018 C 
HETATM    5  C9  UNL     1      38.894  22.725  39.040  1.00  0.00     0.084 C 
HETATM    6  C10 UNL     1      39.793  21.808  38.238  1.00  0.00     0.007 C 
HETATM    7  C11 UNL     1      40.546  20.850  39.161  1.00  0.00     0.007 C 
HETATM    8  C12 UNL     1      40.739  19.501  38.613  1.00  0.00     0.007 C 
HETATM    9  C13 UNL     1      40.978  19.380  37.167  1.00  0.00     0.012 C 
HETATM   10  C14 UNL     1      40.238  20.374  36.326  1.00  0.00     0.066 C 
HETATM   11  C15 UNL     1      41.486  21.115  36.123  1.00  0.00     0.140 C 
HETATM   12  O1  UNL     1      41.876  22.208  35.751  1.00  0.00    -0.297 OA
HETATM   13  C16 UNL     1      42.237  19.914  36.589  1.00  0.00     0.018 C 
HETATM   14  C17 UNL     1      43.376  20.164  37.508  1.00  0.00     0.023 C 
HETATM   15  C18 UNL     1      42.695  19.134  35.348  1.00  0.00     0.023 C 
HETATM   16  C19 UNL     1      39.166  21.034  37.170  1.00  0.00     0.005 C 
HETATM   17  C20 UNL     1      38.226  21.735  36.262  1.00  0.00     0.038 C 
HETATM   18  C21 UNL     1      38.303  23.230  36.266  1.00  0.00     0.123 C 
HETATM   19  S1  UNL     1      39.212  24.462  38.664  1.00  0.00     0.024 S 
HETATM   20  O3  UNL     1      39.558  25.283  39.868  1.00  0.00    -0.257 OA
ENDROOT
BRANCH   1  21
HETATM   21  C4  UNL     1      38.230  26.181  36.779  1.00  0.00     0.024 C 
BRANCH  21  22
HETATM   22  C3  UNL     1      39.682  26.499  36.766  1.00  0.00     0.065 C 
BRANCH  22  23
HETATM   23  C2  UNL     1      40.030  27.943  37.011  1.00  0.00     0.049 C 
HETATM   24  C1  UNL     1      39.778  28.802  36.058  1.00  0.00     0.046 C 
BRANCH  23  25
HETATM   25  O4  UNL     1      40.585  28.179  38.239  1.00  0.00    -0.267 OA
BRANCH  25  26
HETATM   26  C22 UNL     1      40.007  28.483  39.450  1.00  0.00     0.369 C 
HETATM   27  O5  UNL     1      38.754  28.500  39.452  1.00  0.00    -0.238 OA
HETATM   28  N1  UNL     1      40.796  28.753  40.589  1.00  0.00    -0.316 N 
ATOM     29  H1  UNL     1      41.803  28.687  40.446  1.00  0.00     0.170 HD
BRANCH  28  30
HETATM   30  C23 UNL     1      40.399  29.098  41.885  1.00  0.00     0.066 C 
BRANCH  30  31
HETATM   31  C24 UNL     1      40.375  28.107  42.972  1.00  0.00     0.040 C 
HETATM   32  C25 UNL     1      39.301  27.087  43.009  1.00  0.00     0.010 C 
ENDBRANCH  30  31
ENDBRANCH  28  30
ENDBRANCH  25  26
ENDBRANCH  23  25
ENDBRANCH  22  23
ENDBRANCH  21  22
ENDBRANCH   1  21
BRANCH  18  33
HETATM   33  O2  UNL     1      38.182  23.694  34.930  1.00  0.00    -0.395 OA
ATOM     34  H2  UNL     1      38.341  22.948  34.364  1.00  0.00     0.210 HD
ENDBRANCH  18  33
TORSDOF 8
ENDMDL
MODEL 2
REMARK VINA RESULT: -7.977571647      2.036      3.833
REMARK  8 active torsions:
REMARK  status: ('A' for Active; 'I' for Inactive)
REMARK    1  A    between atoms: C2_2  and  C3_3 
REMARK    2  A    between atoms: C2_2  and  O4_27 
REMARK    3  A    between atoms: C3_3  and  C4_4 
REMARK    4  A    between atoms: C4_4  and  C5_5 
REMARK    5  A    between atoms: C21_22  and  O2_23 
REMARK    6  A    between atoms: O4_27  and  C22_28 
REMARK       I    between atoms: C22_28  and  N1_30 
REMARK    7  A    between atoms: N1_30  and  C23_32 
REMARK    8  A    between atoms: C23_32  and  C24_33 
ROOT
HETATM    1  C5  UNL     1      37.897  25.295  37.717  1.00  0.00     0.086 C 
HETATM    2  C6  UNL     1      37.308  24.081  36.979  1.00  0.00     0.030 C 
HETATM    3  C7  UNL     1      36.585  23.290  38.013  1.00  0.00     0.009 C 
HETATM    4  C8  UNL     1      37.419  22.508  38.946  1.00  0.00     0.018 C 
HETATM    5  C9  UNL     1      38.867  22.814  38.988  1.00  0.00     0.084 C 
HETATM    6  C10 UNL     1      39.749  21.876  38.193  1.00  0.00     0.007 C 
HETATM    7  C11 UNL     1      40.442  20.875  39.117  1.00  0.00     0.007 C 
HETATM    8  C12 UNL     1      40.596  19.528  38.553  1.00  0.00     0.007 C 
HETATM    9  C13 UNL     1      40.864  19.420  37.111  1.00  0.00     0.012 C 
HETATM   10  C14 UNL     1      40.182  20.455  36.269  1.00  0.00     0.066 C 
HETATM   11  C15 UNL     1      41.463  21.149  36.106  1.00  0.00     0.140 C 
HETATM   12  O1  UNL     1      41.902  22.231  35.760  1.00  0.00    -0.297 OA
HETATM   13  C16 UNL     1      42.155  19.913  36.570  1.00  0.00     0.018 C 
HETATM   14  C17 UNL     1      43.282  20.104  37.518  1.00  0.00     0.023 C 
HETATM   15  C18 UNL     1      42.612  19.134  35.328  1.00  0.00     0.023 C 
HETATM   16  C19 UNL     1      39.117  21.143  37.099  1.00  0.00     0.005 C 
HETATM   17  C20 UNL     1      38.227  21.893  36.181  1.00  0.00     0.038 C 
HETATM   18  C21 UNL     1      38.361  23.384  36.209  1.00  0.00     0.123 C 
HETATM   19  S1  UNL     1      39.260  24.544  38.647  1.00  0.00     0.024 S 
HETATM   20  O3  UNL     1      39.609  25.332  39.871  1.00  0.00    -0.257 OA
ENDROOT
BRANCH   1  21
HETATM   21  C4  UNL     1      38.389  26.327  36.768  1.00  0.00     0.024 C 
BRANCH  21  22
HETATM   22  C3  UNL     1      39.814  26.723  36.919  1.00  0.00     0.065 C 
BRANCH  22  23
HETATM   23  C2  UNL     1      40.047  28.125  37.415  1.00  0.00     0.049 C 
HETATM   24  C1  UNL     1      39.521  28.462  38.564  1.00  0.00     0.046 C 
BRANCH  23  25
HETATM   25  O4  UNL     1      40.802  28.893  36.572  1.00  0.00    -0.267 OA
BRANCH  25  26
HETATM   26  C22 UNL     1      40.476  29.549  35.407  1.00  0.00     0.369 C 
HETATM   27  O5  UNL     1      39.590  30.427  35.523  1.00  0.00    -0.238 OA
HETATM   28  N1  UNL     1      41.110  29.232  34.187  1.00  0.00    -0.316 N 
ATOM     29  H1  UNL     1      41.825  28.507  34.244  1.00  0.00     0.170 HD
BRANCH  28  30
HETATM   30  C23 UNL     1      40.903  29.766  32.911  1.00  0.00     0.066 C 
BRANCH  30  31
HETATM   31  C24 UNL     1      41.869  29.554  31.822  1.00  0.00     0.040 C 
HETATM   32  C25 UNL     1      41.852  30.452  30.643  1.00  0.00     0.010 C 
ENDBRANCH  30  31
ENDBRANCH  28  30
ENDBRANCH  25  26
ENDBRANCH  23  25
ENDBRANCH  22  23
ENDBRANCH  21  22
ENDBRANCH   1  21
BRANCH  18  33
HETATM   33  O2  UNL     1      38.289  23.872  34.879  1.00  0.00    -0.395 OA
ATOM     34  H2  UNL     1      39.134  24.255  34.680  1.00  0.00     0.210 HD
ENDBRANCH  18  33
TORSDOF 8
ENDMDL
MODEL 3
REMARK VINA RESULT: -7.819925853      2.094      6.074
REMARK  8 active torsions:
REMARK  status: ('A' for Active; 'I' for Inactive)
REMARK    1  A    between atoms: C2_2  and  C3_3 
REMARK    2  A    between atoms: C2_2  and  O4_27 
REMARK    3  A    between atoms: C3_3  and  C4_4 
REMARK    4  A    between atoms: C4_4  and  C5_5 
REMARK    5  A    between atoms: C21_22  and  O2_23 
REMARK    6  A    between atoms: O4_27  and  C22_28 
REMARK       I    between atoms: C22_28  and  N1_30 
REMARK    7  A    between atoms: N1_30  and  C23_32 
REMARK    8  A    between atoms: C23_32  and  C24_33 
ROOT
HETATM    1  C5  UNL     1      39.756  21.076  36.049  1.00  0.00     0.086 C 
HETATM    2  C6  UNL     1      38.335  21.661  36.115  1.00  0.00     0.030 C 
HETATM    3  C7  UNL     1      38.040  22.163  34.744  1.00  0.00     0.009 C 
HETATM    4  C8  UNL     1      38.701  23.422  34.348  1.00  0.00     0.018 C 
HETATM    5  C9  UNL     1      39.821  23.899  35.192  1.00  0.00     0.084 C 
HETATM    6  C10 UNL     1      39.462  24.980  36.189  1.00  0.00     0.007 C 
HETATM    7  C11 UNL     1      39.914  26.350  35.685  1.00  0.00     0.007 C 
HETATM    8  C12 UNL     1      39.004  27.453  36.016  1.00  0.00     0.007 C 
HETATM    9  C13 UNL     1      38.312  27.401  37.312  1.00  0.00     0.012 C 
HETATM   10  C14 UNL     1      37.930  26.024  37.762  1.00  0.00     0.066 C 
HETATM   11  C15 UNL     1      39.025  26.050  38.735  1.00  0.00     0.140 C 
HETATM   12  O1  UNL     1      39.673  25.293  39.436  1.00  0.00    -0.297 OA
HETATM   13  C16 UNL     1      39.098  27.530  38.564  1.00  0.00     0.018 C 
HETATM   14  C17 UNL     1      40.459  28.118  38.476  1.00  0.00     0.023 C 
HETATM   15  C18 UNL     1      38.295  28.176  39.703  1.00  0.00     0.023 C 
HETATM   16  C19 UNL     1      38.061  25.068  36.592  1.00  0.00     0.005 C 
HETATM   17  C20 UNL     1      37.355  23.812  36.939  1.00  0.00     0.038 C 
HETATM   18  C21 UNL     1      38.225  22.628  37.227  1.00  0.00     0.123 C 
HETATM   19  S1  UNL     1      40.774  22.573  35.963  1.00  0.00     0.024 S 
HETATM   20  O3  UNL     1      42.094  22.321  35.302  1.00  0.00    -0.257 OA
ENDROOT
BRANCH   1  21
HETATM   21  C4  UNL     1      40.073  20.270  37.256  1.00  0.00     0.024 C 
BRANCH  21  22
HETATM   22  C3  UNL     1      41.388  20.544  37.894  1.00  0.00     0.065 C 
BRANCH  22  23
HETATM   23  C2  UNL     1      41.383  20.571  39.400  1.00  0.00     0.049 C 
HETATM   24  C1  UNL     1      41.494  19.432  40.031  1.00  0.00     0.046 C 
BRANCH  23  25
HETATM   25  O4  UNL     1      41.259  21.825  39.932  1.00  0.00    -0.267 OA
BRANCH  25  26
HETATM   26  C22 UNL     1      40.258  22.394  40.685  1.00  0.00     0.369 C 
HETATM   27  O5  UNL     1      39.140  21.836  40.592  1.00  0.00    -0.238 OA
HETATM   28  N1  UNL     1      40.504  23.524  41.494  1.00  0.00    -0.316 N 
ATOM     29  H1  UNL     1      41.466  23.863  41.486  1.00  0.00     0.170 HD
BRANCH  28  30
HETATM   30  C23 UNL     1      39.623  24.248  42.305  1.00  0.00     0.066 C 
BRANCH  30  31
HETATM   31  C24 UNL     1      40.054  25.458  43.021  1.00  0.00     0.040 C 
HETATM   32  C25 UNL     1      39.337  26.736  42.797  1.00  0.00     0.010 C 
ENDBRANCH  30  31
ENDBRANCH  28  30
ENDBRANCH  25  26
ENDBRANCH  23  25
ENDBRANCH  22  23
ENDBRANCH  21  22
ENDBRANCH   1  21
BRANCH  18  33
HETATM   33  O2  UNL     1      37.683  21.924  38.333  1.00  0.00    -0.395 OA
ATOM     34  H2  UNL     1      36.801  22.251  38.462  1.00  0.00     0.210 HD
ENDBRANCH  18  33
TORSDOF 8
ENDMDL
MODEL 4
REMARK VINA RESULT: -7.269440768      2.318      3.733
REMARK  8 active torsions:
REMARK  status: ('A' for Active; 'I' for Inactive)
REMARK    1  A    between atoms: C2_2  and  C3_3 
REMARK    2  A    between atoms: C2_2  and  O4_27 
REMARK    3  A    between atoms: C3_3  and  C4_4 
REMARK    4  A    between atoms: C4_4  and  C5_5 
REMARK    5  A    between atoms: C21_22  and  O2_23 
REMARK    6  A    between atoms: O4_27  and  C22_28 
REMARK       I    between atoms: C22_28  and  N1_30 
REMARK    7  A    between atoms: N1_30  and  C23_32 
REMARK    8  A    between atoms: C23_32  and  C24_33 
ROOT
HETATM    1  C5  UNL     1      37.525  24.681  38.123  1.00  0.00     0.086 C 
HETATM    2  C6  UNL     1      37.034  23.323  37.593  1.00  0.00     0.030 C 
HETATM    3  C7  UNL     1      36.651  22.533  38.797  1.00  0.00     0.009 C 
HETATM    4  C8  UNL     1      37.760  21.986  39.603  1.00  0.00     0.018 C 
HETATM    5  C9  UNL     1      39.118  22.519  39.348  1.00  0.00     0.084 C 
HETATM    6  C10 UNL     1      39.994  21.659  38.464  1.00  0.00     0.007 C 
HETATM    7  C11 UNL     1      41.001  20.874  39.304  1.00  0.00     0.007 C 
HETATM    8  C12 UNL     1      41.284  19.520  38.811  1.00  0.00     0.007 C 
HETATM    9  C13 UNL     1      41.307  19.315  37.355  1.00  0.00     0.012 C 
HETATM   10  C14 UNL     1      40.319  20.143  36.592  1.00  0.00     0.066 C 
HETATM   11  C15 UNL     1      41.411  21.011  36.142  1.00  0.00     0.140 C 
HETATM   12  O1  UNL     1      41.589  22.110  35.647  1.00  0.00    -0.297 OA
HETATM   13  C16 UNL     1      42.378  19.950  36.547  1.00  0.00     0.018 C 
HETATM   14  C17 UNL     1      43.604  20.408  37.248  1.00  0.00     0.023 C 
HETATM   15  C18 UNL     1      42.735  19.136  35.295  1.00  0.00     0.023 C 
HETATM   16  C19 UNL     1      39.314  20.732  37.562  1.00  0.00     0.005 C 
HETATM   17  C20 UNL     1      38.160  21.240  36.782  1.00  0.00     0.038 C 
HETATM   18  C21 UNL     1      38.038  22.729  36.686  1.00  0.00     0.123 C 
HETATM   19  S1  UNL     1      39.139  24.247  38.825  1.00  0.00     0.024 S 
HETATM   20  O3  UNL     1      39.558  25.196  39.905  1.00  0.00    -0.257 OA
ENDROOT
BRANCH   1  21
HETATM   21  C4  UNL     1      37.656  25.681  37.032  1.00  0.00     0.024 C 
BRANCH  21  22
HETATM   22  C3  UNL     1      38.505  26.863  37.331  1.00  0.00     0.065 C 
BRANCH  22  23
HETATM   23  C2  UNL     1      39.670  27.075  36.401  1.00  0.00     0.049 C 
HETATM   24  C1  UNL     1      40.042  26.072  35.649  1.00  0.00     0.046 C 
BRANCH  23  25
HETATM   25  O4  UNL     1      40.208  28.331  36.463  1.00  0.00    -0.267 OA
BRANCH  25  26
HETATM   26  C22 UNL     1      40.179  29.374  35.567  1.00  0.00     0.369 C 
HETATM   27  O5  UNL     1      40.981  30.306  35.810  1.00  0.00    -0.238 OA
HETATM   28  N1  UNL     1      39.298  29.366  34.464  1.00  0.00    -0.316 N 
ATOM     29  H1  UNL     1      38.714  28.535  34.380  1.00  0.00     0.170 HD
BRANCH  28  30
HETATM   30  C23 UNL     1      39.110  30.331  33.468  1.00  0.00     0.066 C 
BRANCH  30  31
HETATM   31  C24 UNL     1      40.058  30.482  32.353  1.00  0.00     0.040 C 
HETATM   32  C25 UNL     1      39.940  31.646  31.444  1.00  0.00     0.010 C 
ENDBRANCH  30  31
ENDBRANCH  28  30
ENDBRANCH  25  26
ENDBRANCH  23  25
ENDBRANCH  22  23
ENDBRANCH  21  22
ENDBRANCH   1  21
BRANCH  18  33
HETATM   33  O2  UNL     1      37.648  23.068  35.364  1.00  0.00    -0.395 OA
ATOM     34  H2  UNL     1      37.202  22.310  35.005  1.00  0.00     0.210 HD
ENDBRANCH  18  33
TORSDOF 8
ENDMDL
MODEL 5
REMARK VINA RESULT: -7.184340058      3.071      7.547
REMARK  8 active torsions:
REMARK  status: ('A' for Active; 'I' for Inactive)
REMARK    1  A    between atoms: C2_2  and  C3_3 
REMARK    2  A    between atoms: C2_2  and  O4_27 
REMARK    3  A    between atoms: C3_3  and  C4_4 
REMARK    4  A    between atoms: C4_4  and  C5_5 
REMARK    5  A    between atoms: C21_22  and  O2_23 
REMARK    6  A    between atoms: O4_27  and  C22_28 
REMARK       I    between atoms: C22_28  and  N1_30 
REMARK    7  A    between atoms: N1_30  and  C23_32 
REMARK    8  A    between atoms: C23_32  and  C24_33 
ROOT
HETATM    1  C5  UNL     1      39.901  21.086  36.180  1.00  0.00     0.086 C 
HETATM    2  C6  UNL     1      38.521  21.456  36.749  1.00  0.00     0.030 C 
HETATM    3  C7  UNL     1      37.720  21.937  35.589  1.00  0.00     0.009 C 
HETATM    4  C8  UNL     1      38.040  23.286  35.083  1.00  0.00     0.018 C 
HETATM    5  C9  UNL     1      39.305  23.905  35.540  1.00  0.00     0.084 C 
HETATM    6  C10 UNL     1      39.164  24.901  36.670  1.00  0.00     0.007 C 
HETATM    7  C11 UNL     1      39.238  26.333  36.139  1.00  0.00     0.007 C 
HETATM    8  C12 UNL     1      38.356  27.285  36.825  1.00  0.00     0.007 C 
HETATM    9  C13 UNL     1      38.152  27.107  38.270  1.00  0.00     0.012 C 
HETATM   10  C14 UNL     1      38.127  25.680  38.726  1.00  0.00     0.066 C 
HETATM   11  C15 UNL     1      39.473  25.847  39.284  1.00  0.00     0.140 C 
HETATM   12  O1  UNL     1      40.411  25.178  39.679  1.00  0.00    -0.297 OA
HETATM   13  C16 UNL     1      39.290  27.325  39.198  1.00  0.00     0.018 C 
HETATM   14  C17 UNL     1      40.453  28.106  38.707  1.00  0.00     0.023 C 
HETATM   15  C18 UNL     1      38.838  27.824  40.579  1.00  0.00     0.023 C 
HETATM   16  C19 UNL     1      37.981  24.777  37.518  1.00  0.00     0.005 C 
HETATM   17  C20 UNL     1      37.603  23.425  37.993  1.00  0.00     0.038 C 
HETATM   18  C21 UNL     1      38.666  22.375  37.897  1.00  0.00     0.123 C 
HETATM   19  S1  UNL     1      40.626  22.717  35.864  1.00  0.00     0.024 S 
HETATM   20  O3  UNL     1      41.668  22.672  34.789  1.00  0.00    -0.257 OA
ENDROOT
BRANCH   1  21
HETATM   21  C4  UNL     1      40.708  20.311  37.158  1.00  0.00     0.024 C 
BRANCH  21  22
HETATM   22  C3  UNL     1      41.948  19.686  36.627  1.00  0.00     0.065 C 
BRANCH  22  23
HETATM   23  C2  UNL     1      43.229  20.400  36.969  1.00  0.00     0.049 C 
HETATM   24  C1  UNL     1      43.677  20.298  38.194  1.00  0.00     0.046 C 
BRANCH  23  25
HETATM   25  O4  UNL     1      43.777  21.087  35.922  1.00  0.00    -0.267 OA
BRANCH  25  26
HETATM   26  C22 UNL     1      45.054  21.089  35.409  1.00  0.00     0.369 C 
HETATM   27  O5  UNL     1      45.297  20.174  34.588  1.00  0.00    -0.238 OA
HETATM   28  N1  UNL     1      45.998  22.062  35.799  1.00  0.00    -0.316 N 
ATOM     29  H1  UNL     1      45.657  22.757  36.463  1.00  0.00     0.170 HD
BRANCH  28  30
HETATM   30  C23 UNL     1      47.333  22.214  35.409  1.00  0.00     0.066 C 
BRANCH  30  31
HETATM   31  C24 UNL     1      47.941  23.544  35.248  1.00  0.00     0.040 C 
HETATM   32  C25 UNL     1      48.816  23.813  34.082  1.00  0.00     0.010 C 
ENDBRANCH  30  31
ENDBRANCH  28  30
ENDBRANCH  25  26
ENDBRANCH  23  25
ENDBRANCH  22  23
ENDBRANCH  21  22
ENDBRANCH   1  21
BRANCH  18  33
HETATM   33  O2  UNL     1      38.623  21.578  39.070  1.00  0.00    -0.395 OA
ATOM     34  H2  UNL     1      37.707  21.442  39.278  1.00  0.00     0.210 HD
ENDBRANCH  18  33
TORSDOF 8
ENDMDL
