MODEL 1
REMARK VINA RESULT: -8.152544163      0.000      0.000
REMARK  7 active torsions:
REMARK  status: ('A' for Active; 'I' for Inactive)
REMARK    1  A    between atoms: C3_3  and  C4_4 
REMARK    2  A    between atoms: C6_6  and  C7_7 
REMARK    3  A    between atoms: C8_8  and  C9_9 
REMARK    4  A    between atoms: N1_16  and  C15_17 
REMARK    5  A    between atoms: C15_17  and  C16_18 
REMARK    6  A    between atoms: C16_18  and  N2_19 
REMARK    7  A    between atoms: N2_19  and  C17_20 
REMARK       I    between atoms: N2_19  and  C18_22 
ROOT
HETATM    1  C9  UNL     1      48.767  34.482  29.923  1.00  0.00     0.153 C 
HETATM    2  C10 UNL     1      47.635  34.478  28.980  1.00  0.00     0.119 C 
HETATM    3  C11 UNL     1      46.645  33.389  29.127  1.00  0.00     0.159 C 
HETATM    4  O1  UNL     1      45.424  33.727  29.039  1.00  0.00    -0.293 OA
HETATM    5  C12 UNL     1      46.942  31.955  29.364  1.00  0.00     0.005 C 
HETATM    6  C13 UNL     1      48.132  31.432  29.517  1.00  0.00    -0.018 C 
HETATM    7  C14 UNL     1      48.401  30.011  29.739  1.00  0.00     0.166 C 
HETATM    8  N1  UNL     1      47.248  29.151  29.420  1.00  0.00    -0.358 N 
HETATM    9  C19 UNL     1      45.968  29.716  29.661  1.00  0.00     0.016 C 
HETATM   10  C20 UNL     1      45.010  28.928  30.095  1.00  0.00     0.003 C 
HETATM   11  C21 UNL     1      43.638  29.529  30.362  1.00  0.00     0.006 C 
HETATM   12  C22 UNL     1      42.817  28.590  31.192  1.00  0.00     0.014 C 
HETATM   13  C23 UNL     1      44.011  30.726  31.254  1.00  0.00     0.009 C 
HETATM   14  C24 UNL     1      44.746  31.763  30.413  1.00  0.00     0.016 C 
HETATM   15  C25 UNL     1      45.706  31.157  29.419  1.00  0.00     0.072 C 
HETATM   16  C26 UNL     1      49.421  32.237  29.513  1.00  0.00     0.080 C 
HETATM   17  C27 UNL     1      49.887  32.354  28.107  1.00  0.00     0.051 C 
HETATM   18  C28 UNL     1      50.450  31.351  30.230  1.00  0.00     0.051 C 
HETATM   19  O3  UNL     1      49.362  33.355  30.266  1.00  0.00    -0.367 OA
ENDROOT
BRANCH   8  20
HETATM   20  C15 UNL     1      47.393  27.845  28.913  1.00  0.00     0.084 C 
BRANCH  20  21
HETATM   21  C16 UNL     1      48.355  26.946  29.677  1.00  0.00     0.178 C 
BRANCH  21  22
HETATM   22  N2  UNL     1      48.558  25.662  29.110  1.00  0.00    -0.295 N 
HETATM   23  C18 UNL     1      48.928  25.528  27.749  1.00  0.00     0.190 C 
HETATM   24  N3  UNL     1      48.152  24.871  26.964  1.00  0.00    -0.373 N 
HETATM   25  N4  UNL     1      50.110  26.088  27.218  1.00  0.00    -0.063 NA
ATOM     26  H32 UNL     1      47.298  24.467  27.347  1.00  0.00     0.158 HD
ATOM     27  H31 UNL     1      48.419  24.775  25.985  1.00  0.00     0.158 HD
BRANCH  22  28
HETATM   28  C17 UNL     1      48.394  24.495  29.882  1.00  0.00     0.357 C 
HETATM   29  O2  UNL     1      47.355  23.805  29.736  1.00  0.00    -0.283 OA
ENDBRANCH  22  28
ENDBRANCH  21  22
ENDBRANCH  20  21
ENDBRANCH   8  20
BRANCH   1  30
HETATM   30  C8  UNL     1      49.748  35.496  29.419  1.00  0.00     0.005 C 
HETATM   31  C7  UNL     1      49.598  36.091  28.247  1.00  0.00    -0.001 C 
BRANCH  31  32
HETATM   32  C6  UNL     1      50.531  37.073  27.736  1.00  0.00     0.006 C 
HETATM   33  C4  UNL     1      50.267  38.012  26.867  1.00  0.00    -0.062 C 
HETATM   34  C5  UNL     1      48.940  38.223  26.255  1.00  0.00     0.048 C 
BRANCH  33  35
HETATM   35  C3  UNL     1      51.358  38.915  26.474  1.00  0.00     0.002 C 
HETATM   36  C2  UNL     1      52.463  38.964  27.157  1.00  0.00    -0.030 C 
HETATM   37  C1  UNL     1      53.575  39.887  26.753  1.00  0.00     0.036 C 
ENDBRANCH  33  35
ENDBRANCH  31  32
ENDBRANCH   1  30
TORSDOF 7
ENDMDL
MODEL 2
REMARK VINA RESULT: -8.063744670      0.983      1.234
REMARK  7 active torsions:
REMARK  status: ('A' for Active; 'I' for Inactive)
REMARK    1  A    between atoms: C3_3  and  C4_4 
REMARK    2  A    between atoms: C6_6  and  C7_7 
REMARK    3  A    between atoms: C8_8  and  C9_9 
REMARK    4  A    between atoms: N1_16  and  C15_17 
REMARK    5  A    between atoms: C15_17  and  C16_18 
REMARK    6  A    between atoms: C16_18  and  N2_19 
REMARK    7  A    between atoms: N2_19  and  C17_20 
REMARK       I    between atoms: N2_19  and  C18_22 
ROOT
HETATM    1  C9  UNL     1      48.808  34.423  29.945  1.00  0.00     0.153 C 
HETATM    2  C10 UNL     1      47.647  34.478  29.039  1.00  0.00     0.119 C 
HETATM    3  C11 UNL     1      46.628  33.416  29.191  1.00  0.00     0.159 C 
HETATM    4  O1  UNL     1      45.416  33.795  29.150  1.00  0.00    -0.293 OA
HETATM    5  C12 UNL     1      46.887  31.969  29.382  1.00  0.00     0.005 C 
HETATM    6  C13 UNL     1      48.064  31.405  29.484  1.00  0.00    -0.018 C 
HETATM    7  C14 UNL     1      48.295  29.971  29.662  1.00  0.00     0.166 C 
HETATM    8  N1  UNL     1      47.105  29.156  29.358  1.00  0.00    -0.358 N 
HETATM    9  C19 UNL     1      45.852  29.754  29.655  1.00  0.00     0.016 C 
HETATM   10  C20 UNL     1      44.883  28.985  30.100  1.00  0.00     0.003 C 
HETATM   11  C21 UNL     1      43.540  29.621  30.426  1.00  0.00     0.006 C 
HETATM   12  C22 UNL     1      42.717  28.687  31.258  1.00  0.00     0.014 C 
HETATM   13  C23 UNL     1      43.979  30.783  31.334  1.00  0.00     0.009 C 
HETATM   14  C24 UNL     1      44.720  31.817  30.496  1.00  0.00     0.016 C 
HETATM   15  C25 UNL     1      45.629  31.208  29.458  1.00  0.00     0.072 C 
HETATM   16  C26 UNL     1      49.377  32.169  29.458  1.00  0.00     0.080 C 
HETATM   17  C27 UNL     1      49.802  32.308  28.041  1.00  0.00     0.051 C 
HETATM   18  C28 UNL     1      50.399  31.234  30.119  1.00  0.00     0.051 C 
HETATM   19  O3  UNL     1      49.378  33.269  30.240  1.00  0.00    -0.367 OA
ENDROOT
BRANCH   8  20
HETATM   20  C15 UNL     1      47.193  27.860  28.815  1.00  0.00     0.084 C 
BRANCH  20  21
HETATM   21  C16 UNL     1      48.604  27.351  28.551  1.00  0.00     0.178 C 
BRANCH  21  22
HETATM   22  N2  UNL     1      49.037  26.308  29.408  1.00  0.00    -0.295 N 
HETATM   23  C18 UNL     1      48.354  25.066  29.430  1.00  0.00     0.190 C 
HETATM   24  N3  UNL     1      47.833  24.673  30.536  1.00  0.00    -0.373 N 
HETATM   25  N4  UNL     1      48.221  24.245  28.290  1.00  0.00    -0.063 NA
ATOM     26  H32 UNL     1      47.928  25.267  31.360  1.00  0.00     0.158 HD
ATOM     27  H31 UNL     1      47.342  23.780  30.552  1.00  0.00     0.158 HD
BRANCH  22  28
HETATM   28  C17 UNL     1      50.149  26.481  30.256  1.00  0.00     0.357 C 
HETATM   29  O2  UNL     1      49.965  26.861  31.438  1.00  0.00    -0.283 OA
ENDBRANCH  22  28
ENDBRANCH  21  22
ENDBRANCH  20  21
ENDBRANCH   8  20
BRANCH   1  30
HETATM   30  C8  UNL     1      49.804  35.419  29.434  1.00  0.00     0.005 C 
HETATM   31  C7  UNL     1      49.594  36.114  28.330  1.00  0.00    -0.001 C 
BRANCH  31  32
HETATM   32  C6  UNL     1      50.541  37.082  27.814  1.00  0.00     0.006 C 
HETATM   33  C4  UNL     1      50.295  38.004  26.923  1.00  0.00    -0.062 C 
HETATM   34  C5  UNL     1      48.980  38.208  26.284  1.00  0.00     0.048 C 
BRANCH  33  35
HETATM   35  C3  UNL     1      51.397  38.893  26.530  1.00  0.00     0.002 C 
HETATM   36  C2  UNL     1      52.384  39.133  27.341  1.00  0.00    -0.030 C 
HETATM   37  C1  UNL     1      53.507  40.041  26.936  1.00  0.00     0.036 C 
ENDBRANCH  33  35
ENDBRANCH  31  32
ENDBRANCH   1  30
TORSDOF 7
ENDMDL
MODEL 3
REMARK VINA RESULT: -8.037791955      1.105      1.339
REMARK  7 active torsions:
REMARK  status: ('A' for Active; 'I' for Inactive)
REMARK    1  A    between atoms: C3_3  and  C4_4 
REMARK    2  A    between atoms: C6_6  and  C7_7 
REMARK    3  A    between atoms: C8_8  and  C9_9 
REMARK    4  A    between atoms: N1_16  and  C15_17 
REMARK    5  A    between atoms: C15_17  and  C16_18 
REMARK    6  A    between atoms: C16_18  and  N2_19 
REMARK    7  A    between atoms: N2_19  and  C17_20 
REMARK       I    between atoms: N2_19  and  C18_22 
ROOT
HETATM    1  C9  UNL     1      48.667  34.447  29.902  1.00  0.00     0.153 C 
HETATM    2  C10 UNL     1      47.512  34.459  28.987  1.00  0.00     0.119 C 
HETATM    3  C11 UNL     1      46.503  33.393  29.169  1.00  0.00     0.159 C 
HETATM    4  O1  UNL     1      45.288  33.757  29.107  1.00  0.00    -0.293 OA
HETATM    5  C12 UNL     1      46.775  31.956  29.412  1.00  0.00     0.005 C 
HETATM    6  C13 UNL     1      47.957  31.408  29.541  1.00  0.00    -0.018 C 
HETATM    7  C14 UNL     1      48.202  29.983  29.770  1.00  0.00     0.166 C 
HETATM    8  N1  UNL     1      47.022  29.146  29.488  1.00  0.00    -0.358 N 
HETATM    9  C19 UNL     1      45.761  29.741  29.756  1.00  0.00     0.016 C 
HETATM   10  C20 UNL     1      44.797  28.978  30.221  1.00  0.00     0.003 C 
HETATM   11  C21 UNL     1      43.446  29.611  30.516  1.00  0.00     0.006 C 
HETATM   12  C22 UNL     1      42.626  28.698  31.375  1.00  0.00     0.014 C 
HETATM   13  C23 UNL     1      43.867  30.808  31.386  1.00  0.00     0.009 C 
HETATM   14  C24 UNL     1      44.602  31.820  30.517  1.00  0.00     0.016 C 
HETATM   15  C25 UNL     1      45.524  31.185  29.506  1.00  0.00     0.072 C 
HETATM   16  C26 UNL     1      49.263  32.185  29.497  1.00  0.00     0.080 C 
HETATM   17  C27 UNL     1      49.696  32.278  28.079  1.00  0.00     0.051 C 
HETATM   18  C28 UNL     1      50.290  31.284  30.197  1.00  0.00     0.051 C 
HETATM   19  O3  UNL     1      49.247  33.311  30.240  1.00  0.00    -0.367 OA
ENDROOT
BRANCH   8  20
HETATM   20  C15 UNL     1      47.127  27.833  28.990  1.00  0.00     0.084 C 
BRANCH  20  21
HETATM   21  C16 UNL     1      48.451  27.131  29.259  1.00  0.00     0.178 C 
BRANCH  21  22
HETATM   22  N2  UNL     1      49.244  26.883  28.110  1.00  0.00    -0.295 N 
HETATM   23  C18 UNL     1      50.273  27.784  27.739  1.00  0.00     0.190 C 
HETATM   24  N3  UNL     1      50.207  28.348  26.586  1.00  0.00    -0.373 N 
HETATM   25  N4  UNL     1      51.363  28.092  28.581  1.00  0.00    -0.063 NA
ATOM     26  H32 UNL     1      49.419  28.126  25.978  1.00  0.00     0.158 HD
ATOM     27  H31 UNL     1      50.947  28.996  26.319  1.00  0.00     0.158 HD
BRANCH  22  28
HETATM   28  C17 UNL     1      49.029  25.741  27.314  1.00  0.00     0.357 C 
HETATM   29  O2  UNL     1      48.626  25.884  26.133  1.00  0.00    -0.283 OA
ENDBRANCH  22  28
ENDBRANCH  21  22
ENDBRANCH  20  21
ENDBRANCH   8  20
BRANCH   1  30
HETATM   30  C8  UNL     1      49.657  35.435  29.363  1.00  0.00     0.005 C 
HETATM   31  C7  UNL     1      49.660  35.799  28.092  1.00  0.00    -0.001 C 
BRANCH  31  32
HETATM   32  C6  UNL     1      50.606  36.750  27.546  1.00  0.00     0.006 C 
HETATM   33  C4  UNL     1      50.315  37.815  26.846  1.00  0.00    -0.062 C 
HETATM   34  C5  UNL     1      48.941  38.222  26.493  1.00  0.00     0.048 C 
BRANCH  33  35
HETATM   35  C3  UNL     1      51.425  38.658  26.380  1.00  0.00     0.002 C 
HETATM   36  C2  UNL     1      52.297  39.137  27.217  1.00  0.00    -0.030 C 
HETATM   37  C1  UNL     1      53.428  39.997  26.738  1.00  0.00     0.036 C 
ENDBRANCH  33  35
ENDBRANCH  31  32
ENDBRANCH   1  30
TORSDOF 7
ENDMDL
MODEL 4
REMARK VINA RESULT: -8.024362172      0.893      1.255
REMARK  7 active torsions:
REMARK  status: ('A' for Active; 'I' for Inactive)
REMARK    1  A    between atoms: C3_3  and  C4_4 
REMARK    2  A    between atoms: C6_6  and  C7_7 
REMARK    3  A    between atoms: C8_8  and  C9_9 
REMARK    4  A    between atoms: N1_16  and  C15_17 
REMARK    5  A    between atoms: C15_17  and  C16_18 
REMARK    6  A    between atoms: C16_18  and  N2_19 
REMARK    7  A    between atoms: N2_19  and  C17_20 
REMARK       I    between atoms: N2_19  and  C18_22 
ROOT
HETATM    1  C9  UNL     1      48.788  34.580  29.887  1.00  0.00     0.153 C 
HETATM    2  C10 UNL     1      47.615  34.647  28.999  1.00  0.00     0.119 C 
HETATM    3  C11 UNL     1      46.582  33.602  29.174  1.00  0.00     0.159 C 
HETATM    4  O1  UNL     1      45.376  33.999  29.149  1.00  0.00    -0.293 OA
HETATM    5  C12 UNL     1      46.822  32.152  29.370  1.00  0.00     0.005 C 
HETATM    6  C13 UNL     1      47.991  31.571  29.458  1.00  0.00    -0.018 C 
HETATM    7  C14 UNL     1      48.203  30.135  29.642  1.00  0.00     0.166 C 
HETATM    8  N1  UNL     1      46.996  29.336  29.363  1.00  0.00    -0.358 N 
HETATM    9  C19 UNL     1      45.758  29.955  29.675  1.00  0.00     0.016 C 
HETATM   10  C20 UNL     1      44.784  29.204  30.140  1.00  0.00     0.003 C 
HETATM   11  C21 UNL     1      43.456  29.863  30.482  1.00  0.00     0.006 C 
HETATM   12  C22 UNL     1      42.632  28.947  31.333  1.00  0.00     0.014 C 
HETATM   13  C23 UNL     1      43.927  31.024  31.376  1.00  0.00     0.009 C 
HETATM   14  C24 UNL     1      44.670  32.041  30.519  1.00  0.00     0.016 C 
HETATM   15  C25 UNL     1      45.553  31.412  29.471  1.00  0.00     0.072 C 
HETATM   16  C26 UNL     1      49.315  32.315  29.407  1.00  0.00     0.080 C 
HETATM   17  C27 UNL     1      49.721  32.438  27.982  1.00  0.00     0.051 C 
HETATM   18  C28 UNL     1      50.333  31.369  30.058  1.00  0.00     0.051 C 
HETATM   19  O3  UNL     1      49.345  33.420  30.181  1.00  0.00    -0.367 OA
ENDROOT
BRANCH   8  20
HETATM   20  C15 UNL     1      47.056  28.035  28.827  1.00  0.00     0.084 C 
BRANCH  20  21
HETATM   21  C16 UNL     1      48.065  27.100  29.479  1.00  0.00     0.178 C 
BRANCH  21  22
HETATM   22  N2  UNL     1      48.542  26.055  28.648  1.00  0.00    -0.295 N 
HETATM   23  C18 UNL     1      48.656  24.734  29.148  1.00  0.00     0.190 C 
HETATM   24  N3  UNL     1      49.813  24.177  29.151  1.00  0.00    -0.373 N 
HETATM   25  N4  UNL     1      47.553  24.006  29.646  1.00  0.00    -0.063 NA
ATOM     26  H32 UNL     1      50.610  24.703  28.793  1.00  0.00     0.158 HD
ATOM     27  H31 UNL     1      49.894  23.227  29.511  1.00  0.00     0.158 HD
BRANCH  22  28
HETATM   28  C17 UNL     1      48.915  26.305  27.313  1.00  0.00     0.357 C 
HETATM   29  O2  UNL     1      48.584  25.486  26.421  1.00  0.00    -0.283 OA
ENDBRANCH  22  28
ENDBRANCH  21  22
ENDBRANCH  20  21
ENDBRANCH   8  20
BRANCH   1  30
HETATM   30  C8  UNL     1      49.792  35.557  29.354  1.00  0.00     0.005 C 
HETATM   31  C7  UNL     1      49.597  36.210  28.221  1.00  0.00    -0.001 C 
BRANCH  31  32
HETATM   32  C6  UNL     1      50.551  37.159  27.684  1.00  0.00     0.006 C 
HETATM   33  C4  UNL     1      50.302  38.091  26.803  1.00  0.00    -0.062 C 
HETATM   34  C5  UNL     1      48.974  38.327  26.202  1.00  0.00     0.048 C 
BRANCH  33  35
HETATM   35  C3  UNL     1      51.412  38.957  26.383  1.00  0.00     0.002 C 
HETATM   36  C2  UNL     1      52.527  38.987  27.053  1.00  0.00    -0.030 C 
HETATM   37  C1  UNL     1      53.658  39.872  26.621  1.00  0.00     0.036 C 
ENDBRANCH  33  35
ENDBRANCH  31  32
ENDBRANCH   1  30
TORSDOF 7
ENDMDL
MODEL 5
REMARK VINA RESULT: -7.799898828      3.771      8.709
REMARK  7 active torsions:
REMARK  status: ('A' for Active; 'I' for Inactive)
REMARK    1  A    between atoms: C3_3  and  C4_4 
REMARK    2  A    between atoms: C6_6  and  C7_7 
REMARK    3  A    between atoms: C8_8  and  C9_9 
REMARK    4  A    between atoms: N1_16  and  C15_17 
REMARK    5  A    between atoms: C15_17  and  C16_18 
REMARK    6  A    between atoms: C16_18  and  N2_19 
REMARK    7  A    between atoms: N2_19  and  C17_20 
REMARK       I    between atoms: N2_19  and  C18_22 
ROOT
HETATM    1  C9  UNL     1      47.362  31.891  28.480  1.00  0.00     0.153 C 
HETATM    2  C10 UNL     1      47.641  33.203  29.090  1.00  0.00     0.119 C 
HETATM    3  C11 UNL     1      48.914  33.858  28.714  1.00  0.00     0.159 C 
HETATM    4  O1  UNL     1      48.850  35.103  28.467  1.00  0.00    -0.293 OA
HETATM    5  C12 UNL     1      50.241  33.205  28.602  1.00  0.00     0.005 C 
HETATM    6  C13 UNL     1      50.489  31.933  28.782  1.00  0.00    -0.018 C 
HETATM    7  C14 UNL     1      51.810  31.313  28.676  1.00  0.00     0.166 C 
HETATM    8  N1  UNL     1      52.909  32.295  28.701  1.00  0.00    -0.358 N 
HETATM    9  C19 UNL     1      52.626  33.556  28.115  1.00  0.00     0.016 C 
HETATM   10  C20 UNL     1      53.588  34.171  27.463  1.00  0.00     0.003 C 
HETATM   11  C21 UNL     1      53.289  35.520  26.827  1.00  0.00     0.006 C 
HETATM   12  C22 UNL     1      54.355  35.869  25.834  1.00  0.00     0.014 C 
HETATM   13  C23 UNL     1      52.010  35.194  26.035  1.00  0.00     0.009 C 
HETATM   14  C24 UNL     1      50.868  34.951  27.014  1.00  0.00     0.016 C 
HETATM   15  C25 UNL     1      51.284  34.179  28.241  1.00  0.00     0.072 C 
HETATM   16  C26 UNL     1      49.425  30.897  29.107  1.00  0.00     0.080 C 
HETATM   17  C27 UNL     1      49.257  30.856  30.583  1.00  0.00     0.051 C 
HETATM   18  C28 UNL     1      50.043  29.549  28.712  1.00  0.00     0.051 C 
HETATM   19  O3  UNL     1      48.321  30.996  28.337  1.00  0.00    -0.367 OA
ENDROOT
BRANCH   8  20
HETATM   20  C15 UNL     1      54.168  32.008  29.262  1.00  0.00     0.084 C 
BRANCH  20  21
HETATM   21  C16 UNL     1      54.162  31.630  30.737  1.00  0.00     0.178 C 
BRANCH  21  22
HETATM   22  N2  UNL     1      53.909  32.700  31.632  1.00  0.00    -0.295 N 
HETATM   23  C18 UNL     1      52.578  33.074  31.946  1.00  0.00     0.190 C 
HETATM   24  N3  UNL     1      52.197  34.269  31.673  1.00  0.00    -0.373 N 
HETATM   25  N4  UNL     1      51.655  32.188  32.544  1.00  0.00    -0.063 NA
ATOM     26  H32 UNL     1      52.864  34.909  31.241  1.00  0.00     0.158 HD
ATOM     27  H31 UNL     1      51.240  34.538  31.900  1.00  0.00     0.158 HD
BRANCH  22  28
HETATM   28  C17 UNL     1      54.968  33.415  32.224  1.00  0.00     0.357 C 
HETATM   29  O2  UNL     1      54.721  34.206  33.168  1.00  0.00    -0.283 OA
ENDBRANCH  22  28
ENDBRANCH  21  22
ENDBRANCH  20  21
ENDBRANCH   8  20
BRANCH   1  30
HETATM   30  C8  UNL     1      46.177  31.322  29.201  1.00  0.00     0.005 C 
HETATM   31  C7  UNL     1      45.362  32.081  29.913  1.00  0.00    -0.001 C 
BRANCH  31  32
HETATM   32  C6  UNL     1      44.211  31.557  30.619  1.00  0.00     0.006 C 
HETATM   33  C4  UNL     1      43.608  32.113  31.635  1.00  0.00    -0.062 C 
HETATM   34  C5  UNL     1      44.018  33.397  32.239  1.00  0.00     0.048 C 
BRANCH  33  35
HETATM   35  C3  UNL     1      42.450  31.418  32.215  1.00  0.00     0.002 C 
HETATM   36  C2  UNL     1      41.751  31.963  33.166  1.00  0.00    -0.030 C 
HETATM   37  C1  UNL     1      40.570  31.250  33.755  1.00  0.00     0.036 C 
ENDBRANCH  33  35
ENDBRANCH  31  32
ENDBRANCH   1  30
TORSDOF 7
ENDMDL
