MODEL 1
REMARK VINA RESULT: -7.507905851      0.000      0.000
REMARK  7 active torsions:
REMARK  status: ('A' for Active; 'I' for Inactive)
REMARK    1  A    between atoms: N1_2  and  C2_5 
REMARK    2  A    between atoms: C2_5  and  C3_6 
REMARK    3  A    between atoms: C3_6  and  O1_7 
REMARK    4  A    between atoms: O1_7  and  C4_8 
REMARK    5  A    between atoms: C7_12  and  O3_13 
REMARK    6  A    between atoms: C10_19  and  O6_20 
REMARK    7  A    between atoms: O6_20  and  C11_21 
ROOT
HETATM    1  C4  UNL     1      -4.194   5.198  13.184  1.00  0.00     0.130 C 
HETATM    2  C5  UNL     1      -4.233   4.512  11.846  1.00  0.00     0.068 C 
HETATM    3  C6  UNL     1      -3.734   3.129  12.010  1.00  0.00     0.175 C 
HETATM    4  O2  UNL     1      -3.873   2.205  11.001  1.00  0.00    -0.321 OA
HETATM    5  C7  UNL     1      -4.480   1.400  12.009  1.00  0.00     0.320 A 
HETATM    6  O4  UNL     1      -5.814   1.673  12.038  1.00  0.00    -0.305 OA
HETATM    7  C8  UNL     1      -4.750   2.379  12.801  1.00  0.00     0.203 A 
HETATM    8  C9  UNL     1      -5.295   3.050  13.946  1.00  0.00     0.176 C 
HETATM    9  O5  UNL     1      -5.479   2.188  14.990  1.00  0.00    -0.352 OA
HETATM   10  C10 UNL     1      -4.681   2.316  16.081  1.00  0.00     0.270 C 
HETATM   11  C13 UNL     1      -3.264   2.569  15.622  1.00  0.00     0.062 C 
HETATM   12  C14 UNL     1      -3.255   3.982  15.076  1.00  0.00     0.014 C 
HETATM   13  C15 UNL     1      -4.535   4.309  14.357  1.00  0.00     0.047 C 
ENDROOT
BRANCH   1  14
HETATM   14  O1  UNL     1      -2.931   5.741  13.353  1.00  0.00    -0.384 OA
BRANCH  14  15
HETATM   15  C3  UNL     1      -2.456   6.527  12.354  1.00  0.00     0.195 C 
BRANCH  15  16
HETATM   16  C2  UNL     1      -0.995   6.320  12.147  1.00  0.00     0.258 C 
BRANCH  16  17
HETATM   17  N1  UNL     1      -0.511   5.015  12.546  1.00  0.00    -0.077 N 
HETATM   18  C1  UNL     1      -0.195   4.230  11.381  1.00  0.00     0.267 C 
ATOM     19  H12 UNL     1      -1.167   4.537  13.163  1.00  0.00     0.276 HD
ATOM     20  H11 UNL     1       0.278   5.081  13.189  1.00  0.00     0.276 HD
ENDBRANCH  16  17
ENDBRANCH  15  16
ENDBRANCH  14  15
ENDBRANCH   1  14
BRANCH   5  21
HETATM   21  O3  UNL     1      -3.989   0.117  12.078  1.00  0.00    -0.341 OA
ATOM     22  H3  UNL     1      -4.142  -0.314  12.912  1.00  0.00     0.215 HD
ENDBRANCH   5  21
BRANCH  10  23
HETATM   23  O6  UNL     1      -4.796   1.229  16.938  1.00  0.00    -0.290 OA
BRANCH  23  24
HETATM   24  C11 UNL     1      -5.973   0.557  17.231  1.00  0.00     0.257 C 
HETATM   25  C12 UNL     1      -7.258   1.307  17.395  1.00  0.00     0.126 C 
HETATM   26  O7  UNL     1      -5.887  -0.684  17.343  1.00  0.00    -0.266 OA
ENDBRANCH  23  24
ENDBRANCH  10  23
TORSDOF 7
ENDMDL
MODEL 2
REMARK VINA RESULT: -7.380825854      1.314      1.753
REMARK  7 active torsions:
REMARK  status: ('A' for Active; 'I' for Inactive)
REMARK    1  A    between atoms: N1_2  and  C2_5 
REMARK    2  A    between atoms: C2_5  and  C3_6 
REMARK    3  A    between atoms: C3_6  and  O1_7 
REMARK    4  A    between atoms: O1_7  and  C4_8 
REMARK    5  A    between atoms: C7_12  and  O3_13 
REMARK    6  A    between atoms: C10_19  and  O6_20 
REMARK    7  A    between atoms: O6_20  and  C11_21 
ROOT
HETATM    1  C4  UNL     1      -4.213   5.204  13.148  1.00  0.00     0.130 C 
HETATM    2  C5  UNL     1      -4.245   4.509  11.814  1.00  0.00     0.068 C 
HETATM    3  C6  UNL     1      -3.745   3.128  11.990  1.00  0.00     0.175 C 
HETATM    4  O2  UNL     1      -3.880   2.196  10.987  1.00  0.00    -0.321 OA
HETATM    5  C7  UNL     1      -4.490   1.398  11.998  1.00  0.00     0.320 A 
HETATM    6  O4  UNL     1      -5.825   1.670  12.020  1.00  0.00    -0.305 OA
HETATM    7  C8  UNL     1      -4.765   2.382  12.782  1.00  0.00     0.203 A 
HETATM    8  C9  UNL     1      -5.316   3.061  13.920  1.00  0.00     0.176 C 
HETATM    9  O5  UNL     1      -5.503   2.207  14.969  1.00  0.00    -0.352 OA
HETATM   10  C10 UNL     1      -4.710   2.343  16.063  1.00  0.00     0.270 C 
HETATM   11  C13 UNL     1      -3.291   2.594  15.609  1.00  0.00     0.062 C 
HETATM   12  C14 UNL     1      -3.281   4.003  15.052  1.00  0.00     0.014 C 
HETATM   13  C15 UNL     1      -4.558   4.324  14.325  1.00  0.00     0.047 C 
ENDROOT
BRANCH   1  14
HETATM   14  O1  UNL     1      -2.950   5.750  13.318  1.00  0.00    -0.384 OA
BRANCH  14  15
HETATM   15  C3  UNL     1      -2.751   7.008  12.851  1.00  0.00     0.195 C 
BRANCH  15  16
HETATM   16  C2  UNL     1      -2.828   8.013  13.947  1.00  0.00     0.258 C 
BRANCH  16  17
HETATM   17  N1  UNL     1      -1.776   7.908  14.935  1.00  0.00    -0.077 N 
HETATM   18  C1  UNL     1      -1.702   9.121  15.708  1.00  0.00     0.267 C 
ATOM     19  H12 UNL     1      -0.879   7.668  14.513  1.00  0.00     0.276 HD
ATOM     20  H11 UNL     1      -1.887   7.084  15.525  1.00  0.00     0.276 HD
ENDBRANCH  16  17
ENDBRANCH  15  16
ENDBRANCH  14  15
ENDBRANCH   1  14
BRANCH   5  21
HETATM   21  O3  UNL     1      -3.999   0.116  12.079  1.00  0.00    -0.341 OA
ATOM     22  H3  UNL     1      -4.664  -0.549  12.216  1.00  0.00     0.215 HD
ENDBRANCH   5  21
BRANCH  10  23
HETATM   23  O6  UNL     1      -4.827   1.261  16.927  1.00  0.00    -0.290 OA
BRANCH  23  24
HETATM   24  C11 UNL     1      -6.005   0.587  17.214  1.00  0.00     0.257 C 
HETATM   25  C12 UNL     1      -7.291   1.334  17.376  1.00  0.00     0.126 C 
HETATM   26  O7  UNL     1      -5.916  -0.654  17.325  1.00  0.00    -0.266 OA
ENDBRANCH  23  24
ENDBRANCH  10  23
TORSDOF 7
ENDMDL
MODEL 3
REMARK VINA RESULT: -7.174919511      1.333      1.787
REMARK  7 active torsions:
REMARK  status: ('A' for Active; 'I' for Inactive)
REMARK    1  A    between atoms: N1_2  and  C2_5 
REMARK    2  A    between atoms: C2_5  and  C3_6 
REMARK    3  A    between atoms: C3_6  and  O1_7 
REMARK    4  A    between atoms: O1_7  and  C4_8 
REMARK    5  A    between atoms: C7_12  and  O3_13 
REMARK    6  A    between atoms: C10_19  and  O6_20 
REMARK    7  A    between atoms: O6_20  and  C11_21 
ROOT
HETATM    1  C4  UNL     1      -4.265   5.188  13.160  1.00  0.00     0.130 C 
HETATM    2  C5  UNL     1      -4.282   4.492  11.826  1.00  0.00     0.068 C 
HETATM    3  C6  UNL     1      -3.762   3.118  12.004  1.00  0.00     0.175 C 
HETATM    4  O2  UNL     1      -3.878   2.185  11.001  1.00  0.00    -0.321 OA
HETATM    5  C7  UNL     1      -4.480   1.377  12.010  1.00  0.00     0.320 A 
HETATM    6  O4  UNL     1      -5.819   1.629  12.028  1.00  0.00    -0.305 OA
HETATM    7  C8  UNL     1      -4.772   2.358  12.793  1.00  0.00     0.203 A 
HETATM    8  C9  UNL     1      -5.337   3.028  13.929  1.00  0.00     0.176 C 
HETATM    9  O5  UNL     1      -5.514   2.171  14.978  1.00  0.00    -0.352 OA
HETATM   10  C10 UNL     1      -4.727   2.319  16.074  1.00  0.00     0.270 C 
HETATM   11  C13 UNL     1      -3.310   2.592  15.624  1.00  0.00     0.062 C 
HETATM   12  C14 UNL     1      -3.320   4.001  15.067  1.00  0.00     0.014 C 
HETATM   13  C15 UNL     1      -4.600   4.302  14.336  1.00  0.00     0.047 C 
ENDROOT
BRANCH   1  14
HETATM   14  O1  UNL     1      -3.011   5.753  13.334  1.00  0.00    -0.384 OA
BRANCH  14  15
HETATM   15  C3  UNL     1      -2.620   6.685  12.429  1.00  0.00     0.195 C 
BRANCH  15  16
HETATM   16  C2  UNL     1      -3.260   8.004  12.697  1.00  0.00     0.258 C 
BRANCH  16  17
HETATM   17  N1  UNL     1      -3.707   8.707  11.515  1.00  0.00    -0.077 N 
HETATM   18  C1  UNL     1      -5.047   8.301  11.178  1.00  0.00     0.267 C 
ATOM     19  H12 UNL     1      -3.063   8.587  10.733  1.00  0.00     0.276 HD
ATOM     20  H11 UNL     1      -3.628   9.718  11.619  1.00  0.00     0.276 HD
ENDBRANCH  16  17
ENDBRANCH  15  16
ENDBRANCH  14  15
ENDBRANCH   1  14
BRANCH   5  21
HETATM   21  O3  UNL     1      -3.969   0.103  12.093  1.00  0.00    -0.341 OA
ATOM     22  H3  UNL     1      -3.425  -0.050  12.857  1.00  0.00     0.215 HD
ENDBRANCH   5  21
BRANCH  10  23
HETATM   23  O6  UNL     1      -4.830   1.236  16.938  1.00  0.00    -0.290 OA
BRANCH  23  24
HETATM   24  C11 UNL     1      -5.999   0.548  17.227  1.00  0.00     0.257 C 
HETATM   25  C12 UNL     1      -7.293   1.282  17.396  1.00  0.00     0.126 C 
HETATM   26  O7  UNL     1      -5.897  -0.692  17.334  1.00  0.00    -0.266 OA
ENDBRANCH  23  24
ENDBRANCH  10  23
TORSDOF 7
ENDMDL
MODEL 4
REMARK VINA RESULT: -6.711798249      2.520      5.846
REMARK  7 active torsions:
REMARK  status: ('A' for Active; 'I' for Inactive)
REMARK    1  A    between atoms: N1_2  and  C2_5 
REMARK    2  A    between atoms: C2_5  and  C3_6 
REMARK    3  A    between atoms: C3_6  and  O1_7 
REMARK    4  A    between atoms: O1_7  and  C4_8 
REMARK    5  A    between atoms: C7_12  and  O3_13 
REMARK    6  A    between atoms: C10_19  and  O6_20 
REMARK    7  A    between atoms: O6_20  and  C11_21 
ROOT
HETATM    1  C4  UNL     1      -4.353   1.628  14.823  1.00  0.00     0.130 C 
HETATM    2  C5  UNL     1      -4.282   1.023  13.448  1.00  0.00     0.068 C 
HETATM    3  C6  UNL     1      -4.854   1.984  12.479  1.00  0.00     0.175 C 
HETATM    4  O2  UNL     1      -4.709   1.790  11.125  1.00  0.00    -0.321 OA
HETATM    5  C7  UNL     1      -4.191   3.118  11.130  1.00  0.00     0.320 A 
HETATM    6  O4  UNL     1      -2.848   3.061  11.352  1.00  0.00    -0.305 OA
HETATM    7  C8  UNL     1      -3.914   3.137  12.388  1.00  0.00     0.203 A 
HETATM    8  C9  UNL     1      -3.394   3.642  13.626  1.00  0.00     0.176 C 
HETATM    9  O5  UNL     1      -3.302   5.004  13.612  1.00  0.00    -0.352 OA
HETATM   10  C10 UNL     1      -4.146   5.717  14.402  1.00  0.00     0.270 C 
HETATM   11  C13 UNL     1      -5.526   5.106  14.319  1.00  0.00     0.062 C 
HETATM   12  C14 UNL     1      -5.440   3.795  15.074  1.00  0.00     0.014 C 
HETATM   13  C15 UNL     1      -4.112   3.119  14.868  1.00  0.00     0.047 C 
ENDROOT
BRANCH   1  14
HETATM   14  O1  UNL     1      -5.596   1.333  15.360  1.00  0.00    -0.384 OA
BRANCH  14  15
HETATM   15  C3  UNL     1      -5.622   0.555  16.471  1.00  0.00     0.195 C 
BRANCH  15  16
HETATM   16  C2  UNL     1      -6.898   0.725  17.223  1.00  0.00     0.258 C 
BRANCH  16  17
HETATM   17  N1  UNL     1      -7.125   2.062  17.727  1.00  0.00    -0.077 N 
HETATM   18  C1  UNL     1      -6.402   2.255  18.957  1.00  0.00     0.267 C 
ATOM     19  H12 UNL     1      -8.119   2.266  17.832  1.00  0.00     0.276 HD
ATOM     20  H11 UNL     1      -6.899   2.775  17.034  1.00  0.00     0.276 HD
ENDBRANCH  16  17
ENDBRANCH  15  16
ENDBRANCH  14  15
ENDBRANCH   1  14
BRANCH   5  21
HETATM   21  O3  UNL     1      -4.745   3.944  10.179  1.00  0.00    -0.341 OA
ATOM     22  H3  UNL     1      -5.215   3.486   9.491  1.00  0.00     0.215 HD
ENDBRANCH   5  21
BRANCH  10  23
HETATM   23  O6  UNL     1      -4.125   7.072  14.095  1.00  0.00    -0.290 OA
BRANCH  23  24
HETATM   24  C11 UNL     1      -3.008   7.892  14.154  1.00  0.00     0.257 C 
HETATM   25  C12 UNL     1      -2.537   8.444  15.464  1.00  0.00     0.126 C 
HETATM   26  O7  UNL     1      -2.440   8.129  13.068  1.00  0.00    -0.266 OA
ENDBRANCH  23  24
ENDBRANCH  10  23
TORSDOF 7
ENDMDL
MODEL 5
REMARK VINA RESULT: -6.650169815      2.357      3.113
REMARK  7 active torsions:
REMARK  status: ('A' for Active; 'I' for Inactive)
REMARK    1  A    between atoms: N1_2  and  C2_5 
REMARK    2  A    between atoms: C2_5  and  C3_6 
REMARK    3  A    between atoms: C3_6  and  O1_7 
REMARK    4  A    between atoms: O1_7  and  C4_8 
REMARK    5  A    between atoms: C7_12  and  O3_13 
REMARK    6  A    between atoms: C10_19  and  O6_20 
REMARK    7  A    between atoms: O6_20  and  C11_21 
ROOT
HETATM    1  C4  UNL     1      -3.841   7.227  13.571  1.00  0.00     0.130 C 
HETATM    2  C5  UNL     1      -3.661   7.221  12.078  1.00  0.00     0.068 C 
HETATM    3  C6  UNL     1      -3.159   5.891  11.669  1.00  0.00     0.175 C 
HETATM    4  O2  UNL     1      -3.122   5.528  10.343  1.00  0.00    -0.321 OA
HETATM    5  C7  UNL     1      -3.854   4.384  10.778  1.00  0.00     0.320 A 
HETATM    6  O4  UNL     1      -5.184   4.676  10.734  1.00  0.00    -0.305 OA
HETATM    7  C8  UNL     1      -4.264   4.912  11.879  1.00  0.00     0.203 A 
HETATM    8  C9  UNL     1      -4.991   5.020  13.111  1.00  0.00     0.176 C 
HETATM    9  O5  UNL     1      -5.308   3.790  13.613  1.00  0.00    -0.352 OA
HETATM   10  C10 UNL     1      -4.686   3.375  14.747  1.00  0.00     0.270 C 
HETATM   11  C13 UNL     1      -3.222   3.742  14.663  1.00  0.00     0.062 C 
HETATM   12  C14 UNL     1      -3.167   5.248  14.822  1.00  0.00     0.014 C 
HETATM   13  C15 UNL     1      -4.332   5.922  14.152  1.00  0.00     0.047 C 
ENDROOT
BRANCH   1  14
HETATM   14  O1  UNL     1      -2.631   7.577  14.149  1.00  0.00    -0.384 OA
BRANCH  14  15
HETATM   15  C3  UNL     1      -2.493   8.860  14.569  1.00  0.00     0.195 C 
BRANCH  15  16
HETATM   16  C2  UNL     1      -1.551   8.956  15.719  1.00  0.00     0.258 C 
BRANCH  16  17
HETATM   17  N1  UNL     1      -0.584  10.028  15.616  1.00  0.00    -0.077 N 
HETATM   18  C1  UNL     1       0.108   9.950  14.356  1.00  0.00     0.267 C 
ATOM     19  H12 UNL     1       0.060  10.039  16.407  1.00  0.00     0.276 HD
ATOM     20  H11 UNL     1      -1.012  10.943  15.761  1.00  0.00     0.276 HD
ENDBRANCH  16  17
ENDBRANCH  15  16
ENDBRANCH  14  15
ENDBRANCH   1  14
BRANCH   5  21
HETATM   21  O3  UNL     1      -3.347   3.186  10.330  1.00  0.00    -0.341 OA
ATOM     22  H3  UNL     1      -3.351   3.091   9.384  1.00  0.00     0.215 HD
ENDBRANCH   5  21
BRANCH  10  23
HETATM   23  O6  UNL     1      -4.901   2.025  14.993  1.00  0.00    -0.290 OA
BRANCH  23  24
HETATM   24  C11 UNL     1      -4.662   1.380  16.197  1.00  0.00     0.257 C 
HETATM   25  C12 UNL     1      -5.632   1.499  17.331  1.00  0.00     0.126 C 
HETATM   26  O7  UNL     1      -3.609   0.711  16.265  1.00  0.00    -0.266 OA
ENDBRANCH  23  24
ENDBRANCH  10  23
TORSDOF 7
ENDMDL
