MODEL 1
REMARK VINA RESULT: -7.902454540      0.000      0.000
REMARK  8 active torsions:
REMARK  status: ('A' for Active; 'I' for Inactive)
REMARK    1  A    between atoms: C2_2  and  O1_4 
REMARK    2  A    between atoms: C2_2  and  C4_6 
REMARK    3  A    between atoms: C4_6  and  C5_7 
REMARK    4  A    between atoms: C5_7  and  C6_8 
REMARK    5  A    between atoms: C6_8  and  O3_10 
REMARK    6  A    between atoms: O3_10  and  C7_11 
REMARK    7  A    between atoms: C7_11  and  C8_12 
REMARK    8  A    between atoms: C8_12  and  O4_13 
ROOT
HETATM    1  C8  UNL     1      -3.817   2.709  12.068  1.00  0.00     0.205 C 
HETATM    2  O5  UNL     1      -2.461   2.688  12.212  1.00  0.00    -0.319 OA
HETATM    3  C9  UNL     1      -2.006   3.775  11.497  1.00  0.00     0.297 C 
HETATM    4  O6  UNL     1      -2.352   3.804  10.167  1.00  0.00    -0.323 OA
HETATM    5  C10 UNL     1      -2.541   5.142   9.862  1.00  0.00     0.160 C 
HETATM    6  C11 UNL     1      -1.284   5.664   9.166  1.00  0.00     0.078 C 
HETATM    7  C12 UNL     1      -3.678   5.379   8.886  1.00  0.00     0.078 C 
HETATM    8  O7  UNL     1      -2.829   5.806  11.027  1.00  0.00    -0.344 OA
HETATM    9  C13 UNL     1      -2.917   4.880  12.057  1.00  0.00     0.203 C 
HETATM   10  C14 UNL     1      -4.234   4.147  12.095  1.00  0.00     0.191 C 
HETATM   11  C15 UNL     1      -5.030   4.504  13.241  1.00  0.00     0.072 C 
HETATM   12  N1  UNL     1      -5.674   4.803  14.149  1.00  0.00    -0.197 NA
ENDROOT
BRANCH   1  13
HETATM   13  C7  UNL     1      -4.632   1.802  12.894  1.00  0.00     0.248 C 
BRANCH  13  14
HETATM   14  O3  UNL     1      -4.071   0.839  13.672  1.00  0.00    -0.316 OA
BRANCH  14  15
HETATM   15  C6  UNL     1      -4.376   0.566  14.979  1.00  0.00     0.259 C 
HETATM   16  O2  UNL     1      -4.828  -0.580  15.234  1.00  0.00    -0.265 OA
BRANCH  15  17
HETATM   17  C5  UNL     1      -4.187   1.572  16.068  1.00  0.00     0.114 C 
BRANCH  17  18
HETATM   18  C4  UNL     1      -5.449   2.142  16.564  1.00  0.00     0.046 C 
BRANCH  18  19
HETATM   19  C2  UNL     1      -6.155   1.442  17.666  1.00  0.00     0.051 C 
HETATM   20  C1  UNL     1      -6.391   2.198  18.932  1.00  0.00     0.045 C 
HETATM   21  C3  UNL     1      -7.542   0.982  17.178  1.00  0.00     0.045 C 
BRANCH  19  22
HETATM   22  O1  UNL     1      -5.475   0.251  18.033  1.00  0.00    -0.391 OA
ATOM     23  H1  UNL     1      -5.553  -0.341  17.293  1.00  0.00     0.210 HD
ENDBRANCH  19  22
ENDBRANCH  18  19
ENDBRANCH  17  18
ENDBRANCH  15  17
ENDBRANCH  14  15
ENDBRANCH  13  14
ENDBRANCH   1  13
BRANCH   1  24
HETATM   24  O4  UNL     1      -4.037   2.242  10.730  1.00  0.00    -0.362 OA
ATOM     25  H4  UNL     1      -4.799   1.681  10.808  1.00  0.00     0.213 HD
ENDBRANCH   1  24
TORSDOF 8
ENDMDL
MODEL 2
REMARK VINA RESULT: -7.653512476      1.481      1.811
REMARK  8 active torsions:
REMARK  status: ('A' for Active; 'I' for Inactive)
REMARK    1  A    between atoms: C2_2  and  O1_4 
REMARK    2  A    between atoms: C2_2  and  C4_6 
REMARK    3  A    between atoms: C4_6  and  C5_7 
REMARK    4  A    between atoms: C5_7  and  C6_8 
REMARK    5  A    between atoms: C6_8  and  O3_10 
REMARK    6  A    between atoms: O3_10  and  C7_11 
REMARK    7  A    between atoms: C7_11  and  C8_12 
REMARK    8  A    between atoms: C8_12  and  O4_13 
ROOT
HETATM    1  C8  UNL     1      -3.832   3.001  11.974  1.00  0.00     0.205 C 
HETATM    2  O5  UNL     1      -3.307   3.020  10.716  1.00  0.00    -0.319 OA
HETATM    3  C9  UNL     1      -3.493   4.309  10.266  1.00  0.00     0.297 C 
HETATM    4  O6  UNL     1      -4.794   4.757  10.255  1.00  0.00    -0.323 OA
HETATM    5  C10 UNL     1      -4.724   6.106  10.565  1.00  0.00     0.160 C 
HETATM    6  C11 UNL     1      -4.826   6.908   9.268  1.00  0.00     0.078 C 
HETATM    7  C12 UNL     1      -5.874   6.581  11.433  1.00  0.00     0.078 C 
HETATM    8  O7  UNL     1      -3.554   6.325  11.246  1.00  0.00    -0.344 OA
HETATM    9  C13 UNL     1      -2.924   5.105  11.453  1.00  0.00     0.203 C 
HETATM   10  C14 UNL     1      -3.499   4.319  12.603  1.00  0.00     0.191 C 
HETATM   11  C15 UNL     1      -2.589   4.224  13.715  1.00  0.00     0.072 C 
HETATM   12  N1  UNL     1      -1.866   4.162  14.610  1.00  0.00    -0.197 NA
ENDROOT
BRANCH   1  13
HETATM   13  C7  UNL     1      -3.597   1.821  12.824  1.00  0.00     0.248 C 
BRANCH  13  14
HETATM   14  O3  UNL     1      -4.606   1.207  13.495  1.00  0.00    -0.316 OA
BRANCH  14  15
HETATM   15  C6  UNL     1      -4.558   0.725  14.777  1.00  0.00     0.259 C 
HETATM   16  O2  UNL     1      -4.814  -0.496  14.939  1.00  0.00    -0.265 OA
BRANCH  15  17
HETATM   17  C5  UNL     1      -4.221   1.596  15.943  1.00  0.00     0.114 C 
BRANCH  17  18
HETATM   18  C4  UNL     1      -5.397   2.209  16.578  1.00  0.00     0.046 C 
BRANCH  18  19
HETATM   19  C2  UNL     1      -6.102   1.449  17.642  1.00  0.00     0.051 C 
HETATM   20  C1  UNL     1      -6.322   2.128  18.953  1.00  0.00     0.045 C 
HETATM   21  C3  UNL     1      -7.496   1.030  17.137  1.00  0.00     0.045 C 
BRANCH  19  22
HETATM   22  O1  UNL     1      -5.429   0.232  17.930  1.00  0.00    -0.391 OA
ATOM     23  H1  UNL     1      -4.965  -0.012  17.138  1.00  0.00     0.210 HD
ENDBRANCH  19  22
ENDBRANCH  18  19
ENDBRANCH  17  18
ENDBRANCH  15  17
ENDBRANCH  14  15
ENDBRANCH  13  14
ENDBRANCH   1  13
BRANCH   1  24
HETATM   24  O4  UNL     1      -5.251   2.993  11.764  1.00  0.00    -0.362 OA
ATOM     25  H4  UNL     1      -5.540   3.815  12.142  1.00  0.00     0.213 HD
ENDBRANCH   1  24
TORSDOF 8
ENDMDL
MODEL 3
REMARK VINA RESULT: -7.583341684      2.235      3.111
REMARK  8 active torsions:
REMARK  status: ('A' for Active; 'I' for Inactive)
REMARK    1  A    between atoms: C2_2  and  O1_4 
REMARK    2  A    between atoms: C2_2  and  C4_6 
REMARK    3  A    between atoms: C4_6  and  C5_7 
REMARK    4  A    between atoms: C5_7  and  C6_8 
REMARK    5  A    between atoms: C6_8  and  O3_10 
REMARK    6  A    between atoms: O3_10  and  C7_11 
REMARK    7  A    between atoms: C7_11  and  C8_12 
REMARK    8  A    between atoms: C8_12  and  O4_13 
ROOT
HETATM    1  C8  UNL     1      -3.968   3.915  13.556  1.00  0.00     0.205 C 
HETATM    2  O5  UNL     1      -4.822   4.429  14.488  1.00  0.00    -0.319 OA
HETATM    3  C9  UNL     1      -4.478   5.759  14.598  1.00  0.00     0.297 C 
HETATM    4  O6  UNL     1      -3.172   6.012  14.947  1.00  0.00    -0.323 OA
HETATM    5  C10 UNL     1      -2.826   7.172  14.272  1.00  0.00     0.160 C 
HETATM    6  C11 UNL     1      -2.926   8.347  15.243  1.00  0.00     0.078 C 
HETATM    7  C12 UNL     1      -1.393   7.171  13.774  1.00  0.00     0.078 C 
HETATM    8  O7  UNL     1      -3.657   7.295  13.187  1.00  0.00    -0.344 OA
HETATM    9  C13 UNL     1      -4.467   6.170  13.116  1.00  0.00     0.203 C 
HETATM   10  C14 UNL     1      -3.780   4.972  12.511  1.00  0.00     0.191 C 
HETATM   11  C15 UNL     1      -4.316   4.622  11.222  1.00  0.00     0.072 C 
HETATM   12  N1  UNL     1      -4.735   4.353  10.182  1.00  0.00    -0.197 NA
ENDROOT
BRANCH   1  13
HETATM   13  C7  UNL     1      -4.213   2.557  13.040  1.00  0.00     0.248 C 
BRANCH  13  14
HETATM   14  O3  UNL     1      -3.704   1.455  13.650  1.00  0.00    -0.316 OA
BRANCH  14  15
HETATM   15  C6  UNL     1      -4.265   0.769  14.695  1.00  0.00     0.259 C 
HETATM   16  O2  UNL     1      -4.881  -0.292  14.418  1.00  0.00    -0.265 OA
BRANCH  15  17
HETATM   17  C5  UNL     1      -4.162   1.245  16.108  1.00  0.00     0.114 C 
BRANCH  17  18
HETATM   18  C4  UNL     1      -5.371   1.934  16.584  1.00  0.00     0.046 C 
BRANCH  18  19
HETATM   19  C2  UNL     1      -6.173   1.291  17.656  1.00  0.00     0.051 C 
HETATM   20  C1  UNL     1      -6.319   2.022  18.949  1.00  0.00     0.045 C 
HETATM   21  C3  UNL     1      -7.604   1.037  17.144  1.00  0.00     0.045 C 
BRANCH  19  22
HETATM   22  O1  UNL     1      -5.659   0.007  17.979  1.00  0.00    -0.391 OA
ATOM     23  H1  UNL     1      -4.713   0.083  17.951  1.00  0.00     0.210 HD
ENDBRANCH  19  22
ENDBRANCH  18  19
ENDBRANCH  17  18
ENDBRANCH  15  17
ENDBRANCH  14  15
ENDBRANCH  13  14
ENDBRANCH   1  13
BRANCH   1  24
HETATM   24  O4  UNL     1      -2.718   3.797  14.251  1.00  0.00    -0.362 OA
ATOM     25  H4  UNL     1      -2.069   3.851  13.559  1.00  0.00     0.213 HD
ENDBRANCH   1  24
TORSDOF 8
ENDMDL
MODEL 4
REMARK VINA RESULT: -7.543483497      1.746      2.225
REMARK  8 active torsions:
REMARK  status: ('A' for Active; 'I' for Inactive)
REMARK    1  A    between atoms: C2_2  and  O1_4 
REMARK    2  A    between atoms: C2_2  and  C4_6 
REMARK    3  A    between atoms: C4_6  and  C5_7 
REMARK    4  A    between atoms: C5_7  and  C6_8 
REMARK    5  A    between atoms: C6_8  and  O3_10 
REMARK    6  A    between atoms: O3_10  and  C7_11 
REMARK    7  A    between atoms: C7_11  and  C8_12 
REMARK    8  A    between atoms: C8_12  and  O4_13 
ROOT
HETATM    1  C8  UNL     1      -3.458   3.732  13.267  1.00  0.00     0.205 C 
HETATM    2  O5  UNL     1      -2.420   3.749  14.151  1.00  0.00    -0.319 OA
HETATM    3  C9  UNL     1      -2.056   5.074  14.255  1.00  0.00     0.297 C 
HETATM    4  O6  UNL     1      -1.702   5.691  13.079  1.00  0.00    -0.323 OA
HETATM    5  C10 UNL     1      -2.142   7.000  13.200  1.00  0.00     0.160 C 
HETATM    6  C11 UNL     1      -0.953   7.877  13.589  1.00  0.00     0.078 C 
HETATM    7  C12 UNL     1      -2.670   7.577  11.900  1.00  0.00     0.078 C 
HETATM    8  O7  UNL     1      -3.156   7.023  14.123  1.00  0.00    -0.344 OA
HETATM    9  C13 UNL     1      -3.426   5.720  14.519  1.00  0.00     0.203 C 
HETATM   10  C14 UNL     1      -4.277   4.957  13.537  1.00  0.00     0.191 C 
HETATM   11  C15 UNL     1      -5.595   4.680  14.047  1.00  0.00     0.072 C 
HETATM   12  N1  UNL     1      -6.655   4.473  14.450  1.00  0.00    -0.197 NA
ENDROOT
BRANCH   1  13
HETATM   13  C7  UNL     1      -4.227   2.486  13.099  1.00  0.00     0.248 C 
BRANCH  13  14
HETATM   14  O3  UNL     1      -3.845   1.321  13.685  1.00  0.00    -0.316 OA
BRANCH  14  15
HETATM   15  C6  UNL     1      -4.312   0.812  14.868  1.00  0.00     0.259 C 
HETATM   16  O2  UNL     1      -4.912  -0.292  14.818  1.00  0.00    -0.265 OA
BRANCH  15  17
HETATM   17  C5  UNL     1      -4.129   1.523  16.170  1.00  0.00     0.114 C 
BRANCH  17  18
HETATM   18  C4  UNL     1      -5.367   2.124  16.688  1.00  0.00     0.046 C 
BRANCH  18  19
HETATM   19  C2  UNL     1      -6.148   1.370  17.702  1.00  0.00     0.051 C 
HETATM   20  C1  UNL     1      -6.352   2.006  19.037  1.00  0.00     0.045 C 
HETATM   21  C3  UNL     1      -7.555   1.073  17.150  1.00  0.00     0.045 C 
BRANCH  19  22
HETATM   22  O1  UNL     1      -5.568   0.098  17.949  1.00  0.00    -0.391 OA
ATOM     23  H1  UNL     1      -5.018  -0.097  17.199  1.00  0.00     0.210 HD
ENDBRANCH  19  22
ENDBRANCH  18  19
ENDBRANCH  17  18
ENDBRANCH  15  17
ENDBRANCH  14  15
ENDBRANCH  13  14
ENDBRANCH   1  13
BRANCH   1  24
HETATM   24  O4  UNL     1      -2.837   3.926  11.989  1.00  0.00    -0.362 OA
ATOM     25  H4  UNL     1      -3.571   4.013  11.392  1.00  0.00     0.213 HD
ENDBRANCH   1  24
TORSDOF 8
ENDMDL
MODEL 5
REMARK VINA RESULT: -7.478559195      1.906      2.486
REMARK  8 active torsions:
REMARK  status: ('A' for Active; 'I' for Inactive)
REMARK    1  A    between atoms: C2_2  and  O1_4 
REMARK    2  A    between atoms: C2_2  and  C4_6 
REMARK    3  A    between atoms: C4_6  and  C5_7 
REMARK    4  A    between atoms: C5_7  and  C6_8 
REMARK    5  A    between atoms: C6_8  and  O3_10 
REMARK    6  A    between atoms: O3_10  and  C7_11 
REMARK    7  A    between atoms: C7_11  and  C8_12 
REMARK    8  A    between atoms: C8_12  and  O4_13 
ROOT
HETATM    1  C8  UNL     1      -4.209   3.283  12.054  1.00  0.00     0.205 C 
HETATM    2  O5  UNL     1      -4.777   3.527  10.839  1.00  0.00    -0.319 OA
HETATM    3  C9  UNL     1      -4.617   4.879  10.631  1.00  0.00     0.297 C 
HETATM    4  O6  UNL     1      -5.159   5.700  11.592  1.00  0.00    -0.323 OA
HETATM    5  C10 UNL     1      -4.301   6.786  11.679  1.00  0.00     0.160 C 
HETATM    6  C11 UNL     1      -4.900   7.942  10.880  1.00  0.00     0.078 C 
HETATM    7  C12 UNL     1      -4.136   7.306  13.094  1.00  0.00     0.078 C 
HETATM    8  O7  UNL     1      -3.070   6.391  11.221  1.00  0.00    -0.344 OA
HETATM    9  C13 UNL     1      -3.117   5.034  10.931  1.00  0.00     0.203 C 
HETATM   10  C14 UNL     1      -2.995   4.155  12.149  1.00  0.00     0.191 C 
HETATM   11  C15 UNL     1      -1.753   3.428  12.182  1.00  0.00     0.072 C 
HETATM   12  N1  UNL     1      -0.751   2.859  12.215  1.00  0.00    -0.197 NA
ENDROOT
BRANCH   1  13
HETATM   13  C7  UNL     1      -4.014   1.886  12.480  1.00  0.00     0.248 C 
BRANCH  13  14
HETATM   14  O3  UNL     1      -4.902   1.251  13.289  1.00  0.00    -0.316 OA
BRANCH  14  15
HETATM   15  C6  UNL     1      -4.665   0.790  14.557  1.00  0.00     0.259 C 
HETATM   16  O2  UNL     1      -4.764  -0.450  14.743  1.00  0.00    -0.265 OA
BRANCH  15  17
HETATM   17  C5  UNL     1      -4.304   1.704  15.683  1.00  0.00     0.114 C 
BRANCH  17  18
HETATM   18  C4  UNL     1      -5.471   2.247  16.394  1.00  0.00     0.046 C 
BRANCH  18  19
HETATM   19  C2  UNL     1      -6.076   1.436  17.481  1.00  0.00     0.051 C 
HETATM   20  C1  UNL     1      -6.239   2.077  18.819  1.00  0.00     0.045 C 
HETATM   21  C3  UNL     1      -7.482   0.972  17.054  1.00  0.00     0.045 C 
BRANCH  19  22
HETATM   22  O1  UNL     1      -5.339   0.241  17.697  1.00  0.00    -0.391 OA
ATOM     23  H1  UNL     1      -5.919  -0.351  18.161  1.00  0.00     0.210 HD
ENDBRANCH  19  22
ENDBRANCH  18  19
ENDBRANCH  17  18
ENDBRANCH  15  17
ENDBRANCH  14  15
ENDBRANCH  13  14
ENDBRANCH   1  13
BRANCH   1  24
HETATM   24  O4  UNL     1      -5.159   3.798  12.997  1.00  0.00    -0.362 OA
ATOM     25  H4  UNL     1      -5.992   3.716  12.547  1.00  0.00     0.213 HD
ENDBRANCH   1  24
TORSDOF 8
ENDMDL
