MODEL 1
REMARK VINA RESULT: -6.943044029      0.000      0.000
REMARK  5 active torsions:
REMARK  status: ('A' for Active; 'I' for Inactive)
REMARK    1  A    between atoms: C3_3  and  C4_4 
REMARK    2  A    between atoms: C4_4  and  O1_5 
REMARK    3  A    between atoms: C4_4  and  C5_7 
REMARK    4  A    between atoms: C5_7  and  C6_8 
REMARK    5  A    between atoms: C6_8  and  N1_9 
ROOT
HETATM    1  N1  UNL     1      -3.971   4.199  13.369  1.00  0.00     0.092 N 
HETATM    2  C7  UNL     1      -3.998   5.642  13.644  1.00  0.00     0.298 C 
HETATM    3  C8  UNL     1      -5.383   6.129  13.954  1.00  0.00     0.198 C 
HETATM    4  O2  UNL     1      -6.285   5.980  12.936  1.00  0.00    -0.387 OA
HETATM    5  C9  UNL     1      -6.551   7.195  12.259  1.00  0.00     0.193 C 
HETATM    6  C10 UNL     1      -6.026   7.031  10.876  1.00  0.00     0.193 C 
HETATM    7  O3  UNL     1      -6.535   7.873   9.933  1.00  0.00    -0.387 OA
HETATM    8  C11 UNL     1      -6.252   7.302   8.670  1.00  0.00     0.193 C 
HETATM    9  C12 UNL     1      -4.797   6.929   8.539  1.00  0.00     0.193 C 
HETATM   10  O4  UNL     1      -4.519   5.632   8.878  1.00  0.00    -0.387 OA
HETATM   11  C13 UNL     1      -3.455   5.057   8.252  1.00  0.00     0.193 C 
HETATM   12  C14 UNL     1      -2.263   4.790   9.103  1.00  0.00     0.193 C 
HETATM   13  O5  UNL     1      -2.472   3.822  10.084  1.00  0.00    -0.387 OA
HETATM   14  C15 UNL     1      -3.305   4.251  11.074  1.00  0.00     0.198 C 
HETATM   15  C16 UNL     1      -2.871   3.912  12.470  1.00  0.00     0.298 C 
ENDROOT
BRANCH   1  16
HETATM   16  C6  UNL     1      -3.888   3.549  14.635  1.00  0.00     0.275 C 
BRANCH  16  17
HETATM   17  C5  UNL     1      -4.851   2.419  14.836  1.00  0.00     0.066 C 
BRANCH  17  18
HETATM   18  C4  UNL     1      -4.560   1.780  16.201  1.00  0.00     0.142 C 
BRANCH  18  19
HETATM   19  C3  UNL     1      -5.442   0.629  16.452  1.00  0.00     0.000 C 
HETATM   20  C2  UNL     1      -6.384   0.707  17.387  1.00  0.00    -0.033 C 
HETATM   21  C1  UNL     1      -6.582   1.926  18.199  1.00  0.00     0.036 C 
ENDBRANCH  18  19
BRANCH  18  22
HETATM   22  O1  UNL     1      -3.244   1.372  16.303  1.00  0.00    -0.392 OA
ATOM     23  H1  UNL     1      -2.746   1.742  15.584  1.00  0.00     0.210 HD
ENDBRANCH  18  22
ENDBRANCH  17  18
ENDBRANCH  16  17
ENDBRANCH   1  16
TORSDOF 5
ENDMDL
MODEL 2
REMARK VINA RESULT: -6.694721735      2.829      4.570
REMARK  5 active torsions:
REMARK  status: ('A' for Active; 'I' for Inactive)
REMARK    1  A    between atoms: C3_3  and  C4_4 
REMARK    2  A    between atoms: C4_4  and  O1_5 
REMARK    3  A    between atoms: C4_4  and  C5_7 
REMARK    4  A    between atoms: C5_7  and  C6_8 
REMARK    5  A    between atoms: C6_8  and  N1_9 
ROOT
HETATM    1  N1  UNL     1      -4.347   3.753  13.605  1.00  0.00     0.092 N 
HETATM    2  C7  UNL     1      -4.369   4.096  12.176  1.00  0.00     0.298 C 
HETATM    3  C8  UNL     1      -3.394   3.275  11.386  1.00  0.00     0.198 C 
HETATM    4  O2  UNL     1      -2.083   3.448  11.736  1.00  0.00    -0.387 OA
HETATM    5  C9  UNL     1      -1.374   4.261  10.818  1.00  0.00     0.193 C 
HETATM    6  C10 UNL     1      -1.002   5.502  11.552  1.00  0.00     0.193 C 
HETATM    7  O3  UNL     1       0.028   6.226  11.031  1.00  0.00    -0.387 OA
HETATM    8  C11 UNL     1       0.492   7.085  12.056  1.00  0.00     0.193 C 
HETATM    9  C12 UNL     1      -0.636   7.858  12.689  1.00  0.00     0.193 C 
HETATM   10  O4  UNL     1      -1.164   7.267  13.805  1.00  0.00    -0.387 OA
HETATM   11  C13 UNL     1      -1.702   8.102  14.736  1.00  0.00     0.193 C 
HETATM   12  C14 UNL     1      -3.184   8.053  14.877  1.00  0.00     0.193 C 
HETATM   13  O5  UNL     1      -3.667   6.847  15.380  1.00  0.00    -0.387 OA
HETATM   14  C15 UNL     1      -3.538   5.820  14.491  1.00  0.00     0.198 C 
HETATM   15  C16 UNL     1      -4.733   4.919  14.375  1.00  0.00     0.298 C 
ENDROOT
BRANCH   1  16
HETATM   16  C6  UNL     1      -5.207   2.627  13.763  1.00  0.00     0.275 C 
BRANCH  16  17
HETATM   17  C5  UNL     1      -4.565   1.415  14.366  1.00  0.00     0.066 C 
BRANCH  17  18
HETATM   18  C4  UNL     1      -4.540   1.596  15.890  1.00  0.00     0.142 C 
BRANCH  18  19
HETATM   19  C3  UNL     1      -5.434   0.636  16.558  1.00  0.00     0.000 C 
HETATM   20  C2  UNL     1      -6.575   1.056  17.095  1.00  0.00    -0.033 C 
HETATM   21  C1  UNL     1      -6.988   2.474  17.048  1.00  0.00     0.036 C 
ENDBRANCH  18  19
BRANCH  18  22
HETATM   22  O1  UNL     1      -3.263   1.456  16.400  1.00  0.00    -0.392 OA
ATOM     23  H1  UNL     1      -3.021   2.253  16.856  1.00  0.00     0.210 HD
ENDBRANCH  18  22
ENDBRANCH  17  18
ENDBRANCH  16  17
ENDBRANCH   1  16
TORSDOF 5
ENDMDL
MODEL 3
REMARK VINA RESULT: -6.558232808      1.475      1.679
REMARK  5 active torsions:
REMARK  status: ('A' for Active; 'I' for Inactive)
REMARK    1  A    between atoms: C3_3  and  C4_4 
REMARK    2  A    between atoms: C4_4  and  O1_5 
REMARK    3  A    between atoms: C4_4  and  C5_7 
REMARK    4  A    between atoms: C5_7  and  C6_8 
REMARK    5  A    between atoms: C6_8  and  N1_9 
ROOT
HETATM    1  N1  UNL     1      -4.605   3.932  13.522  1.00  0.00     0.092 N 
HETATM    2  C7  UNL     1      -4.562   5.318  14.008  1.00  0.00     0.298 C 
HETATM    3  C8  UNL     1      -5.772   6.099  13.587  1.00  0.00     0.198 C 
HETATM    4  O2  UNL     1      -5.922   6.239  12.234  1.00  0.00    -0.387 OA
HETATM    5  C9  UNL     1      -5.551   7.525  11.773  1.00  0.00     0.193 C 
HETATM    6  C10 UNL     1      -4.352   7.335  10.911  1.00  0.00     0.193 C 
HETATM    7  O3  UNL     1      -4.077   8.336  10.028  1.00  0.00    -0.387 OA
HETATM    8  C11 UNL     1      -3.205   7.801   9.052  1.00  0.00     0.193 C 
HETATM    9  C12 UNL     1      -2.026   7.101   9.679  1.00  0.00     0.193 C 
HETATM   10  O4  UNL     1      -2.204   5.755   9.857  1.00  0.00    -0.387 OA
HETATM   11  C13 UNL     1      -1.080   4.987   9.828  1.00  0.00     0.193 C 
HETATM   12  C14 UNL     1      -0.667   4.386  11.126  1.00  0.00     0.193 C 
HETATM   13  O5  UNL     1      -1.555   3.431  11.618  1.00  0.00    -0.387 OA
HETATM   14  C15 UNL     1      -2.730   3.979  12.042  1.00  0.00     0.198 C 
HETATM   15  C16 UNL     1      -3.249   3.452  13.347  1.00  0.00     0.298 C 
ENDROOT
BRANCH   1  16
HETATM   16  C6  UNL     1      -5.378   3.196  14.468  1.00  0.00     0.275 C 
BRANCH  16  17
HETATM   17  C5  UNL     1      -4.932   1.784  14.695  1.00  0.00     0.066 C 
BRANCH  17  18
HETATM   18  C4  UNL     1      -4.646   1.608  16.193  1.00  0.00     0.142 C 
BRANCH  18  19
HETATM   19  C3  UNL     1      -5.477   0.540  16.773  1.00  0.00     0.000 C 
HETATM   20  C2  UNL     1      -6.592   0.850  17.427  1.00  0.00    -0.033 C 
HETATM   21  C1  UNL     1      -7.038   2.249  17.598  1.00  0.00     0.036 C 
ENDBRANCH  18  19
BRANCH  18  22
HETATM   22  O1  UNL     1      -3.315   1.324  16.428  1.00  0.00    -0.392 OA
ATOM     23  H1  UNL     1      -3.246   0.753  17.184  1.00  0.00     0.210 HD
ENDBRANCH  18  22
ENDBRANCH  17  18
ENDBRANCH  16  17
ENDBRANCH   1  16
TORSDOF 5
ENDMDL
MODEL 4
REMARK VINA RESULT: -6.550176535      1.799      2.227
REMARK  5 active torsions:
REMARK  status: ('A' for Active; 'I' for Inactive)
REMARK    1  A    between atoms: C3_3  and  C4_4 
REMARK    2  A    between atoms: C4_4  and  O1_5 
REMARK    3  A    between atoms: C4_4  and  C5_7 
REMARK    4  A    between atoms: C5_7  and  C6_8 
REMARK    5  A    between atoms: C6_8  and  N1_9 
ROOT
HETATM    1  N1  UNL     1      -3.901   3.522  13.026  1.00  0.00     0.092 N 
HETATM    2  C7  UNL     1      -2.664   4.178  13.473  1.00  0.00     0.298 C 
HETATM    3  C8  UNL     1      -2.907   5.116  14.618  1.00  0.00     0.198 C 
HETATM    4  O2  UNL     1      -3.740   6.163  14.334  1.00  0.00    -0.387 OA
HETATM    5  C9  UNL     1      -3.043   7.380  14.140  1.00  0.00     0.193 C 
HETATM    6  C10 UNL     1      -3.237   7.755  12.712  1.00  0.00     0.193 C 
HETATM    7  O3  UNL     1      -3.036   9.066  12.399  1.00  0.00    -0.387 OA
HETATM    8  C11 UNL     1      -3.660   9.295  11.151  1.00  0.00     0.193 C 
HETATM    9  C12 UNL     1      -3.245   8.275  10.122  1.00  0.00     0.193 C 
HETATM   10  O4  UNL     1      -4.084   7.198  10.031  1.00  0.00    -0.387 OA
HETATM   11  C13 UNL     1      -4.156   6.586   8.816  1.00  0.00     0.193 C 
HETATM   12  C14 UNL     1      -3.553   5.227   8.734  1.00  0.00     0.193 C 
HETATM   13  O5  UNL     1      -4.221   4.264   9.487  1.00  0.00    -0.387 OA
HETATM   14  C15 UNL     1      -4.063   4.447  10.829  1.00  0.00     0.198 C 
HETATM   15  C16 UNL     1      -3.782   3.202  11.618  1.00  0.00     0.298 C 
ENDROOT
BRANCH   1  16
HETATM   16  C6  UNL     1      -4.088   2.393  13.878  1.00  0.00     0.275 C 
BRANCH  16  17
HETATM   17  C5  UNL     1      -5.144   2.555  14.928  1.00  0.00     0.066 C 
BRANCH  17  18
HETATM   18  C4  UNL     1      -4.640   1.894  16.218  1.00  0.00     0.142 C 
BRANCH  18  19
HETATM   19  C3  UNL     1      -5.411   0.680  16.533  1.00  0.00     0.000 C 
HETATM   20  C2  UNL     1      -6.302   0.698  17.520  1.00  0.00    -0.033 C 
HETATM   21  C1  UNL     1      -6.553   1.911  18.327  1.00  0.00     0.036 C 
ENDBRANCH  18  19
BRANCH  18  22
HETATM   22  O1  UNL     1      -3.299   1.571  16.136  1.00  0.00    -0.392 OA
ATOM     23  H1  UNL     1      -2.891   2.102  15.463  1.00  0.00     0.210 HD
ENDBRANCH  18  22
ENDBRANCH  17  18
ENDBRANCH  16  17
ENDBRANCH   1  16
TORSDOF 5
ENDMDL
MODEL 5
REMARK VINA RESULT: -6.479013348      1.697      3.793
REMARK  5 active torsions:
REMARK  status: ('A' for Active; 'I' for Inactive)
REMARK    1  A    between atoms: C3_3  and  C4_4 
REMARK    2  A    between atoms: C4_4  and  O1_5 
REMARK    3  A    between atoms: C4_4  and  C5_7 
REMARK    4  A    between atoms: C5_7  and  C6_8 
REMARK    5  A    between atoms: C6_8  and  N1_9 
ROOT
HETATM    1  N1  UNL     1      -4.561   2.958  14.769  1.00  0.00     0.092 N 
HETATM    2  C7  UNL     1      -4.964   2.102  13.645  1.00  0.00     0.298 C 
HETATM    3  C8  UNL     1      -3.787   1.649  12.832  1.00  0.00     0.198 C 
HETATM    4  O2  UNL     1      -3.084   2.657  12.231  1.00  0.00    -0.387 OA
HETATM    5  C9  UNL     1      -3.361   2.765  10.846  1.00  0.00     0.193 C 
HETATM    6  C10 UNL     1      -4.040   4.076  10.653  1.00  0.00     0.193 C 
HETATM    7  O3  UNL     1      -4.016   4.589   9.391  1.00  0.00    -0.387 OA
HETATM    8  C11 UNL     1      -4.315   5.968   9.497  1.00  0.00     0.193 C 
HETATM    9  C12 UNL     1      -5.562   6.208  10.308  1.00  0.00     0.193 C 
HETATM   10  O4  UNL     1      -5.330   6.440  11.637  1.00  0.00    -0.387 OA
HETATM   11  C13 UNL     1      -6.236   7.224  12.283  1.00  0.00     0.193 C 
HETATM   12  C14 UNL     1      -7.101   6.535  13.281  1.00  0.00     0.193 C 
HETATM   13  O5  UNL     1      -6.412   6.059  14.395  1.00  0.00    -0.387 OA
HETATM   14  C15 UNL     1      -5.605   5.000  14.098  1.00  0.00     0.198 C 
HETATM   15  C16 UNL     1      -5.646   3.867  15.080  1.00  0.00     0.298 C 
ENDROOT
BRANCH   1  16
HETATM   16  C6  UNL     1      -4.197   2.082  15.833  1.00  0.00     0.275 C 
BRANCH  16  17
HETATM   17  C5  UNL     1      -4.839   0.729  15.792  1.00  0.00     0.066 C 
BRANCH  17  18
HETATM   18  C4  UNL     1      -5.666   0.554  17.074  1.00  0.00     0.142 C 
BRANCH  18  19
HETATM   19  C3  UNL     1      -6.950   1.268  16.983  1.00  0.00     0.000 C 
HETATM   20  C2  UNL     1      -7.305   2.119  17.941  1.00  0.00    -0.033 C 
HETATM   21  C1  UNL     1      -6.446   2.379  19.115  1.00  0.00     0.036 C 
ENDBRANCH  18  19
BRANCH  18  22
HETATM   22  O1  UNL     1      -5.907  -0.778  17.348  1.00  0.00    -0.392 OA
ATOM     23  H1  UNL     1      -6.827  -0.892  17.558  1.00  0.00     0.210 HD
ENDBRANCH  18  22
ENDBRANCH  17  18
ENDBRANCH  16  17
ENDBRANCH   1  16
TORSDOF 5
ENDMDL
