MODEL 1
REMARK VINA RESULT: -6.840768300      0.000      0.000
REMARK  9 active torsions:
REMARK  status: ('A' for Active; 'I' for Inactive)
REMARK    1  A    between atoms: C2_2  and  O1_3 
REMARK    2  A    between atoms: O1_3  and  C3_4 
REMARK    3  A    between atoms: C3_4  and  O3_6 
REMARK    4  A    between atoms: O3_6  and  C4_7 
REMARK    5  A    between atoms: C6_9  and  C7_10 
REMARK    6  A    between atoms: C9_14  and  N1_15 
REMARK    7  A    between atoms: N1_15  and  N2_17 
REMARK    8  A    between atoms: N2_17  and  N3_18 
REMARK    9  A    between atoms: C10_21  and  O6_22 
ROOT
HETATM    1  C4  UNL     1      -5.069   3.408  14.718  1.00  0.00     0.139 C 
HETATM    2  C5  UNL     1      -3.833   4.096  14.167  1.00  0.00     0.043 C 
HETATM    3  C6  UNL     1      -4.270   4.761  12.888  1.00  0.00     0.049 C 
HETATM    4  C10 UNL     1      -5.086   5.949  13.294  1.00  0.00     0.129 C 
HETATM    5  C11 UNL     1      -6.275   5.521  14.049  1.00  0.00     0.022 A 
HETATM    6  C12 UNL     1      -6.147   5.562  15.581  1.00  0.00     0.015 A 
HETATM    7  C13 UNL     1      -6.248   4.306  14.817  1.00  0.00     0.022 A 
ENDROOT
BRANCH   3   8
HETATM    8  C7  UNL     1      -3.129   5.170  12.005  1.00  0.00     0.173 C 
HETATM    9  O4  UNL     1      -3.568   5.135  10.650  1.00  0.00    -0.311 OA
HETATM   10  C8  UNL     1      -3.375   3.761  10.712  1.00  0.00     0.287 C 
HETATM   11  O5  UNL     1      -3.856   2.695  10.278  1.00  0.00    -0.263 OA
HETATM   12  C9  UNL     1      -2.223   4.043  11.610  1.00  0.00     0.243 C 
BRANCH  12  13
HETATM   13  N1  UNL     1      -1.093   4.444  10.829  1.00  0.00    -0.236 N 
ATOM     14  H1  UNL     1      -1.254   4.922   9.943  1.00  0.00     0.198 HD
BRANCH  13  15
HETATM   15  N2  UNL     1       0.072   4.233  11.188  1.00  0.00    -0.248 NA
BRANCH  15  16
HETATM   16  N3  UNL     1       1.253   4.113  11.532  1.00  0.00    -0.261 N 
ATOM     17  H32 UNL     1       1.121   3.314  10.911  1.00  0.00     0.193 HD
ATOM     18  H31 UNL     1       2.219   4.078  11.857  1.00  0.00     0.193 HD
ENDBRANCH  15  16
ENDBRANCH  13  15
ENDBRANCH  12  13
ENDBRANCH   3   8
BRANCH   4  19
HETATM   19  O6  UNL     1      -4.338   6.899  13.986  1.00  0.00    -0.395 OA
ATOM     20  H6  UNL     1      -4.054   6.587  14.836  1.00  0.00     0.210 HD
ENDBRANCH   4  19
BRANCH   1  21
HETATM   21  O3  UNL     1      -4.699   2.814  15.952  1.00  0.00    -0.292 OA
BRANCH  21  22
HETATM   22  C3  UNL     1      -4.532   1.443  16.085  1.00  0.00     0.406 C 
HETATM   23  O2  UNL     1      -3.374   1.007  16.193  1.00  0.00    -0.229 OA
BRANCH  22  24
HETATM   24  O1  UNL     1      -5.590   0.547  16.104  1.00  0.00    -0.298 OA
BRANCH  24  25
HETATM   25  C2  UNL     1      -6.367   0.424  17.283  1.00  0.00     0.176 C 
HETATM   26  C1  UNL     1      -7.598   1.292  17.114  1.00  0.00     0.034 C 
ENDBRANCH  24  25
ENDBRANCH  22  24
ENDBRANCH  21  22
ENDBRANCH   1  21
TORSDOF 9
ENDMDL
MODEL 2
REMARK VINA RESULT: -6.777400921      1.225      1.699
REMARK  9 active torsions:
REMARK  status: ('A' for Active; 'I' for Inactive)
REMARK    1  A    between atoms: C2_2  and  O1_3 
REMARK    2  A    between atoms: O1_3  and  C3_4 
REMARK    3  A    between atoms: C3_4  and  O3_6 
REMARK    4  A    between atoms: O3_6  and  C4_7 
REMARK    5  A    between atoms: C6_9  and  C7_10 
REMARK    6  A    between atoms: C9_14  and  N1_15 
REMARK    7  A    between atoms: N1_15  and  N2_17 
REMARK    8  A    between atoms: N2_17  and  N3_18 
REMARK    9  A    between atoms: C10_21  and  O6_22 
ROOT
HETATM    1  C4  UNL     1      -5.345   3.041  14.547  1.00  0.00     0.139 C 
HETATM    2  C5  UNL     1      -4.046   3.706  14.131  1.00  0.00     0.043 C 
HETATM    3  C6  UNL     1      -4.409   4.652  13.016  1.00  0.00     0.049 C 
HETATM    4  C10 UNL     1      -5.112   5.806  13.662  1.00  0.00     0.129 C 
HETATM    5  C11 UNL     1      -6.341   5.349  14.331  1.00  0.00     0.022 A 
HETATM    6  C12 UNL     1      -6.221   5.069  15.838  1.00  0.00     0.015 A 
HETATM    7  C13 UNL     1      -6.435   4.007  14.838  1.00  0.00     0.022 A 
ENDROOT
BRANCH   3   8
HETATM    8  C7  UNL     1      -3.228   5.120  12.220  1.00  0.00     0.173 C 
HETATM    9  O4  UNL     1      -3.675   5.483  10.916  1.00  0.00    -0.311 OA
HETATM   10  C8  UNL     1      -3.666   4.124  10.627  1.00  0.00     0.287 C 
HETATM   11  O5  UNL     1      -4.286   3.272   9.962  1.00  0.00    -0.263 OA
HETATM   12  C9  UNL     1      -2.482   4.023  11.523  1.00  0.00     0.243 C 
BRANCH  12  13
HETATM   13  N1  UNL     1      -1.312   4.460  10.824  1.00  0.00    -0.236 N 
ATOM     14  H1  UNL     1      -1.427   5.015   9.976  1.00  0.00     0.198 HD
BRANCH  13  15
HETATM   15  N2  UNL     1      -0.169   4.190  11.208  1.00  0.00    -0.248 NA
BRANCH  15  16
HETATM   16  N3  UNL     1       0.983   4.010  11.619  1.00  0.00    -0.261 N 
ATOM     17  H32 UNL     1       0.429   3.911  12.469  1.00  0.00     0.193 HD
ATOM     18  H31 UNL     1       1.958   3.871  11.884  1.00  0.00     0.193 HD
ENDBRANCH  15  16
ENDBRANCH  13  15
ENDBRANCH  12  13
ENDBRANCH   3   8
BRANCH   4  19
HETATM   19  O6  UNL     1      -4.283   6.522  14.521  1.00  0.00    -0.395 OA
ATOM     20  H6  UNL     1      -4.566   6.470  15.426  1.00  0.00     0.210 HD
ENDBRANCH   4  19
BRANCH   1  21
HETATM   21  O3  UNL     1      -5.042   2.178  15.632  1.00  0.00    -0.292 OA
BRANCH  21  22
HETATM   22  C3  UNL     1      -4.500   0.916  15.437  1.00  0.00     0.406 C 
HETATM   23  O2  UNL     1      -3.591   0.551  16.201  1.00  0.00    -0.229 OA
BRANCH  22  24
HETATM   24  O1  UNL     1      -4.925   0.053  14.439  1.00  0.00    -0.298 OA
BRANCH  24  25
HETATM   25  C2  UNL     1      -4.064  -0.213  13.346  1.00  0.00     0.176 C 
HETATM   26  C1  UNL     1      -4.653   0.463  12.123  1.00  0.00     0.034 C 
ENDBRANCH  24  25
ENDBRANCH  22  24
ENDBRANCH  21  22
ENDBRANCH   1  21
TORSDOF 9
ENDMDL
MODEL 3
REMARK VINA RESULT: -6.754447378      0.914      1.030
REMARK  9 active torsions:
REMARK  status: ('A' for Active; 'I' for Inactive)
REMARK    1  A    between atoms: C2_2  and  O1_3 
REMARK    2  A    between atoms: O1_3  and  C3_4 
REMARK    3  A    between atoms: C3_4  and  O3_6 
REMARK    4  A    between atoms: O3_6  and  C4_7 
REMARK    5  A    between atoms: C6_9  and  C7_10 
REMARK    6  A    between atoms: C9_14  and  N1_15 
REMARK    7  A    between atoms: N1_15  and  N2_17 
REMARK    8  A    between atoms: N2_17  and  N3_18 
REMARK    9  A    between atoms: C10_21  and  O6_22 
ROOT
HETATM    1  C4  UNL     1      -4.584   2.537  14.413  1.00  0.00     0.139 C 
HETATM    2  C5  UNL     1      -3.446   3.515  14.183  1.00  0.00     0.043 C 
HETATM    3  C6  UNL     1      -3.921   4.448  13.099  1.00  0.00     0.049 C 
HETATM    4  C10 UNL     1      -4.932   5.350  13.739  1.00  0.00     0.129 C 
HETATM    5  C11 UNL     1      -6.073   4.567  14.240  1.00  0.00     0.022 A 
HETATM    6  C12 UNL     1      -6.026   4.190  15.730  1.00  0.00     0.015 A 
HETATM    7  C13 UNL     1      -5.892   3.200  14.647  1.00  0.00     0.022 A 
ENDROOT
BRANCH   3   8
HETATM    8  C7  UNL     1      -2.817   5.242  12.466  1.00  0.00     0.173 C 
HETATM    9  O4  UNL     1      -3.216   5.604  11.147  1.00  0.00    -0.311 OA
HETATM   10  C8  UNL     1      -2.860   4.313  10.777  1.00  0.00     0.287 C 
HETATM   11  O5  UNL     1      -3.197   3.403   9.996  1.00  0.00    -0.263 OA
HETATM   12  C9  UNL     1      -1.772   4.410  11.787  1.00  0.00     0.243 C 
BRANCH  12  13
HETATM   13  N1  UNL     1      -0.680   5.162  11.248  1.00  0.00    -0.236 N 
ATOM     14  H1  UNL     1      -0.882   6.022  10.739  1.00  0.00     0.198 HD
BRANCH  13  15
HETATM   15  N2  UNL     1       0.498   4.810  11.377  1.00  0.00    -0.248 NA
BRANCH  15  16
HETATM   16  N3  UNL     1       1.666   4.473  11.598  1.00  0.00    -0.261 N 
ATOM     17  H32 UNL     1       1.219   4.324  12.502  1.00  0.00     0.193 HD
ATOM     18  H31 UNL     1       2.646   4.212  11.706  1.00  0.00     0.193 HD
ENDBRANCH  15  16
ENDBRANCH  13  15
ENDBRANCH  12  13
ENDBRANCH   3   8
BRANCH   4  19
HETATM   19  O6  UNL     1      -4.375   6.158  14.727  1.00  0.00    -0.395 OA
ATOM     20  H6  UNL     1      -3.506   5.873  14.982  1.00  0.00     0.210 HD
ENDBRANCH   4  19
BRANCH   1  21
HETATM   21  O3  UNL     1      -4.184   1.675  15.466  1.00  0.00    -0.292 OA
BRANCH  21  22
HETATM   22  C3  UNL     1      -4.745   0.418  15.638  1.00  0.00     0.406 C 
HETATM   23  O2  UNL     1      -4.771  -0.344  14.657  1.00  0.00    -0.229 OA
BRANCH  22  24
HETATM   24  O1  UNL     1      -5.270  -0.022  16.843  1.00  0.00    -0.298 OA
BRANCH  24  25
HETATM   25  C2  UNL     1      -5.913   0.911  17.695  1.00  0.00     0.176 C 
HETATM   26  C1  UNL     1      -7.353   1.034  17.236  1.00  0.00     0.034 C 
ENDBRANCH  24  25
ENDBRANCH  22  24
ENDBRANCH  21  22
ENDBRANCH   1  21
TORSDOF 9
ENDMDL
MODEL 4
REMARK VINA RESULT: -6.296390477      2.705      3.490
REMARK  9 active torsions:
REMARK  status: ('A' for Active; 'I' for Inactive)
REMARK    1  A    between atoms: C2_2  and  O1_3 
REMARK    2  A    between atoms: O1_3  and  C3_4 
REMARK    3  A    between atoms: C3_4  and  O3_6 
REMARK    4  A    between atoms: O3_6  and  C4_7 
REMARK    5  A    between atoms: C6_9  and  C7_10 
REMARK    6  A    between atoms: C9_14  and  N1_15 
REMARK    7  A    between atoms: N1_15  and  N2_17 
REMARK    8  A    between atoms: N2_17  and  N3_18 
REMARK    9  A    between atoms: C10_21  and  O6_22 
ROOT
HETATM    1  C4  UNL     1      -4.177   1.959  13.934  1.00  0.00     0.139 C 
HETATM    2  C5  UNL     1      -4.532   3.431  13.824  1.00  0.00     0.043 C 
HETATM    3  C6  UNL     1      -3.498   4.034  12.910  1.00  0.00     0.049 C 
HETATM    4  C10 UNL     1      -3.840   3.567  11.528  1.00  0.00     0.129 C 
HETATM    5  C11 UNL     1      -3.761   2.099  11.449  1.00  0.00     0.022 A 
HETATM    6  C12 UNL     1      -5.089   1.345  11.623  1.00  0.00     0.015 A 
HETATM    7  C13 UNL     1      -4.002   1.296  12.617  1.00  0.00     0.022 A 
ENDROOT
BRANCH   3   8
HETATM    8  C7  UNL     1      -3.444   5.532  12.972  1.00  0.00     0.173 C 
HETATM    9  O4  UNL     1      -2.724   6.008  11.839  1.00  0.00    -0.311 OA
HETATM   10  C8  UNL     1      -1.571   5.672  12.536  1.00  0.00     0.287 C 
HETATM   11  O5  UNL     1      -0.418   5.237  12.348  1.00  0.00    -0.263 OA
HETATM   12  C9  UNL     1      -2.297   6.073  13.771  1.00  0.00     0.243 C 
BRANCH  12  13
HETATM   13  N1  UNL     1      -2.287   7.499  13.894  1.00  0.00    -0.236 N 
ATOM     14  H1  UNL     1      -2.543   8.062  13.083  1.00  0.00     0.198 HD
BRANCH  13  15
HETATM   15  N2  UNL     1      -1.981   8.073  14.945  1.00  0.00    -0.248 NA
BRANCH  15  16
HETATM   16  N3  UNL     1      -1.647   8.721  15.943  1.00  0.00    -0.261 N 
ATOM     17  H32 UNL     1      -0.807   8.179  15.740  1.00  0.00     0.193 HD
ATOM     18  H31 UNL     1      -1.441   9.287  16.766  1.00  0.00     0.193 HD
ENDBRANCH  15  16
ENDBRANCH  13  15
ENDBRANCH  12  13
ENDBRANCH   3   8
BRANCH   4  19
HETATM   19  O6  UNL     1      -5.071   4.051  11.092  1.00  0.00    -0.395 OA
ATOM     20  H6  UNL     1      -4.984   4.814  10.534  1.00  0.00     0.210 HD
ENDBRANCH   4  19
BRANCH   1  21
HETATM   21  O3  UNL     1      -5.166   1.353  14.751  1.00  0.00    -0.292 OA
BRANCH  21  22
HETATM   22  C3  UNL     1      -4.838   0.664  15.910  1.00  0.00     0.406 C 
HETATM   23  O2  UNL     1      -3.639   0.604  16.229  1.00  0.00    -0.229 OA
BRANCH  22  24
HETATM   24  O1  UNL     1      -5.779   0.046  16.718  1.00  0.00    -0.298 OA
BRANCH  24  25
HETATM   25  C2  UNL     1      -6.898   0.792  17.167  1.00  0.00     0.176 C 
HETATM   26  C1  UNL     1      -6.391   1.831  18.149  1.00  0.00     0.034 C 
ENDBRANCH  24  25
ENDBRANCH  22  24
ENDBRANCH  21  22
ENDBRANCH   1  21
TORSDOF 9
ENDMDL
MODEL 5
REMARK VINA RESULT: -6.086684249      1.790      2.322
REMARK  9 active torsions:
REMARK  status: ('A' for Active; 'I' for Inactive)
REMARK    1  A    between atoms: C2_2  and  O1_3 
REMARK    2  A    between atoms: O1_3  and  C3_4 
REMARK    3  A    between atoms: C3_4  and  O3_6 
REMARK    4  A    between atoms: O3_6  and  C4_7 
REMARK    5  A    between atoms: C6_9  and  C7_10 
REMARK    6  A    between atoms: C9_14  and  N1_15 
REMARK    7  A    between atoms: N1_15  and  N2_17 
REMARK    8  A    between atoms: N2_17  and  N3_18 
REMARK    9  A    between atoms: C10_21  and  O6_22 
ROOT
HETATM    1  C4  UNL     1      -5.307   3.061  14.532  1.00  0.00     0.139 C 
HETATM    2  C5  UNL     1      -4.071   3.846  14.134  1.00  0.00     0.043 C 
HETATM    3  C6  UNL     1      -4.527   4.825  13.084  1.00  0.00     0.049 C 
HETATM    4  C10 UNL     1      -5.301   5.883  13.808  1.00  0.00     0.129 C 
HETATM    5  C11 UNL     1      -6.478   5.294  14.468  1.00  0.00     0.022 A 
HETATM    6  C12 UNL     1      -6.307   4.938  15.954  1.00  0.00     0.015 A 
HETATM    7  C13 UNL     1      -6.459   3.923  14.897  1.00  0.00     0.022 A 
ENDROOT
BRANCH   3   8
HETATM    8  C7  UNL     1      -3.401   5.428  12.297  1.00  0.00     0.173 C 
HETATM    9  O4  UNL     1      -3.887   6.584  11.622  1.00  0.00    -0.311 OA
HETATM   10  C8  UNL     1      -4.424   5.710  10.687  1.00  0.00     0.287 C 
HETATM   11  O5  UNL     1      -5.412   5.580   9.938  1.00  0.00    -0.263 OA
HETATM   12  C9  UNL     1      -3.233   4.851  10.924  1.00  0.00     0.243 C 
BRANCH  12  13
HETATM   13  N1  UNL     1      -2.113   5.372  10.201  1.00  0.00    -0.236 N 
ATOM     14  H1  UNL     1      -1.629   6.191  10.571  1.00  0.00     0.198 HD
BRANCH  13  15
HETATM   15  N2  UNL     1      -1.710   4.869   9.147  1.00  0.00    -0.248 NA
BRANCH  15  16
HETATM   16  N3  UNL     1      -1.337   4.442   8.048  1.00  0.00    -0.261 N 
ATOM     17  H32 UNL     1      -1.154   5.442   7.969  1.00  0.00     0.193 HD
ATOM     18  H31 UNL     1      -1.050   4.019   7.166  1.00  0.00     0.193 HD
ENDBRANCH  15  16
ENDBRANCH  13  15
ENDBRANCH  12  13
ENDBRANCH   3   8
BRANCH   4  19
HETATM   19  O6  UNL     1      -4.511   6.609  14.695  1.00  0.00    -0.395 OA
ATOM     20  H6  UNL     1      -4.297   6.117  15.478  1.00  0.00     0.210 HD
ENDBRANCH   4  19
BRANCH   1  21
HETATM   21  O3  UNL     1      -4.917   2.163  15.559  1.00  0.00    -0.292 OA
BRANCH  21  22
HETATM   22  C3  UNL     1      -4.440   0.891  15.279  1.00  0.00     0.406 C 
HETATM   23  O2  UNL     1      -3.610   0.398  16.061  1.00  0.00    -0.229 OA
BRANCH  22  24
HETATM   24  O1  UNL     1      -4.845   0.152  14.178  1.00  0.00    -0.298 OA
BRANCH  24  25
HETATM   25  C2  UNL     1      -4.009   0.105  13.034  1.00  0.00     0.176 C 
HETATM   26  C1  UNL     1      -4.803   0.651  11.863  1.00  0.00     0.034 C 
ENDBRANCH  24  25
ENDBRANCH  22  24
ENDBRANCH  21  22
ENDBRANCH   1  21
TORSDOF 9
ENDMDL
