MODEL 1
REMARK VINA RESULT: -7.812458484      0.000      0.000
REMARK  7 active torsions:
REMARK  status: ('A' for Active; 'I' for Inactive)
REMARK    1  A    between atoms: N1_2  and  C3_4 
REMARK    2  A    between atoms: C10_13  and  O3_14 
REMARK    3  A    between atoms: O3_14  and  C11_15 
REMARK    4  A    between atoms: C11_15  and  C12_17 
REMARK    5  A    between atoms: C12_17  and  O5_18 
REMARK    6  A    between atoms: C12_17  and  C13_20 
REMARK    7  A    between atoms: C13_20  and  O6_23 
ROOT
HETATM    1  C3  UNL     1      -3.866   1.630  12.711  1.00  0.00     0.112 C 
HETATM    2  C4  UNL     1      -3.692   2.797  11.756  1.00  0.00     0.062 C 
HETATM    3  C5  UNL     1      -4.315   3.984  12.411  1.00  0.00     0.159 C 
HETATM    4  O1  UNL     1      -3.499   5.123  12.393  1.00  0.00    -0.348 OA
HETATM    5  C6  UNL     1      -2.540   4.951  13.371  1.00  0.00     0.158 C 
HETATM    6  C7  UNL     1      -2.495   6.095  14.376  1.00  0.00     0.078 C 
HETATM    7  C8  UNL     1      -1.174   4.896  12.719  1.00  0.00     0.078 C 
HETATM    8  O2  UNL     1      -2.835   3.812  14.089  1.00  0.00    -0.345 OA
HETATM    9  C9  UNL     1      -4.221   3.624  13.886  1.00  0.00     0.185 C 
HETATM   10  C10 UNL     1      -4.597   2.181  13.910  1.00  0.00     0.186 C 
ENDROOT
BRANCH  10  11
HETATM   11  O3  UNL     1      -4.075   1.582  15.069  1.00  0.00    -0.309 OA
BRANCH  11  12
HETATM   12  C11 UNL     1      -4.797   0.743  15.897  1.00  0.00     0.291 C 
HETATM   13  O4  UNL     1      -5.057  -0.399  15.399  1.00  0.00    -0.262 OA
BRANCH  12  14
HETATM   14  C12 UNL     1      -5.226   1.142  17.241  1.00  0.00     0.251 C 
BRANCH  14  15
HETATM   15  O5  UNL     1      -5.406   0.026  18.060  1.00  0.00    -0.383 OA
ATOM     16  H5  UNL     1      -4.661  -0.098  18.635  1.00  0.00     0.210 HD
ENDBRANCH  14  15
BRANCH  14  17
HETATM   17  C13 UNL     1      -6.506   1.941  17.241  1.00  0.00     0.086 C 
HETATM   18  C14 UNL     1      -7.718   1.069  17.007  1.00  0.00     0.049 C 
HETATM   19  C15 UNL     1      -6.643   2.525  18.647  1.00  0.00     0.049 C 
BRANCH  17  20
HETATM   20  O6  UNL     1      -6.498   2.972  16.334  1.00  0.00    -0.387 OA
ATOM     21  H6  UNL     1      -7.306   3.470  16.329  1.00  0.00     0.210 HD
ENDBRANCH  17  20
ENDBRANCH  14  17
ENDBRANCH  12  14
ENDBRANCH  11  12
ENDBRANCH  10  11
BRANCH   1  22
HETATM   22  N1  UNL     1      -4.533   0.591  12.037  1.00  0.00    -0.414 N 
HETATM   23  C1  UNL     1      -5.268   0.856  10.885  1.00  0.00     0.143 C 
HETATM   24  C2  UNL     1      -4.199  -0.734  12.353  1.00  0.00     0.143 C 
ENDBRANCH   1  22
TORSDOF 7
ENDMDL
MODEL 2
REMARK VINA RESULT: -7.520996718      0.998      1.655
REMARK  7 active torsions:
REMARK  status: ('A' for Active; 'I' for Inactive)
REMARK    1  A    between atoms: N1_2  and  C3_4 
REMARK    2  A    between atoms: C10_13  and  O3_14 
REMARK    3  A    between atoms: O3_14  and  C11_15 
REMARK    4  A    between atoms: C11_15  and  C12_17 
REMARK    5  A    between atoms: C12_17  and  O5_18 
REMARK    6  A    between atoms: C12_17  and  C13_20 
REMARK    7  A    between atoms: C13_20  and  O6_23 
ROOT
HETATM    1  C3  UNL     1      -3.603   2.351  12.671  1.00  0.00     0.112 C 
HETATM    2  C4  UNL     1      -3.349   3.349  11.555  1.00  0.00     0.062 C 
HETATM    3  C5  UNL     1      -3.801   4.679  12.059  1.00  0.00     0.159 C 
HETATM    4  O1  UNL     1      -2.865   5.700  11.851  1.00  0.00    -0.348 OA
HETATM    5  C6  UNL     1      -1.882   5.552  12.808  1.00  0.00     0.158 C 
HETATM    6  C7  UNL     1      -1.657   6.808  13.640  1.00  0.00     0.078 C 
HETATM    7  C8  UNL     1      -0.566   5.248  12.122  1.00  0.00     0.078 C 
HETATM    8  O2  UNL     1      -2.264   4.563  13.689  1.00  0.00    -0.345 OA
HETATM    9  C9  UNL     1      -3.671   4.513  13.566  1.00  0.00     0.185 C 
HETATM   10  C10 UNL     1      -4.204   3.141  13.806  1.00  0.00     0.186 C 
ENDROOT
BRANCH  10  11
HETATM   11  O3  UNL     1      -3.693   2.648  15.018  1.00  0.00    -0.309 OA
BRANCH  11  12
HETATM   12  C11 UNL     1      -4.355   1.742  15.824  1.00  0.00     0.291 C 
HETATM   13  O4  UNL     1      -3.598   0.914  16.424  1.00  0.00    -0.262 OA
BRANCH  12  14
HETATM   14  C12 UNL     1      -5.814   1.739  15.972  1.00  0.00     0.251 C 
BRANCH  14  15
HETATM   15  O5  UNL     1      -6.309   3.040  16.070  1.00  0.00    -0.383 OA
ATOM     16  H5  UNL     1      -6.877   3.132  16.826  1.00  0.00     0.210 HD
ENDBRANCH  14  15
BRANCH  14  17
HETATM   17  C13 UNL     1      -6.284   0.962  17.177  1.00  0.00     0.086 C 
HETATM   18  C14 UNL     1      -5.867   1.618  18.474  1.00  0.00     0.049 C 
HETATM   19  C15 UNL     1      -7.812   0.993  17.133  1.00  0.00     0.049 C 
BRANCH  17  20
HETATM   20  O6  UNL     1      -5.870  -0.347  17.169  1.00  0.00    -0.387 OA
ATOM     21  H6  UNL     1      -5.424  -0.602  17.968  1.00  0.00     0.210 HD
ENDBRANCH  17  20
ENDBRANCH  14  17
ENDBRANCH  12  14
ENDBRANCH  11  12
ENDBRANCH  10  11
BRANCH   1  22
HETATM   22  N1  UNL     1      -4.415   1.316  12.175  1.00  0.00    -0.414 N 
HETATM   23  C1  UNL     1      -5.178   1.508  11.026  1.00  0.00     0.143 C 
HETATM   24  C2  UNL     1      -4.213   0.016  12.659  1.00  0.00     0.143 C 
ENDBRANCH   1  22
TORSDOF 7
ENDMDL
MODEL 3
REMARK VINA RESULT: -7.390546173      3.319      5.754
REMARK  7 active torsions:
REMARK  status: ('A' for Active; 'I' for Inactive)
REMARK    1  A    between atoms: N1_2  and  C3_4 
REMARK    2  A    between atoms: C10_13  and  O3_14 
REMARK    3  A    between atoms: O3_14  and  C11_15 
REMARK    4  A    between atoms: C11_15  and  C12_17 
REMARK    5  A    between atoms: C12_17  and  O5_18 
REMARK    6  A    between atoms: C12_17  and  C13_20 
REMARK    7  A    between atoms: C13_20  and  O6_23 
ROOT
HETATM    1  C3  UNL     1      -4.385   5.762  12.398  1.00  0.00     0.112 C 
HETATM    2  C4  UNL     1      -4.707   7.232  12.602  1.00  0.00     0.062 C 
HETATM    3  C5  UNL     1      -4.802   7.842  11.243  1.00  0.00     0.159 C 
HETATM    4  O1  UNL     1      -5.947   8.629  11.065  1.00  0.00    -0.348 OA
HETATM    5  C6  UNL     1      -7.006   7.766  10.869  1.00  0.00     0.158 C 
HETATM    6  C7  UNL     1      -7.773   8.037   9.581  1.00  0.00     0.078 C 
HETATM    7  C8  UNL     1      -7.997   7.934  12.003  1.00  0.00     0.078 C 
HETATM    8  O2  UNL     1      -6.521   6.479  10.772  1.00  0.00    -0.345 OA
HETATM    9  C9  UNL     1      -5.174   6.646  10.379  1.00  0.00     0.185 C 
HETATM   10  C10 UNL     1      -4.300   5.558  10.906  1.00  0.00     0.186 C 
ENDROOT
BRANCH  10  11
HETATM   11  O3  UNL     1      -4.864   4.312  10.590  1.00  0.00    -0.309 OA
BRANCH  11  12
HETATM   12  C11 UNL     1      -4.148   3.132  10.533  1.00  0.00     0.291 C 
HETATM   13  O4  UNL     1      -2.998   3.234   9.998  1.00  0.00    -0.262 OA
BRANCH  12  14
HETATM   14  C12 UNL     1      -4.676   1.865  11.049  1.00  0.00     0.251 C 
BRANCH  14  15
HETATM   15  O5  UNL     1      -6.069   1.894  11.117  1.00  0.00    -0.383 OA
ATOM     16  H5  UNL     1      -6.366   2.533  11.755  1.00  0.00     0.210 HD
ENDBRANCH  14  15
BRANCH  14  17
HETATM   17  C13 UNL     1      -4.142   1.516  12.417  1.00  0.00     0.086 C 
HETATM   18  C14 UNL     1      -4.952   2.154  13.522  1.00  0.00     0.049 C 
HETATM   19  C15 UNL     1      -4.305   0.002  12.563  1.00  0.00     0.049 C 
BRANCH  17  20
HETATM   20  O6  UNL     1      -2.816   1.833  12.575  1.00  0.00    -0.387 OA
ATOM     21  H6  UNL     1      -2.655   2.404  13.317  1.00  0.00     0.210 HD
ENDBRANCH  17  20
ENDBRANCH  14  17
ENDBRANCH  12  14
ENDBRANCH  11  12
ENDBRANCH  10  11
BRANCH   1  22
HETATM   22  N1  UNL     1      -3.209   5.456  13.106  1.00  0.00    -0.414 N 
HETATM   23  C1  UNL     1      -1.964   5.588  12.496  1.00  0.00     0.143 C 
HETATM   24  C2  UNL     1      -3.282   5.321  14.500  1.00  0.00     0.143 C 
ENDBRANCH   1  22
TORSDOF 7
ENDMDL
MODEL 4
REMARK VINA RESULT: -6.877296887      1.859      2.555
REMARK  7 active torsions:
REMARK  status: ('A' for Active; 'I' for Inactive)
REMARK    1  A    between atoms: N1_2  and  C3_4 
REMARK    2  A    between atoms: C10_13  and  O3_14 
REMARK    3  A    between atoms: O3_14  and  C11_15 
REMARK    4  A    between atoms: C11_15  and  C12_17 
REMARK    5  A    between atoms: C12_17  and  O5_18 
REMARK    6  A    between atoms: C12_17  and  C13_20 
REMARK    7  A    between atoms: C13_20  and  O6_23 
ROOT
HETATM    1  C3  UNL     1      -3.341   4.249  12.314  1.00  0.00     0.112 C 
HETATM    2  C4  UNL     1      -3.525   5.728  12.021  1.00  0.00     0.062 C 
HETATM    3  C5  UNL     1      -4.628   6.206  12.905  1.00  0.00     0.159 C 
HETATM    4  O1  UNL     1      -4.319   7.388  13.591  1.00  0.00    -0.348 OA
HETATM    5  C6  UNL     1      -3.485   7.044  14.636  1.00  0.00     0.158 C 
HETATM    6  C7  UNL     1      -3.999   7.508  15.993  1.00  0.00     0.078 C 
HETATM    7  C8  UNL     1      -2.140   7.710  14.434  1.00  0.00     0.078 C 
HETATM    8  O2  UNL     1      -3.395   5.670  14.702  1.00  0.00    -0.345 OA
HETATM    9  C9  UNL     1      -4.568   5.215  14.058  1.00  0.00     0.185 C 
HETATM   10  C10 UNL     1      -4.358   3.907  13.374  1.00  0.00     0.186 C 
ENDROOT
BRANCH  10  11
HETATM   11  O3  UNL     1      -3.779   2.998  14.275  1.00  0.00    -0.309 OA
BRANCH  11  12
HETATM   12  C11 UNL     1      -4.436   1.897  14.791  1.00  0.00     0.291 C 
HETATM   13  O4  UNL     1      -4.980   1.146  13.919  1.00  0.00    -0.262 OA
BRANCH  12  14
HETATM   14  C12 UNL     1      -4.499   1.620  16.229  1.00  0.00     0.251 C 
BRANCH  14  15
HETATM   15  O5  UNL     1      -3.825   0.439  16.542  1.00  0.00    -0.383 OA
ATOM     16  H5  UNL     1      -3.630   0.393  17.470  1.00  0.00     0.210 HD
ENDBRANCH  14  15
BRANCH  14  17
HETATM   17  C13 UNL     1      -5.911   1.512  16.750  1.00  0.00     0.086 C 
HETATM   18  C14 UNL     1      -5.968   1.595  18.258  1.00  0.00     0.049 C 
HETATM   19  C15 UNL     1      -6.659   2.730  16.208  1.00  0.00     0.049 C 
BRANCH  17  20
HETATM   20  O6  UNL     1      -6.556   0.376  16.327  1.00  0.00    -0.387 OA
ATOM     21  H6  UNL     1      -6.128  -0.043  15.589  1.00  0.00     0.210 HD
ENDBRANCH  17  20
ENDBRANCH  14  17
ENDBRANCH  12  14
ENDBRANCH  11  12
ENDBRANCH  10  11
BRANCH   1  22
HETATM   22  N1  UNL     1      -3.474   3.531  11.112  1.00  0.00    -0.414 N 
HETATM   23  C1  UNL     1      -4.463   2.561  10.976  1.00  0.00     0.143 C 
HETATM   24  C2  UNL     1      -2.816   4.011   9.970  1.00  0.00     0.143 C 
ENDBRANCH   1  22
TORSDOF 7
ENDMDL
MODEL 5
REMARK VINA RESULT: -6.797186642      1.987      5.569
REMARK  7 active torsions:
REMARK  status: ('A' for Active; 'I' for Inactive)
REMARK    1  A    between atoms: N1_2  and  C3_4 
REMARK    2  A    between atoms: C10_13  and  O3_14 
REMARK    3  A    between atoms: O3_14  and  C11_15 
REMARK    4  A    between atoms: C11_15  and  C12_17 
REMARK    5  A    between atoms: C12_17  and  O5_18 
REMARK    6  A    between atoms: C12_17  and  C13_20 
REMARK    7  A    between atoms: C13_20  and  O6_23 
ROOT
HETATM    1  C3  UNL     1      -4.873   1.664  13.963  1.00  0.00     0.112 C 
HETATM    2  C4  UNL     1      -4.731   0.542  14.976  1.00  0.00     0.062 C 
HETATM    3  C5  UNL     1      -4.197   1.159  16.226  1.00  0.00     0.159 C 
HETATM    4  O1  UNL     1      -4.902   0.781  17.377  1.00  0.00    -0.348 OA
HETATM    5  C6  UNL     1      -6.075   1.507  17.392  1.00  0.00     0.158 C 
HETATM    6  C7  UNL     1      -6.275   2.301  18.677  1.00  0.00     0.078 C 
HETATM    7  C8  UNL     1      -7.248   0.554  17.287  1.00  0.00     0.078 C 
HETATM    8  O2  UNL     1      -6.043   2.427  16.366  1.00  0.00    -0.345 OA
HETATM    9  C9  UNL     1      -4.666   2.600  16.099  1.00  0.00     0.185 C 
HETATM   10  C10 UNL     1      -4.411   2.917  14.664  1.00  0.00     0.186 C 
ENDROOT
BRANCH  10  11
HETATM   11  O3  UNL     1      -5.235   3.984  14.269  1.00  0.00    -0.309 OA
BRANCH  11  12
HETATM   12  C11 UNL     1      -4.829   5.305  14.242  1.00  0.00     0.291 C 
HETATM   13  O4  UNL     1      -3.694   5.522  14.772  1.00  0.00    -0.262 OA
BRANCH  12  14
HETATM   14  C12 UNL     1      -5.647   6.367  13.647  1.00  0.00     0.251 C 
BRANCH  14  15
HETATM   15  O5  UNL     1      -7.007   6.075  13.761  1.00  0.00    -0.383 OA
ATOM     16  H5  UNL     1      -7.538   6.801  13.457  1.00  0.00     0.210 HD
ENDBRANCH  14  15
BRANCH  14  17
HETATM   17  C13 UNL     1      -5.335   6.609  12.191  1.00  0.00     0.086 C 
HETATM   18  C14 UNL     1      -6.450   7.348  11.487  1.00  0.00     0.049 C 
HETATM   19  C15 UNL     1      -4.109   7.522  12.165  1.00  0.00     0.049 C 
BRANCH  17  20
HETATM   20  O6  UNL     1      -5.040   5.457  11.504  1.00  0.00    -0.387 OA
ATOM     21  H6  UNL     1      -5.542   5.362  10.703  1.00  0.00     0.210 HD
ENDBRANCH  17  20
ENDBRANCH  14  17
ENDBRANCH  12  14
ENDBRANCH  11  12
ENDBRANCH  10  11
BRANCH   1  22
HETATM   22  N1  UNL     1      -4.142   1.327  12.810  1.00  0.00    -0.414 N 
HETATM   23  C1  UNL     1      -4.382   0.125  12.150  1.00  0.00     0.143 C 
HETATM   24  C2  UNL     1      -3.405   2.332  12.167  1.00  0.00     0.143 C 
ENDBRANCH   1  22
TORSDOF 7
ENDMDL
