MODEL 1
REMARK VINA RESULT: -7.833118324      0.000      0.000
REMARK  7 active torsions:
REMARK  status: ('A' for Active; 'I' for Inactive)
REMARK    1  A    between atoms: C2_2  and  C4_4 
REMARK    2  A    between atoms: C4_4  and  C5_5 
REMARK    3  A    between atoms: C5_5  and  O2_7 
REMARK    4  A    between atoms: O2_7  and  C6_8 
REMARK    5  A    between atoms: C6_8  and  C7_9 
REMARK    6  A    between atoms: C7_9  and  O3_10 
REMARK    7  A    between atoms: C15_22  and  O7_23 
ROOT
HETATM    1  C7  UNL     1      -4.661   1.873  12.567  1.00  0.00     0.108 C 
HETATM    2  C8  UNL     1      -5.266   3.049  13.360  1.00  0.00     0.050 C 
HETATM    3  C9  UNL     1      -4.029   3.793  13.757  1.00  0.00     0.029 C 
HETATM    4  C10 UNL     1      -4.291   5.243  14.057  1.00  0.00     0.057 A 
HETATM    5  C11 UNL     1      -5.618   5.450  14.745  1.00  0.00     0.121 A 
HETATM    6  C12 UNL     1      -6.433   6.069  13.695  1.00  0.00     0.261 A 
HETATM    7  O4  UNL     1      -7.638   6.385  13.812  1.00  0.00    -0.265 OA
HETATM    8  O5  UNL     1      -5.716   6.277  12.527  1.00  0.00    -0.289 OA
HETATM    9  C13 UNL     1      -4.380   5.840  12.681  1.00  0.00     0.275 A 
HETATM   10  O6  UNL     1      -4.041   4.851  11.770  1.00  0.00    -0.352 OA
HETATM   11  C14 UNL     1      -3.303   3.895  12.429  1.00  0.00     0.161 C 
HETATM   12  C15 UNL     1      -3.483   2.505  11.881  1.00  0.00     0.184 C 
ENDROOT
BRANCH   1  13
HETATM   13  C6  UNL     1      -4.340   0.833  13.557  1.00  0.00     0.219 C 
BRANCH  13  14
HETATM   14  O2  UNL     1      -5.096   0.684  14.687  1.00  0.00    -0.318 OA
BRANCH  14  15
HETATM   15  C5  UNL     1      -4.799   0.629  16.004  1.00  0.00     0.259 C 
HETATM   16  O1  UNL     1      -3.583   0.627  16.308  1.00  0.00    -0.265 OA
BRANCH  15  17
HETATM   17  C4  UNL     1      -5.814   0.572  17.102  1.00  0.00     0.115 C 
BRANCH  17  18
HETATM   18  C2  UNL     1      -6.023   1.980  17.613  1.00  0.00    -0.013 C 
HETATM   19  C1  UNL     1      -6.358   2.033  19.063  1.00  0.00     0.010 C 
HETATM   20  C3  UNL     1      -7.117   2.630  16.755  1.00  0.00     0.010 C 
ENDBRANCH  17  18
ENDBRANCH  15  17
ENDBRANCH  14  15
ENDBRANCH  13  14
ENDBRANCH   1  13
BRANCH   1  21
HETATM   21  O3  UNL     1      -5.560   1.504  11.584  1.00  0.00    -0.385 OA
ATOM     22  H3  UNL     1      -5.819   2.195  10.985  1.00  0.00     0.210 HD
ENDBRANCH   1  21
BRANCH  12  23
HETATM   23  O7  UNL     1      -3.674   2.626  10.504  1.00  0.00    -0.390 OA
ATOM     24  H7  UNL     1      -3.268   3.409  10.151  1.00  0.00     0.210 HD
ENDBRANCH  12  23
TORSDOF 7
ENDMDL
MODEL 2
REMARK VINA RESULT: -7.615004494      1.467      1.635
REMARK  7 active torsions:
REMARK  status: ('A' for Active; 'I' for Inactive)
REMARK    1  A    between atoms: C2_2  and  C4_4 
REMARK    2  A    between atoms: C4_4  and  C5_5 
REMARK    3  A    between atoms: C5_5  and  O2_7 
REMARK    4  A    between atoms: O2_7  and  C6_8 
REMARK    5  A    between atoms: C6_8  and  C7_9 
REMARK    6  A    between atoms: C7_9  and  O3_10 
REMARK    7  A    between atoms: C15_22  and  O7_23 
ROOT
HETATM    1  C7  UNL     1      -4.711   2.004  12.749  1.00  0.00     0.108 C 
HETATM    2  C8  UNL     1      -4.086   3.156  13.561  1.00  0.00     0.050 C 
HETATM    3  C9  UNL     1      -2.820   3.390  12.798  1.00  0.00     0.029 C 
HETATM    4  C10 UNL     1      -2.266   4.773  12.996  1.00  0.00     0.057 A 
HETATM    5  C11 UNL     1      -2.466   5.269  14.407  1.00  0.00     0.121 A 
HETATM    6  C12 UNL     1      -3.510   6.286  14.247  1.00  0.00     0.261 A 
HETATM    7  O4  UNL     1      -4.024   6.943  15.180  1.00  0.00    -0.265 OA
HETATM    8  O5  UNL     1      -3.882   6.453  12.922  1.00  0.00    -0.289 OA
HETATM    9  C13 UNL     1      -3.134   5.595  12.085  1.00  0.00     0.275 A 
HETATM   10  O6  UNL     1      -3.938   4.721  11.369  1.00  0.00    -0.352 OA
HETATM   11  C14 UNL     1      -3.340   3.482  11.377  1.00  0.00     0.161 C 
HETATM   12  C15 UNL     1      -4.316   2.337  11.339  1.00  0.00     0.184 C 
ENDROOT
BRANCH   1  13
HETATM   13  C6  UNL     1      -4.141   0.762  13.295  1.00  0.00     0.219 C 
BRANCH  13  14
HETATM   14  O2  UNL     1      -4.674   0.178  14.411  1.00  0.00    -0.318 OA
BRANCH  14  15
HETATM   15  C5  UNL     1      -4.617   0.469  15.730  1.00  0.00     0.259 C 
HETATM   16  O1  UNL     1      -3.483   0.701  16.208  1.00  0.00    -0.265 OA
BRANCH  15  17
HETATM   17  C4  UNL     1      -5.806   0.530  16.637  1.00  0.00     0.115 C 
BRANCH  17  18
HETATM   18  C2  UNL     1      -5.875   1.925  17.216  1.00  0.00    -0.013 C 
HETATM   19  C1  UNL     1      -6.463   1.963  18.584  1.00  0.00     0.010 C 
HETATM   20  C3  UNL     1      -6.668   2.799  16.235  1.00  0.00     0.010 C 
ENDBRANCH  17  18
ENDBRANCH  15  17
ENDBRANCH  14  15
ENDBRANCH  13  14
ENDBRANCH   1  13
BRANCH   1  21
HETATM   21  O3  UNL     1      -6.087   2.114  12.827  1.00  0.00    -0.385 OA
ATOM     22  H3  UNL     1      -6.578   1.521  12.270  1.00  0.00     0.210 HD
ENDBRANCH   1  21
BRANCH  12  23
HETATM   23  O7  UNL     1      -5.403   2.747  10.567  1.00  0.00    -0.390 OA
ATOM     24  H7  UNL     1      -6.209   2.785  11.070  1.00  0.00     0.210 HD
ENDBRANCH  12  23
TORSDOF 7
ENDMDL
MODEL 3
REMARK VINA RESULT: -7.342632350      1.538      1.813
REMARK  7 active torsions:
REMARK  status: ('A' for Active; 'I' for Inactive)
REMARK    1  A    between atoms: C2_2  and  C4_4 
REMARK    2  A    between atoms: C4_4  and  C5_5 
REMARK    3  A    between atoms: C5_5  and  O2_7 
REMARK    4  A    between atoms: O2_7  and  C6_8 
REMARK    5  A    between atoms: C6_8  and  C7_9 
REMARK    6  A    between atoms: C7_9  and  O3_10 
REMARK    7  A    between atoms: C15_22  and  O7_23 
ROOT
HETATM    1  C7  UNL     1      -4.676   2.675  12.561  1.00  0.00     0.108 C 
HETATM    2  C8  UNL     1      -5.031   4.165  12.742  1.00  0.00     0.050 C 
HETATM    3  C9  UNL     1      -3.849   4.821  12.100  1.00  0.00     0.029 C 
HETATM    4  C10 UNL     1      -4.140   6.219  11.630  1.00  0.00     0.057 A 
HETATM    5  C11 UNL     1      -5.064   6.953  12.571  1.00  0.00     0.121 A 
HETATM    6  C12 UNL     1      -6.319   7.007  11.815  1.00  0.00     0.261 A 
HETATM    7  O4  UNL     1      -7.390   7.502  12.232  1.00  0.00    -0.265 OA
HETATM    8  O5  UNL     1      -6.199   6.440  10.556  1.00  0.00    -0.289 OA
HETATM    9  C13 UNL     1      -4.881   5.974  10.346  1.00  0.00     0.275 A 
HETATM   10  O6  UNL     1      -4.837   4.611  10.089  1.00  0.00    -0.352 OA
HETATM   11  C14 UNL     1      -3.775   4.078  10.781  1.00  0.00     0.161 C 
HETATM   12  C15 UNL     1      -3.991   2.656  11.224  1.00  0.00     0.184 C 
ENDROOT
BRANCH   1  13
HETATM   13  C6  UNL     1      -3.835   2.312  13.713  1.00  0.00     0.219 C 
BRANCH  13  14
HETATM   14  O2  UNL     1      -3.946   1.082  14.300  1.00  0.00    -0.318 OA
BRANCH  14  15
HETATM   15  C5  UNL     1      -4.588   0.632  15.401  1.00  0.00     0.259 C 
HETATM   16  O1  UNL     1      -4.821  -0.599  15.455  1.00  0.00    -0.265 OA
BRANCH  15  17
HETATM   17  C4  UNL     1      -5.029   1.497  16.540  1.00  0.00     0.115 C 
BRANCH  17  18
HETATM   18  C2  UNL     1      -6.470   1.884  16.296  1.00  0.00    -0.013 C 
HETATM   19  C1  UNL     1      -6.684   3.358  16.267  1.00  0.00     0.010 C 
HETATM   20  C3  UNL     1      -7.324   1.210  17.379  1.00  0.00     0.010 C 
ENDBRANCH  17  18
ENDBRANCH  15  17
ENDBRANCH  14  15
ENDBRANCH  13  14
ENDBRANCH   1  13
BRANCH   1  21
HETATM   21  O3  UNL     1      -5.852   1.961  12.431  1.00  0.00    -0.385 OA
ATOM     22  H3  UNL     1      -5.852   1.097  12.827  1.00  0.00     0.210 HD
ENDBRANCH   1  21
BRANCH  12  23
HETATM   23  O7  UNL     1      -4.763   2.031  10.243  1.00  0.00    -0.390 OA
ATOM     24  H7  UNL     1      -5.419   2.613   9.875  1.00  0.00     0.210 HD
ENDBRANCH  12  23
TORSDOF 7
ENDMDL
MODEL 4
REMARK VINA RESULT: -7.335378285      0.944      1.303
REMARK  7 active torsions:
REMARK  status: ('A' for Active; 'I' for Inactive)
REMARK    1  A    between atoms: C2_2  and  C4_4 
REMARK    2  A    between atoms: C4_4  and  C5_5 
REMARK    3  A    between atoms: C5_5  and  O2_7 
REMARK    4  A    between atoms: O2_7  and  C6_8 
REMARK    5  A    between atoms: C6_8  and  C7_9 
REMARK    6  A    between atoms: C7_9  and  O3_10 
REMARK    7  A    between atoms: C15_22  and  O7_23 
ROOT
HETATM    1  C7  UNL     1      -3.796   2.511  12.198  1.00  0.00     0.108 C 
HETATM    2  C8  UNL     1      -4.741   3.466  12.955  1.00  0.00     0.050 C 
HETATM    3  C9  UNL     1      -3.790   4.105  13.919  1.00  0.00     0.029 C 
HETATM    4  C10 UNL     1      -4.267   5.443  14.410  1.00  0.00     0.057 A 
HETATM    5  C11 UNL     1      -5.763   5.478  14.602  1.00  0.00     0.121 A 
HETATM    6  C12 UNL     1      -6.212   6.320  13.490  1.00  0.00     0.261 A 
HETATM    7  O4  UNL     1      -7.406   6.595  13.231  1.00  0.00    -0.265 OA
HETATM    8  O5  UNL     1      -5.155   6.798  12.732  1.00  0.00    -0.289 OA
HETATM    9  C13 UNL     1      -3.924   6.343  13.257  1.00  0.00     0.275 A 
HETATM   10  O6  UNL     1      -3.202   5.595  12.339  1.00  0.00    -0.352 OA
HETATM   11  C14 UNL     1      -2.659   4.515  12.997  1.00  0.00     0.161 C 
HETATM   12  C15 UNL     1      -2.514   3.290  12.135  1.00  0.00     0.184 C 
ENDROOT
BRANCH   1  13
HETATM   13  C6  UNL     1      -3.750   1.270  12.989  1.00  0.00     0.219 C 
BRANCH  13  14
HETATM   14  O2  UNL     1      -4.743   0.970  13.879  1.00  0.00    -0.318 OA
BRANCH  14  15
HETATM   15  C5  UNL     1      -4.746   0.595  15.178  1.00  0.00     0.259 C 
HETATM   16  O1  UNL     1      -4.742  -0.637  15.410  1.00  0.00    -0.265 OA
BRANCH  15  17
HETATM   17  C4  UNL     1      -4.751   1.544  16.336  1.00  0.00     0.115 C 
BRANCH  17  18
HETATM   18  C2  UNL     1      -6.155   1.583  16.896  1.00  0.00    -0.013 C 
HETATM   19  C1  UNL     1      -6.926   2.781  16.460  1.00  0.00     0.010 C 
HETATM   20  C3  UNL     1      -6.050   1.504  18.425  1.00  0.00     0.010 C 
ENDBRANCH  17  18
ENDBRANCH  15  17
ENDBRANCH  14  15
ENDBRANCH  13  14
ENDBRANCH   1  13
BRANCH   1  21
HETATM   21  O3  UNL     1      -4.260   2.376  10.903  1.00  0.00    -0.385 OA
ATOM     22  H3  UNL     1      -4.682   3.144  10.537  1.00  0.00     0.210 HD
ENDBRANCH   1  21
BRANCH  12  23
HETATM   23  O7  UNL     1      -2.223   3.727  10.842  1.00  0.00    -0.390 OA
ATOM     24  H7  UNL     1      -1.525   3.224  10.440  1.00  0.00     0.210 HD
ENDBRANCH  12  23
TORSDOF 7
ENDMDL
MODEL 5
REMARK VINA RESULT: -7.318117823      1.703      1.947
REMARK  7 active torsions:
REMARK  status: ('A' for Active; 'I' for Inactive)
REMARK    1  A    between atoms: C2_2  and  C4_4 
REMARK    2  A    between atoms: C4_4  and  C5_5 
REMARK    3  A    between atoms: C5_5  and  O2_7 
REMARK    4  A    between atoms: O2_7  and  C6_8 
REMARK    5  A    between atoms: C6_8  and  C7_9 
REMARK    6  A    between atoms: C7_9  and  O3_10 
REMARK    7  A    between atoms: C15_22  and  O7_23 
ROOT
HETATM    1  C7  UNL     1      -4.526   2.204  12.551  1.00  0.00     0.108 C 
HETATM    2  C8  UNL     1      -3.947   3.342  13.416  1.00  0.00     0.050 C 
HETATM    3  C9  UNL     1      -2.636   3.580  12.734  1.00  0.00     0.029 C 
HETATM    4  C10 UNL     1      -2.089   4.958  12.984  1.00  0.00     0.057 A 
HETATM    5  C11 UNL     1      -2.373   5.436  14.387  1.00  0.00     0.121 A 
HETATM    6  C12 UNL     1      -3.401   6.459  14.177  1.00  0.00     0.261 A 
HETATM    7  O4  UNL     1      -3.969   7.106  15.086  1.00  0.00    -0.265 OA
HETATM    8  O5  UNL     1      -3.692   6.646  12.835  1.00  0.00    -0.289 OA
HETATM    9  C13 UNL     1      -2.897   5.796  12.033  1.00  0.00     0.275 A 
HETATM   10  O6  UNL     1      -3.660   4.936  11.258  1.00  0.00    -0.352 OA
HETATM   11  C14 UNL     1      -3.068   3.694  11.285  1.00  0.00     0.161 C 
HETATM   12  C15 UNL     1      -4.044   2.554  11.172  1.00  0.00     0.184 C 
ENDROOT
BRANCH   1  13
HETATM   13  C6  UNL     1      -3.995   0.952  13.114  1.00  0.00     0.219 C 
BRANCH  13  14
HETATM   14  O2  UNL     1      -3.756   0.832  14.455  1.00  0.00    -0.318 OA
BRANCH  14  15
HETATM   15  C5  UNL     1      -4.543   0.553  15.518  1.00  0.00     0.259 C 
HETATM   16  O1  UNL     1      -4.938  -0.631  15.632  1.00  0.00    -0.265 OA
BRANCH  15  17
HETATM   17  C4  UNL     1      -4.962   1.552  16.550  1.00  0.00     0.115 C 
BRANCH  17  18
HETATM   18  C2  UNL     1      -6.395   1.939  16.264  1.00  0.00    -0.013 C 
HETATM   19  C1  UNL     1      -6.582   3.407  16.089  1.00  0.00     0.010 C 
HETATM   20  C3  UNL     1      -7.263   1.391  17.405  1.00  0.00     0.010 C 
ENDBRANCH  17  18
ENDBRANCH  15  17
ENDBRANCH  14  15
ENDBRANCH  13  14
ENDBRANCH   1  13
BRANCH   1  21
HETATM   21  O3  UNL     1      -5.903   2.319  12.547  1.00  0.00    -0.385 OA
ATOM     22  H3  UNL     1      -6.244   3.172  12.789  1.00  0.00     0.210 HD
ENDBRANCH   1  21
BRANCH  12  23
HETATM   23  O7  UNL     1      -5.081   2.980  10.341  1.00  0.00    -0.390 OA
ATOM     24  H7  UNL     1      -5.670   3.583  10.780  1.00  0.00     0.210 HD
ENDBRANCH  12  23
TORSDOF 7
ENDMDL
