MODEL 1
REMARK VINA RESULT: -7.282147592      0.000      0.000
REMARK  7 active torsions:
REMARK  status: ('A' for Active; 'I' for Inactive)
REMARK    1  A    between atoms: C2_2  and  O2_4 
REMARK    2  A    between atoms: O2_4  and  C3_5 
REMARK    3  A    between atoms: C3_5  and  C4_6 
REMARK    4  A    between atoms: C5_8  and  N1_9 
REMARK    5  A    between atoms: C11_15  and  O4_16 
REMARK    6  A    between atoms: C13_19  and  O5_20 
REMARK    7  A    between atoms: O5_20  and  C14_21 
ROOT
HETATM    1  C4  UNL     1      -4.029   2.567  14.262  1.00  0.00     0.178 C 
HETATM    2  O3  UNL     1      -4.003   4.001  14.304  1.00  0.00    -0.345 OA
HETATM    3  C5  UNL     1      -2.682   4.401  13.944  1.00  0.00     0.388 C 
HETATM    4  C11 UNL     1      -2.455   4.096  12.486  1.00  0.00     0.180 C 
HETATM    5  C12 UNL     1      -3.792   3.509  12.001  1.00  0.00     0.071 C 
HETATM    6  C13 UNL     1      -3.924   2.179  12.840  1.00  0.00     0.165 C 
ENDROOT
BRANCH   3   7
HETATM    7  N1  UNL     1      -2.514   5.726  14.370  1.00  0.00     0.119 N 
HETATM    8  C6  UNL     1      -1.676   6.440  13.481  1.00  0.00     0.276 C 
HETATM    9  C7  UNL     1      -1.370   7.855  13.928  1.00  0.00     0.030 C 
HETATM   10  C8  UNL     1      -2.727   8.526  14.072  1.00  0.00     0.003 C 
HETATM   11  C9  UNL     1      -3.404   7.810  15.232  1.00  0.00     0.030 C 
HETATM   12  C10 UNL     1      -3.700   6.399  14.796  1.00  0.00     0.276 C 
ENDBRANCH   3   7
BRANCH   4  13
HETATM   13  O4  UNL     1      -1.533   3.072  12.285  1.00  0.00    -0.391 OA
ATOM     14  H4  UNL     1      -1.941   2.249  12.042  1.00  0.00     0.210 HD
ENDBRANCH   4  13
BRANCH   1  15
HETATM   15  C3  UNL     1      -5.311   2.237  14.958  1.00  0.00     0.213 C 
BRANCH  15  16
HETATM   16  O2  UNL     1      -5.446   0.956  15.486  1.00  0.00    -0.319 OA
BRANCH  16  17
HETATM   17  C2  UNL     1      -6.012   0.799  16.758  1.00  0.00     0.254 C 
HETATM   18  C1  UNL     1      -6.645   1.925  17.507  1.00  0.00     0.126 C 
HETATM   19  O1  UNL     1      -5.958  -0.362  17.264  1.00  0.00    -0.266 OA
ENDBRANCH  16  17
ENDBRANCH  15  16
ENDBRANCH   1  15
BRANCH   6  20
HETATM   20  O5  UNL     1      -5.008   1.472  12.287  1.00  0.00    -0.314 OA
BRANCH  20  21
HETATM   21  C14 UNL     1      -4.810   0.342  11.481  1.00  0.00     0.255 C 
HETATM   22  C15 UNL     1      -4.507  -1.013  11.987  1.00  0.00     0.126 C 
HETATM   23  O6  UNL     1      -4.902   0.506  10.241  1.00  0.00    -0.266 OA
ENDBRANCH  20  21
ENDBRANCH   6  20
TORSDOF 7
ENDMDL
MODEL 2
REMARK VINA RESULT: -7.146514858      2.273      5.317
REMARK  7 active torsions:
REMARK  status: ('A' for Active; 'I' for Inactive)
REMARK    1  A    between atoms: C2_2  and  O2_4 
REMARK    2  A    between atoms: O2_4  and  C3_5 
REMARK    3  A    between atoms: C3_5  and  C4_6 
REMARK    4  A    between atoms: C5_8  and  N1_9 
REMARK    5  A    between atoms: C11_15  and  O4_16 
REMARK    6  A    between atoms: C13_19  and  O5_20 
REMARK    7  A    between atoms: O5_20  and  C14_21 
ROOT
HETATM    1  C4  UNL     1      -3.912   2.946  12.564  1.00  0.00     0.178 C 
HETATM    2  O3  UNL     1      -4.795   2.985  13.694  1.00  0.00    -0.345 OA
HETATM    3  C5  UNL     1      -3.983   2.862  14.860  1.00  0.00     0.388 C 
HETATM    4  C11 UNL     1      -3.161   4.114  15.022  1.00  0.00     0.180 C 
HETATM    5  C12 UNL     1      -3.597   5.018  13.856  1.00  0.00     0.071 C 
HETATM    6  C13 UNL     1      -3.138   4.204  12.583  1.00  0.00     0.165 C 
ENDROOT
BRANCH   3   7
HETATM    7  N1  UNL     1      -4.822   2.486  15.918  1.00  0.00     0.119 N 
HETATM    8  C6  UNL     1      -6.123   3.014  15.744  1.00  0.00     0.276 C 
HETATM    9  C7  UNL     1      -7.062   2.728  16.898  1.00  0.00     0.030 C 
HETATM   10  C8  UNL     1      -7.089   1.213  17.020  1.00  0.00     0.003 C 
HETATM   11  C9  UNL     1      -5.684   0.824  17.458  1.00  0.00     0.030 C 
HETATM   12  C10 UNL     1      -4.746   1.116  16.317  1.00  0.00     0.276 C 
ENDBRANCH   3   7
BRANCH   4  13
HETATM   13  O4  UNL     1      -1.802   3.901  14.808  1.00  0.00    -0.391 OA
ATOM     14  H4  UNL     1      -1.469   4.370  14.051  1.00  0.00     0.210 HD
ENDBRANCH   4  13
BRANCH   1  15
HETATM   15  C3  UNL     1      -4.848   2.748  11.415  1.00  0.00     0.213 C 
BRANCH  15  16
HETATM   16  O2  UNL     1      -5.595   1.573  11.388  1.00  0.00    -0.319 OA
BRANCH  16  17
HETATM   17  C2  UNL     1      -4.969   0.376  11.017  1.00  0.00     0.254 C 
HETATM   18  C1  UNL     1      -4.574  -0.671  12.005  1.00  0.00     0.126 C 
HETATM   19  O1  UNL     1      -4.739   0.216   9.781  1.00  0.00    -0.266 OA
ENDBRANCH  16  17
ENDBRANCH  15  16
ENDBRANCH   1  15
BRANCH   6  20
HETATM   20  O5  UNL     1      -3.297   5.071  11.486  1.00  0.00    -0.314 OA
BRANCH  20  21
HETATM   21  C14 UNL     1      -2.354   5.118  10.448  1.00  0.00     0.255 C 
HETATM   22  C15 UNL     1      -1.159   5.989  10.432  1.00  0.00     0.126 C 
HETATM   23  O6  UNL     1      -2.550   4.360   9.469  1.00  0.00    -0.266 OA
ENDBRANCH  20  21
ENDBRANCH   6  20
TORSDOF 7
ENDMDL
MODEL 3
REMARK VINA RESULT: -7.069584594      0.639      1.213
REMARK  7 active torsions:
REMARK  status: ('A' for Active; 'I' for Inactive)
REMARK    1  A    between atoms: C2_2  and  O2_4 
REMARK    2  A    between atoms: O2_4  and  C3_5 
REMARK    3  A    between atoms: C3_5  and  C4_6 
REMARK    4  A    between atoms: C5_8  and  N1_9 
REMARK    5  A    between atoms: C11_15  and  O4_16 
REMARK    6  A    between atoms: C13_19  and  O5_20 
REMARK    7  A    between atoms: O5_20  and  C14_21 
ROOT
HETATM    1  C4  UNL     1      -4.135   2.859  14.066  1.00  0.00     0.178 C 
HETATM    2  O3  UNL     1      -4.145   4.278  13.855  1.00  0.00    -0.345 OA
HETATM    3  C5  UNL     1      -2.824   4.648  13.464  1.00  0.00     0.388 C 
HETATM    4  C11 UNL     1      -2.546   4.097  12.089  1.00  0.00     0.180 C 
HETATM    5  C12 UNL     1      -3.853   3.396  11.681  1.00  0.00     0.071 C 
HETATM    6  C13 UNL     1      -3.978   2.231  12.739  1.00  0.00     0.165 C 
ENDROOT
BRANCH   3   7
HETATM    7  N1  UNL     1      -2.701   6.031  13.653  1.00  0.00     0.119 N 
HETATM    8  C6  UNL     1      -3.288   6.427  14.879  1.00  0.00     0.276 C 
HETATM    9  C7  UNL     1      -3.278   7.924  15.110  1.00  0.00     0.030 C 
HETATM   10  C8  UNL     1      -1.813   8.325  15.040  1.00  0.00     0.003 C 
HETATM   11  C9  UNL     1      -1.401   8.076  13.596  1.00  0.00     0.030 C 
HETATM   12  C10 UNL     1      -1.419   6.589  13.359  1.00  0.00     0.276 C 
ENDBRANCH   3   7
BRANCH   4  13
HETATM   13  O4  UNL     1      -1.593   3.082  12.096  1.00  0.00    -0.391 OA
ATOM     14  H4  UNL     1      -1.913   2.272  11.714  1.00  0.00     0.210 HD
ENDBRANCH   4  13
BRANCH   1  15
HETATM   15  C3  UNL     1      -5.429   2.620  14.777  1.00  0.00     0.213 C 
BRANCH  15  16
HETATM   16  O2  UNL     1      -5.368   2.209  16.105  1.00  0.00    -0.319 OA
BRANCH  16  17
HETATM   17  C2  UNL     1      -6.030   1.034  16.486  1.00  0.00     0.254 C 
HETATM   18  C1  UNL     1      -7.322   1.040  17.235  1.00  0.00     0.126 C 
HETATM   19  O1  UNL     1      -5.473  -0.060  16.171  1.00  0.00    -0.266 OA
ENDBRANCH  16  17
ENDBRANCH  15  16
ENDBRANCH   1  15
BRANCH   6  20
HETATM   20  O5  UNL     1      -5.027   1.406  12.291  1.00  0.00    -0.314 OA
BRANCH  20  21
HETATM   21  C14 UNL     1      -4.783   0.278  11.496  1.00  0.00     0.255 C 
HETATM   22  C15 UNL     1      -4.434  -1.062  12.015  1.00  0.00     0.126 C 
HETATM   23  O6  UNL     1      -4.873   0.428  10.254  1.00  0.00    -0.266 OA
ENDBRANCH  20  21
ENDBRANCH   6  20
TORSDOF 7
ENDMDL
MODEL 4
REMARK VINA RESULT: -6.962028775      1.280      1.416
REMARK  7 active torsions:
REMARK  status: ('A' for Active; 'I' for Inactive)
REMARK    1  A    between atoms: C2_2  and  O2_4 
REMARK    2  A    between atoms: O2_4  and  C3_5 
REMARK    3  A    between atoms: C3_5  and  C4_6 
REMARK    4  A    between atoms: C5_8  and  N1_9 
REMARK    5  A    between atoms: C11_15  and  O4_16 
REMARK    6  A    between atoms: C13_19  and  O5_20 
REMARK    7  A    between atoms: O5_20  and  C14_21 
ROOT
HETATM    1  C4  UNL     1      -3.340   3.527  14.320  1.00  0.00     0.178 C 
HETATM    2  O3  UNL     1      -3.347   4.920  14.667  1.00  0.00    -0.345 OA
HETATM    3  C5  UNL     1      -2.377   5.557  13.838  1.00  0.00     0.388 C 
HETATM    4  C11 UNL     1      -2.868   5.554  12.414  1.00  0.00     0.180 C 
HETATM    5  C12 UNL     1      -4.252   4.887  12.482  1.00  0.00     0.071 C 
HETATM    6  C13 UNL     1      -3.918   3.422  12.965  1.00  0.00     0.165 C 
ENDROOT
BRANCH   3   7
HETATM    7  N1  UNL     1      -2.071   6.793  14.424  1.00  0.00     0.119 N 
HETATM    8  C6  UNL     1      -1.260   7.573  13.565  1.00  0.00     0.276 C 
HETATM    9  C7  UNL     1      -0.808   8.886  14.169  1.00  0.00     0.030 C 
HETATM   10  C8  UNL     1      -2.092   9.615  14.534  1.00  0.00     0.003 C 
HETATM   11  C9  UNL     1      -2.719   8.784  15.645  1.00  0.00     0.030 C 
HETATM   12  C10 UNL     1      -3.160   7.473  15.050  1.00  0.00     0.276 C 
ENDBRANCH   3   7
BRANCH   4  13
HETATM   13  O4  UNL     1      -2.120   4.721  11.585  1.00  0.00    -0.391 OA
ATOM     14  H4  UNL     1      -1.352   5.150  11.226  1.00  0.00     0.210 HD
ENDBRANCH   4  13
BRANCH   1  15
HETATM   15  C3  UNL     1      -4.117   2.904  15.436  1.00  0.00     0.213 C 
BRANCH  15  16
HETATM   16  O2  UNL     1      -3.832   1.580  15.758  1.00  0.00    -0.319 OA
BRANCH  16  17
HETATM   17  C2  UNL     1      -4.883   0.723  16.110  1.00  0.00     0.254 C 
HETATM   18  C1  UNL     1      -5.895   1.067  17.152  1.00  0.00     0.126 C 
HETATM   19  O1  UNL     1      -4.938  -0.387  15.500  1.00  0.00    -0.266 OA
ENDBRANCH  16  17
ENDBRANCH  15  16
ENDBRANCH   1  15
BRANCH   6  20
HETATM   20  O5  UNL     1      -5.109   2.684  12.832  1.00  0.00    -0.314 OA
BRANCH  20  21
HETATM   21  C14 UNL     1      -5.201   1.593  11.956  1.00  0.00     0.255 C 
HETATM   22  C15 UNL     1      -4.516   0.296  12.147  1.00  0.00     0.126 C 
HETATM   23  O6  UNL     1      -5.921   1.739  10.940  1.00  0.00    -0.266 OA
ENDBRANCH  20  21
ENDBRANCH   6  20
TORSDOF 7
ENDMDL
MODEL 5
REMARK VINA RESULT: -6.953100536      2.732      5.833
REMARK  7 active torsions:
REMARK  status: ('A' for Active; 'I' for Inactive)
REMARK    1  A    between atoms: C2_2  and  O2_4 
REMARK    2  A    between atoms: O2_4  and  C3_5 
REMARK    3  A    between atoms: C3_5  and  C4_6 
REMARK    4  A    between atoms: C5_8  and  N1_9 
REMARK    5  A    between atoms: C11_15  and  O4_16 
REMARK    6  A    between atoms: C13_19  and  O5_20 
REMARK    7  A    between atoms: O5_20  and  C14_21 
ROOT
HETATM    1  C4  UNL     1      -4.358   4.057  12.492  1.00  0.00     0.178 C 
HETATM    2  O3  UNL     1      -5.280   3.314  13.303  1.00  0.00    -0.345 OA
HETATM    3  C5  UNL     1      -4.998   3.644  14.661  1.00  0.00     0.388 C 
HETATM    4  C11 UNL     1      -5.397   5.076  14.912  1.00  0.00     0.180 C 
HETATM    5  C12 UNL     1      -5.986   5.554  13.574  1.00  0.00     0.071 C 
HETATM    6  C13 UNL     1      -4.752   5.478  12.593  1.00  0.00     0.165 C 
ENDROOT
BRANCH   3   7
HETATM    7  N1  UNL     1      -5.576   2.652  15.464  1.00  0.00     0.119 N 
HETATM    8  C6  UNL     1      -4.581   1.896  16.128  1.00  0.00     0.276 C 
HETATM    9  C7  UNL     1      -5.127   0.741  16.942  1.00  0.00     0.030 C 
HETATM   10  C8  UNL     1      -6.093   1.376  17.929  1.00  0.00     0.003 C 
HETATM   11  C9  UNL     1      -7.231   1.922  17.078  1.00  0.00     0.030 C 
HETATM   12  C10 UNL     1      -6.689   3.064  16.259  1.00  0.00     0.276 C 
ENDBRANCH   3   7
BRANCH   4  13
HETATM   13  O4  UNL     1      -4.304   5.911  15.129  1.00  0.00    -0.391 OA
ATOM     14  H4  UNL     1      -4.145   6.508  14.407  1.00  0.00     0.210 HD
ENDBRANCH   4  13
BRANCH   1  15
HETATM   15  C3  UNL     1      -4.498   3.412  11.151  1.00  0.00     0.213 C 
BRANCH  15  16
HETATM   16  O2  UNL     1      -5.394   2.352  11.036  1.00  0.00    -0.319 OA
BRANCH  16  17
HETATM   17  C2  UNL     1      -4.899   1.042  11.011  1.00  0.00     0.254 C 
HETATM   18  C1  UNL     1      -4.533   0.292  12.248  1.00  0.00     0.126 C 
HETATM   19  O1  UNL     1      -4.765   0.507   9.870  1.00  0.00    -0.266 OA
ENDBRANCH  16  17
ENDBRANCH  15  16
ENDBRANCH   1  15
BRANCH   6  20
HETATM   20  O5  UNL     1      -5.155   6.116  11.405  1.00  0.00    -0.314 OA
BRANCH  20  21
HETATM   21  C14 UNL     1      -5.455   7.486  11.376  1.00  0.00     0.255 C 
HETATM   22  C15 UNL     1      -6.785   8.053  11.067  1.00  0.00     0.126 C 
HETATM   23  O6  UNL     1      -4.517   8.278  11.635  1.00  0.00    -0.266 OA
ENDBRANCH  20  21
ENDBRANCH   6  20
TORSDOF 7
ENDMDL
