MODEL 1
REMARK VINA RESULT: -7.831070036      0.000      0.000
REMARK  4 active torsions:
REMARK  status: ('A' for Active; 'I' for Inactive)
REMARK       I    between atoms: N3_4  and  C2_6 
REMARK    1  A    between atoms: C2_6  and  C3_8 
REMARK    2  A    between atoms: C8_13  and  S1_14 
REMARK    3  A    between atoms: S1_14  and  N4_17 
REMARK    4  A    between atoms: N4_17  and  C9_19 
ROOT
HETATM    1  C3  UNL     1      37.237  -1.808  12.582  1.00  0.00     0.055 A 
HETATM    2  C4  UNL     1      38.351  -1.616  13.421  1.00  0.00     0.018 A 
HETATM    3  C5  UNL     1      38.893  -2.625  14.147  1.00  0.00     0.001 A 
HETATM    4  C6  UNL     1      38.320  -3.868  14.045  1.00  0.00     0.002 A 
HETATM    5  C7  UNL     1      37.243  -4.081  13.242  1.00  0.00     0.026 A 
HETATM    6  C8  UNL     1      36.661  -3.054  12.479  1.00  0.00     0.096 A 
ENDROOT
BRANCH   6   7
HETATM    7  S1  UNL     1      35.283  -3.443  11.480  1.00  0.00     0.277 S 
HETATM    8  O2  UNL     1      34.456  -2.198  11.288  1.00  0.00    -0.200 OA
HETATM    9  O3  UNL     1      35.749  -4.006  10.184  1.00  0.00    -0.200 OA
BRANCH   7  10
HETATM   10  N4  UNL     1      34.341  -4.621  12.343  1.00  0.00    -0.111 N 
ATOM     11  H4  UNL     1      33.891  -4.329  13.210  1.00  0.00     0.197 HD
BRANCH  10  12
HETATM   12  C9  UNL     1      34.174  -5.833  11.961  1.00  0.00     0.707 A 
HETATM   13  N5  UNL     1      35.047  -6.758  11.544  1.00  0.00    -0.185 N 
HETATM   14  C10 UNL     1      34.382  -7.905  11.244  1.00  0.00     0.215 A 
ATOM     15  H5  UNL     1      36.055  -6.623  11.463  1.00  0.00     0.185 HD
HETATM   16  N6  UNL     1      33.090  -7.633  11.496  1.00  0.00    -0.281 N 
HETATM   17  N7  UNL     1      32.958  -6.407  11.921  1.00  0.00    -0.130 N 
ATOM     18  H6  UNL     1      32.322  -8.293  11.372  1.00  0.00     0.188 HD
ATOM     19  H7  UNL     1      32.079  -5.959  12.179  1.00  0.00     0.205 HD
ENDBRANCH  10  12
ENDBRANCH   7  10
ENDBRANCH   6   7
BRANCH   1  20
HETATM   20  C2  UNL     1      36.717  -0.677  11.846  1.00  0.00     0.259 C 
HETATM   21  N3  UNL     1      35.919   0.265  12.599  1.00  0.00    -0.299 N 
HETATM   22  C1  UNL     1      36.513   1.255  13.141  1.00  0.00     0.203 C 
ATOM     23  H3  UNL     1      34.911   0.141  12.694  1.00  0.00     0.171 HD
HETATM   24  N1  UNL     1      35.740   2.195  13.889  1.00  0.00    -0.066 NA
HETATM   25  N2  UNL     1      37.898   1.417  13.009  1.00  0.00    -0.066 NA
HETATM   26  O1  UNL     1      36.915  -0.485  10.650  1.00  0.00    -0.267 OA
ENDBRANCH   1  20
TORSDOF 4
ENDMDL
MODEL 2
REMARK VINA RESULT: -7.799213036      3.389      4.454
REMARK  4 active torsions:
REMARK  status: ('A' for Active; 'I' for Inactive)
REMARK       I    between atoms: N3_4  and  C2_6 
REMARK    1  A    between atoms: C2_6  and  C3_8 
REMARK    2  A    between atoms: C8_13  and  S1_14 
REMARK    3  A    between atoms: S1_14  and  N4_17 
REMARK    4  A    between atoms: N4_17  and  C9_19 
ROOT
HETATM    1  C3  UNL     1      36.243  -4.305  12.847  1.00  0.00     0.055 A 
HETATM    2  C4  UNL     1      36.502  -3.060  13.451  1.00  0.00     0.018 A 
HETATM    3  C5  UNL     1      36.359  -1.888  12.783  1.00  0.00     0.001 A 
HETATM    4  C6  UNL     1      35.949  -1.941  11.475  1.00  0.00     0.002 A 
HETATM    5  C7  UNL     1      35.693  -3.131  10.867  1.00  0.00     0.026 A 
HETATM    6  C8  UNL     1      35.832  -4.360  11.535  1.00  0.00     0.096 A 
ENDROOT
BRANCH   6   7
HETATM    7  S1  UNL     1      35.473  -5.826  10.656  1.00  0.00     0.277 S 
HETATM    8  O2  UNL     1      35.289  -5.487   9.200  1.00  0.00    -0.200 OA
HETATM    9  O3  UNL     1      36.568  -6.812  10.863  1.00  0.00    -0.200 OA
BRANCH   7  10
HETATM   10  N4  UNL     1      33.978  -6.448  11.287  1.00  0.00    -0.111 N 
ATOM     11  H4  UNL     1      33.178  -5.816  11.327  1.00  0.00     0.197 HD
BRANCH  10  12
HETATM   12  C9  UNL     1      33.814  -7.649  11.704  1.00  0.00     0.707 A 
HETATM   13  N5  UNL     1      33.993  -8.829  11.099  1.00  0.00    -0.185 N 
HETATM   14  C10 UNL     1      33.681  -9.832  11.962  1.00  0.00     0.215 A 
ATOM     15  H5  UNL     1      34.314  -8.956  10.139  1.00  0.00     0.185 HD
HETATM   16  N6  UNL     1      33.312  -9.212  13.096  1.00  0.00    -0.281 N 
HETATM   17  N7  UNL     1      33.387  -7.918  12.951  1.00  0.00    -0.130 N 
ATOM     18  H6  UNL     1      33.014  -9.687  13.948  1.00  0.00     0.188 HD
ATOM     19  H7  UNL     1      33.161  -7.226  13.665  1.00  0.00     0.205 HD
ENDBRANCH  10  12
ENDBRANCH   7  10
ENDBRANCH   6   7
BRANCH   1  20
HETATM   20  C2  UNL     1      36.424  -5.509  13.629  1.00  0.00     0.259 C 
HETATM   21  N3  UNL     1      37.734  -6.120  13.568  1.00  0.00    -0.299 N 
HETATM   22  C1  UNL     1      38.600  -5.767  14.436  1.00  0.00     0.203 C 
ATOM     23  H3  UNL     1      37.958  -6.811  12.853  1.00  0.00     0.171 HD
HETATM   24  N1  UNL     1      39.898  -6.361  14.390  1.00  0.00    -0.066 NA
HETATM   25  N2  UNL     1      38.287  -4.815  15.414  1.00  0.00    -0.066 NA
HETATM   26  O1  UNL     1      35.547  -6.019  14.319  1.00  0.00    -0.267 OA
ENDBRANCH   1  20
TORSDOF 4
ENDMDL
MODEL 3
REMARK VINA RESULT: -7.794241822      2.670      6.994
REMARK  4 active torsions:
REMARK  status: ('A' for Active; 'I' for Inactive)
REMARK       I    between atoms: N3_4  and  C2_6 
REMARK    1  A    between atoms: C2_6  and  C3_8 
REMARK    2  A    between atoms: C8_13  and  S1_14 
REMARK    3  A    between atoms: S1_14  and  N4_17 
REMARK    4  A    between atoms: N4_17  and  C9_19 
ROOT
HETATM    1  C3  UNL     1      36.257  -7.304  10.480  1.00  0.00     0.055 A 
HETATM    2  C4  UNL     1      36.504  -8.150   9.382  1.00  0.00     0.018 A 
HETATM    3  C5  UNL     1      36.344  -7.738   8.099  1.00  0.00     0.001 A 
HETATM    4  C6  UNL     1      35.926  -6.448   7.888  1.00  0.00     0.002 A 
HETATM    5  C7  UNL     1      35.679  -5.609   8.930  1.00  0.00     0.026 A 
HETATM    6  C8  UNL     1      35.837  -6.010  10.269  1.00  0.00     0.096 A 
ENDROOT
BRANCH   6   7
HETATM    7  S1  UNL     1      35.495  -4.848  11.527  1.00  0.00     0.277 S 
HETATM    8  O2  UNL     1      34.136  -5.147  12.107  1.00  0.00    -0.200 OA
HETATM    9  O3  UNL     1      36.564  -4.903  12.560  1.00  0.00    -0.200 OA
BRANCH   7  10
HETATM   10  N4  UNL     1      35.460  -3.280  10.781  1.00  0.00    -0.111 N 
ATOM     11  H4  UNL     1      35.115  -3.215   9.823  1.00  0.00     0.197 HD
BRANCH  10  12
HETATM   12  C9  UNL     1      35.840  -2.198  11.354  1.00  0.00     0.707 A 
HETATM   13  N5  UNL     1      36.465  -1.115  10.876  1.00  0.00    -0.185 N 
HETATM   14  C10 UNL     1      36.657  -0.223  11.883  1.00  0.00     0.215 A 
ATOM     15  H5  UNL     1      36.752  -0.981   9.906  1.00  0.00     0.185 HD
HETATM   16  N6  UNL     1      36.129  -0.808  12.971  1.00  0.00    -0.281 N 
HETATM   17  N7  UNL     1      35.643  -1.979  12.666  1.00  0.00    -0.130 N 
ATOM     18  H6  UNL     1      36.110  -0.394  13.903  1.00  0.00     0.188 HD
ATOM     19  H7  UNL     1      35.189  -2.621  13.315  1.00  0.00     0.205 HD
ENDBRANCH  10  12
ENDBRANCH   7  10
ENDBRANCH   6   7
BRANCH   1  20
HETATM   20  C2  UNL     1      36.446  -7.823  11.816  1.00  0.00     0.259 C 
HETATM   21  N3  UNL     1      35.302  -7.754  12.698  1.00  0.00    -0.299 N 
HETATM   22  C1  UNL     1      34.509  -8.752  12.730  1.00  0.00     0.203 C 
ATOM     23  H3  UNL     1      35.135  -6.931  13.276  1.00  0.00     0.171 HD
HETATM   24  N1  UNL     1      33.374  -8.700  13.596  1.00  0.00    -0.066 NA
HETATM   25  N2  UNL     1      34.743  -9.878  11.930  1.00  0.00    -0.066 NA
HETATM   26  O1  UNL     1      37.499  -8.306  12.222  1.00  0.00    -0.267 OA
ENDBRANCH   1  20
TORSDOF 4
ENDMDL
MODEL 4
REMARK VINA RESULT: -7.670848150      1.870      2.329
REMARK  4 active torsions:
REMARK  status: ('A' for Active; 'I' for Inactive)
REMARK       I    between atoms: N3_4  and  C2_6 
REMARK    1  A    between atoms: C2_6  and  C3_8 
REMARK    2  A    between atoms: C8_13  and  S1_14 
REMARK    3  A    between atoms: S1_14  and  N4_17 
REMARK    4  A    between atoms: N4_17  and  C9_19 
ROOT
HETATM    1  C3  UNL     1      38.180  -0.871  12.525  1.00  0.00     0.055 A 
HETATM    2  C4  UNL     1      39.389  -0.147  12.526  1.00  0.00     0.018 A 
HETATM    3  C5  UNL     1      40.545  -0.671  13.004  1.00  0.00     0.001 A 
HETATM    4  C6  UNL     1      40.514  -1.951  13.498  1.00  0.00     0.002 A 
HETATM    5  C7  UNL     1      39.360  -2.672  13.509  1.00  0.00     0.026 A 
HETATM    6  C8  UNL     1      38.148  -2.154  13.021  1.00  0.00     0.096 A 
ENDROOT
BRANCH   6   7
HETATM    7  S1  UNL     1      36.729  -3.170  13.082  1.00  0.00     0.277 S 
HETATM    8  O2  UNL     1      37.108  -4.497  13.688  1.00  0.00    -0.200 OA
HETATM    9  O3  UNL     1      35.661  -2.488  13.862  1.00  0.00    -0.200 OA
BRANCH   7  10
HETATM   10  N4  UNL     1      36.209  -3.423  11.444  1.00  0.00    -0.111 N 
ATOM     11  H4  UNL     1      36.213  -2.621  10.814  1.00  0.00     0.197 HD
BRANCH  10  12
HETATM   12  C9  UNL     1      35.819  -4.550  10.975  1.00  0.00     0.707 A 
HETATM   13  N5  UNL     1      35.659  -5.744  11.559  1.00  0.00    -0.185 N 
HETATM   14  C10 UNL     1      35.223  -6.643  10.637  1.00  0.00     0.215 A 
ATOM     15  H5  UNL     1      35.835  -5.947  12.543  1.00  0.00     0.185 HD
HETATM   16  N6  UNL     1      35.131  -5.949   9.491  1.00  0.00    -0.281 N 
HETATM   17  N7  UNL     1      35.483  -4.708   9.682  1.00  0.00    -0.130 N 
ATOM     18  H6  UNL     1      34.828  -6.337   8.597  1.00  0.00     0.188 HD
ATOM     19  H7  UNL     1      35.500  -3.977   8.970  1.00  0.00     0.205 HD
ENDBRANCH  10  12
ENDBRANCH   7  10
ENDBRANCH   6   7
BRANCH   1  20
HETATM   20  C2  UNL     1      36.990  -0.237  12.002  1.00  0.00     0.259 C 
HETATM   21  N3  UNL     1      36.185   0.496  12.954  1.00  0.00    -0.299 N 
HETATM   22  C1  UNL     1      36.429   1.737  13.116  1.00  0.00     0.203 C 
ATOM     23  H3  UNL     1      35.444   0.033  13.480  1.00  0.00     0.171 HD
HETATM   24  N1  UNL     1      35.643   2.475  14.053  1.00  0.00    -0.066 NA
HETATM   25  N2  UNL     1      37.450   2.365  12.393  1.00  0.00    -0.066 NA
HETATM   26  O1  UNL     1      36.644  -0.290  10.826  1.00  0.00    -0.267 OA
ENDBRANCH   1  20
TORSDOF 4
ENDMDL
MODEL 5
REMARK VINA RESULT: -7.448403444      2.863      7.303
REMARK  4 active torsions:
REMARK  status: ('A' for Active; 'I' for Inactive)
REMARK       I    between atoms: N3_4  and  C2_6 
REMARK    1  A    between atoms: C2_6  and  C3_8 
REMARK    2  A    between atoms: C8_13  and  S1_14 
REMARK    3  A    between atoms: S1_14  and  N4_17 
REMARK    4  A    between atoms: N4_17  and  C9_19 
ROOT
HETATM    1  C3  UNL     1      35.946  -7.595  10.242  1.00  0.00     0.055 A 
HETATM    2  C4  UNL     1      36.327  -8.050   8.965  1.00  0.00     0.018 A 
HETATM    3  C5  UNL     1      36.280  -7.253   7.868  1.00  0.00     0.001 A 
HETATM    4  C6  UNL     1      35.843  -5.962   8.032  1.00  0.00     0.002 A 
HETATM    5  C7  UNL     1      35.468  -5.497   9.254  1.00  0.00     0.026 A 
HETATM    6  C8  UNL     1      35.507  -6.300  10.407  1.00  0.00     0.096 A 
ENDROOT
BRANCH   6   7
HETATM    7  S1  UNL     1      35.005  -5.597  11.924  1.00  0.00     0.277 S 
HETATM    8  O2  UNL     1      33.572  -5.980  12.187  1.00  0.00    -0.200 OA
HETATM    9  O3  UNL     1      35.911  -6.058  13.011  1.00  0.00    -0.200 OA
BRANCH   7  10
HETATM   10  N4  UNL     1      35.108  -3.872  11.748  1.00  0.00    -0.111 N 
ATOM     11  H4  UNL     1      34.542  -3.432  11.022  1.00  0.00     0.197 HD
BRANCH  10  12
HETATM   12  C9  UNL     1      35.848  -3.114  12.470  1.00  0.00     0.707 A 
HETATM   13  N5  UNL     1      36.840  -2.276  12.145  1.00  0.00    -0.185 N 
HETATM   14  C10 UNL     1      37.326  -1.692  13.272  1.00  0.00     0.215 A 
ATOM     15  H5  UNL     1      37.178  -2.102  11.198  1.00  0.00     0.185 HD
HETATM   16  N6  UNL     1      36.594  -2.209  14.274  1.00  0.00    -0.281 N 
HETATM   17  N7  UNL     1      35.717  -3.053  13.807  1.00  0.00    -0.130 N 
ATOM     18  H6  UNL     1      36.710  -1.974  15.260  1.00  0.00     0.188 HD
ATOM     19  H7  UNL     1      35.043  -3.579  14.364  1.00  0.00     0.205 HD
ENDBRANCH  10  12
ENDBRANCH   7  10
ENDBRANCH   6   7
BRANCH   1  20
HETATM   20  C2  UNL     1      36.020  -8.511  11.358  1.00  0.00     0.259 C 
HETATM   21  N3  UNL     1      34.780  -8.774  12.054  1.00  0.00    -0.299 N 
HETATM   22  C1  UNL     1      34.070  -9.759  11.661  1.00  0.00     0.203 C 
ATOM     23  H3  UNL     1      34.482  -8.189  12.834  1.00  0.00     0.171 HD
HETATM   24  N1  UNL     1      32.842 -10.033  12.338  1.00  0.00    -0.066 NA
HETATM   25  N2  UNL     1      34.484 -10.556  10.587  1.00  0.00    -0.066 NA
HETATM   26  O1  UNL     1      37.054  -9.058  11.730  1.00  0.00    -0.267 OA
ENDBRANCH   1  20
TORSDOF 4
ENDMDL
