MODEL 1
REMARK VINA RESULT: -7.230426460      0.000      0.000
REMARK  16 active torsions:
REMARK  status: ('A' for Active; 'I' for Inactive)
REMARK    1  A    between atoms: C2_2  and  C3_3 
REMARK    2  A    between atoms: C3_3  and  C4_4 
REMARK    3  A    between atoms: C4_4  and  N1_5 
REMARK    4  A    between atoms: C4_4  and  C5_9 
REMARK    5  A    between atoms: C8_15  and  C9_16 
REMARK    6  A    between atoms: C9_16  and  C10_17 
REMARK    7  A    between atoms: C14_24  and  C15_25 
REMARK    8  A    between atoms: C19_32  and  C20_33 
REMARK    9  A    between atoms: C20_33  and  C21_34 
REMARK   10  A    between atoms: N6_41  and  C25_42 
REMARK   11  A    between atoms: C25_42  and  C26_43 
REMARK   12  A    between atoms: C26_43  and  C27_44 
REMARK   13  A    between atoms: C27_44  and  C28_45 
REMARK   14  A    between atoms: C28_45  and  C29_46 
REMARK   15  A    between atoms: C29_46  and  C30_47 
REMARK   16  A    between atoms: C30_47  and  S1_48 
ROOT
HETATM    1  C5  UNL     1       3.808   5.018  -5.705  1.00  0.00     0.118 C 
HETATM    2  C6  UNL     1       4.720   3.881  -5.562  1.00  0.00     0.119 C 
HETATM    3  C7  UNL     1       4.224   2.588  -5.125  1.00  0.00     0.219 C 
HETATM    4  O1  UNL     1       3.878   2.481  -3.885  1.00  0.00    -0.274 OA
HETATM    5  N2  UNL     1       4.108   1.464  -5.978  1.00  0.00    -0.348 N 
ATOM      6  H2  UNL     1       3.909   0.570  -5.529  1.00  0.00     0.163 HD
HETATM    7  C8  UNL     1       4.239   1.449  -7.403  1.00  0.00     0.177 C 
HETATM    8  C13 UNL     1       2.966   0.918  -8.042  1.00  0.00     0.241 C 
HETATM    9  O2  UNL     1       3.128  -0.197  -8.659  1.00  0.00    -0.271 OA
HETATM   10  N3  UNL     1       1.715   1.471  -8.036  1.00  0.00    -0.346 N 
ATOM     11  H3  UNL     1       0.972   0.853  -7.710  1.00  0.00     0.163 HD
HETATM   12  C14 UNL     1       1.277   2.819  -8.425  1.00  0.00     0.180 C 
HETATM   13  C18 UNL     1      -0.091   3.072  -7.927  1.00  0.00     0.245 C 
HETATM   14  O3  UNL     1      -0.871   2.048  -8.088  1.00  0.00    -0.271 OA
HETATM   15  N4  UNL     1      -0.666   4.192  -7.330  1.00  0.00    -0.324 N 
ATOM     16  H4  UNL     1      -1.484   4.549  -7.823  1.00  0.00     0.169 HD
HETATM   17  C19 UNL     1      -0.328   4.931  -6.165  1.00  0.00     0.082 C 
HETATM   18  C24 UNL     1       0.341   4.132  -5.129  1.00  0.00     0.282 C 
HETATM   19  O4  UNL     1       0.228   2.858  -5.310  1.00  0.00    -0.265 OA
HETATM   20  N5  UNL     1       1.067   4.471  -3.995  1.00  0.00    -0.260 N 
ATOM     21  H5  UNL     1       0.750   3.979  -3.160  1.00  0.00     0.190 HD
HETATM   22  N6  UNL     1       2.122   5.324  -3.748  1.00  0.00    -0.258 N 
HETATM   23  C32 UNL     1       3.253   5.674  -4.519  1.00  0.00     0.244 C 
HETATM   24  O5  UNL     1       3.936   6.719  -4.174  1.00  0.00    -0.271 OA
ENDROOT
BRANCH   1  25
HETATM   25  C4  UNL     1       4.398   6.005  -6.720  1.00  0.00     0.197 C 
BRANCH  25  26
HETATM   26  C3  UNL     1       5.509   5.483  -7.531  1.00  0.00     0.033 C 
BRANCH  26  27
HETATM   27  C2  UNL     1       5.162   4.993  -8.907  1.00  0.00    -0.002 C 
HETATM   28  C1  UNL     1       6.225   5.088  -9.945  1.00  0.00     0.005 C 
ENDBRANCH  26  27
ENDBRANCH  25  26
BRANCH  25  29
HETATM   29  N1  UNL     1       3.361   6.588  -7.481  1.00  0.00    -0.074 N 
ATOM     30  H13 UNL     1       3.591   7.552  -7.722  1.00  0.00     0.274 HD
ATOM     31  H12 UNL     1       3.329   6.181  -8.417  1.00  0.00     0.274 HD
ATOM     32  H11 UNL     1       2.445   6.538  -7.036  1.00  0.00     0.274 HD
ENDBRANCH  25  29
ENDBRANCH   1  25
BRANCH  22  33
HETATM   33  C25 UNL     1       2.075   6.006  -2.430  1.00  0.00     0.152 C 
BRANCH  33  34
HETATM   34  C26 UNL     1       0.868   5.637  -1.643  1.00  0.00     0.022 C 
BRANCH  34  35
HETATM   35  C27 UNL     1      -0.311   6.529  -1.957  1.00  0.00     0.002 C 
BRANCH  35  36
HETATM   36  C28 UNL     1      -1.599   5.785  -1.996  1.00  0.00     0.001 C 
BRANCH  36  37
HETATM   37  C29 UNL     1      -2.689   6.575  -1.337  1.00  0.00     0.010 C 
BRANCH  37  38
HETATM   38  C30 UNL     1      -4.016   6.378  -1.995  1.00  0.00     0.073 C 
BRANCH  38  39
HETATM   39  S1  UNL     1      -4.719   8.050  -2.252  1.00  0.00    -0.173 SA
HETATM   40  C31 UNL     1      -3.343   9.225  -2.303  1.00  0.00     0.089 C 
ENDBRANCH  38  39
ENDBRANCH  37  38
ENDBRANCH  36  37
ENDBRANCH  35  36
ENDBRANCH  34  35
ENDBRANCH  33  34
ENDBRANCH  22  33
BRANCH   7  41
HETATM   41  C9  UNL     1       5.352   0.547  -7.811  1.00  0.00     0.038 C 
BRANCH  41  42
HETATM   42  C10 UNL     1       6.516   1.052  -8.534  1.00  0.00    -0.020 C 
HETATM   43  C11 UNL     1       7.337   2.109  -7.886  1.00  0.00     0.009 C 
HETATM   44  C12 UNL     1       6.295   1.430  -9.985  1.00  0.00     0.009 C 
ENDBRANCH  41  42
ENDBRANCH   7  41
BRANCH  17  45
HETATM   45  C20 UNL     1       0.207   6.279  -6.421  1.00  0.00     0.067 C 
BRANCH  45  46
HETATM   46  C21 UNL     1      -0.168   7.357  -5.501  1.00  0.00    -0.017 C 
HETATM   47  C22 UNL     1      -1.576   7.708  -5.266  1.00  0.00     0.010 C 
HETATM   48  C23 UNL     1       0.503   8.644  -6.039  1.00  0.00     0.010 C 
ENDBRANCH  45  46
ENDBRANCH  17  45
BRANCH  12  49
HETATM   49  C15 UNL     1       1.203   2.779  -9.947  1.00  0.00     0.009 C 
HETATM   50  C16 UNL     1       2.432   3.246 -10.639  1.00  0.00     0.012 C 
HETATM   51  C17 UNL     1       0.031   3.562 -10.488  1.00  0.00     0.012 C 
ENDBRANCH  12  49
TORSDOF 16
ENDMDL
MODEL 2
REMARK VINA RESULT: -6.875090917      2.276      4.893
REMARK  16 active torsions:
REMARK  status: ('A' for Active; 'I' for Inactive)
REMARK    1  A    between atoms: C2_2  and  C3_3 
REMARK    2  A    between atoms: C3_3  and  C4_4 
REMARK    3  A    between atoms: C4_4  and  N1_5 
REMARK    4  A    between atoms: C4_4  and  C5_9 
REMARK    5  A    between atoms: C8_15  and  C9_16 
REMARK    6  A    between atoms: C9_16  and  C10_17 
REMARK    7  A    between atoms: C14_24  and  C15_25 
REMARK    8  A    between atoms: C19_32  and  C20_33 
REMARK    9  A    between atoms: C20_33  and  C21_34 
REMARK   10  A    between atoms: N6_41  and  C25_42 
REMARK   11  A    between atoms: C25_42  and  C26_43 
REMARK   12  A    between atoms: C26_43  and  C27_44 
REMARK   13  A    between atoms: C27_44  and  C28_45 
REMARK   14  A    between atoms: C28_45  and  C29_46 
REMARK   15  A    between atoms: C29_46  and  C30_47 
REMARK   16  A    between atoms: C30_47  and  S1_48 
ROOT
HETATM    1  C5  UNL     1       2.215   3.360  -5.342  1.00  0.00     0.118 C 
HETATM    2  C6  UNL     1       0.992   2.581  -5.545  1.00  0.00     0.119 C 
HETATM    3  C7  UNL     1       0.190   2.765  -6.742  1.00  0.00     0.219 C 
HETATM    4  O1  UNL     1      -0.483   3.864  -6.833  1.00  0.00    -0.274 OA
HETATM    5  N2  UNL     1       0.112   1.814  -7.787  1.00  0.00    -0.348 N 
ATOM      6  H2  UNL     1      -0.607   1.972  -8.494  1.00  0.00     0.163 HD
HETATM    7  C8  UNL     1       0.934   0.655  -7.958  1.00  0.00     0.177 C 
HETATM    8  C13 UNL     1       1.650   0.713  -9.298  1.00  0.00     0.241 C 
HETATM    9  O2  UNL     1       1.291  -0.213 -10.112  1.00  0.00    -0.271 OA
HETATM   10  N3  UNL     1       2.597   1.604  -9.719  1.00  0.00    -0.346 N 
ATOM     11  H3  UNL     1       2.392   2.066 -10.605  1.00  0.00     0.163 HD
HETATM   12  C14 UNL     1       3.867   2.000  -9.092  1.00  0.00     0.180 C 
HETATM   13  C18 UNL     1       4.384   3.232  -9.724  1.00  0.00     0.245 C 
HETATM   14  O3  UNL     1       4.259   3.212 -11.015  1.00  0.00    -0.271 OA
HETATM   15  N4  UNL     1       4.964   4.377  -9.182  1.00  0.00    -0.324 N 
ATOM     16  H4  UNL     1       5.893   4.582  -9.547  1.00  0.00     0.169 HD
HETATM   17  C19 UNL     1       4.506   5.313  -8.217  1.00  0.00     0.082 C 
HETATM   18  C24 UNL     1       3.043   5.458  -8.179  1.00  0.00     0.282 C 
HETATM   19  O4  UNL     1       2.451   4.964  -9.216  1.00  0.00    -0.265 OA
HETATM   20  N5  UNL     1       2.172   6.020  -7.256  1.00  0.00    -0.260 N 
ATOM     21  H5  UNL     1       1.510   6.669  -7.680  1.00  0.00     0.190 HD
HETATM   22  N6  UNL     1       2.004   5.895  -5.892  1.00  0.00    -0.258 N 
HETATM   23  C32 UNL     1       2.137   4.788  -5.024  1.00  0.00     0.244 C 
HETATM   24  O5  UNL     1       2.206   5.009  -3.749  1.00  0.00    -0.271 OA
ENDROOT
BRANCH   1  25
HETATM   25  C4  UNL     1       3.151   2.585  -4.408  1.00  0.00     0.197 C 
BRANCH  25  26
HETATM   26  C3  UNL     1       3.457   1.208  -4.826  1.00  0.00     0.033 C 
BRANCH  26  27
HETATM   27  C2  UNL     1       4.771   0.995  -5.522  1.00  0.00    -0.002 C 
HETATM   28  C1  UNL     1       5.542  -0.223  -5.149  1.00  0.00     0.005 C 
ENDBRANCH  26  27
ENDBRANCH  25  26
BRANCH  25  29
HETATM   29  N1  UNL     1       4.296   3.361  -4.120  1.00  0.00    -0.074 N 
ATOM     30  H13 UNL     1       4.811   2.964  -3.334  1.00  0.00     0.274 HD
ATOM     31  H12 UNL     1       4.996   3.254  -4.855  1.00  0.00     0.274 HD
ATOM     32  H11 UNL     1       4.094   4.347  -3.956  1.00  0.00     0.274 HD
ENDBRANCH  25  29
ENDBRANCH   1  25
BRANCH  22  33
HETATM   33  C25 UNL     1       1.606   7.144  -5.197  1.00  0.00     0.152 C 
BRANCH  33  34
HETATM   34  C26 UNL     1       0.560   7.897  -5.938  1.00  0.00     0.022 C 
BRANCH  34  35
HETATM   35  C27 UNL     1      -0.826   7.629  -5.398  1.00  0.00     0.002 C 
BRANCH  35  36
HETATM   36  C28 UNL     1      -1.588   8.878  -5.125  1.00  0.00     0.001 C 
BRANCH  36  37
HETATM   37  C29 UNL     1      -2.365   8.756  -3.850  1.00  0.00     0.010 C 
BRANCH  37  38
HETATM   38  C30 UNL     1      -2.546   7.336  -3.423  1.00  0.00     0.073 C 
BRANCH  38  39
HETATM   39  S1  UNL     1      -2.476   7.332  -1.593  1.00  0.00    -0.173 SA
HETATM   40  C31 UNL     1      -4.178   7.307  -0.976  1.00  0.00     0.089 C 
ENDBRANCH  38  39
ENDBRANCH  37  38
ENDBRANCH  36  37
ENDBRANCH  35  36
ENDBRANCH  34  35
ENDBRANCH  33  34
ENDBRANCH  22  33
BRANCH   7  41
HETATM   41  C9  UNL     1       0.099  -0.579  -7.953  1.00  0.00     0.038 C 
BRANCH  41  42
HETATM   42  C10 UNL     1       0.377  -1.683  -7.038  1.00  0.00    -0.020 C 
HETATM   43  C11 UNL     1       0.891  -1.356  -5.682  1.00  0.00     0.009 C 
HETATM   44  C12 UNL     1       1.188  -2.833  -7.601  1.00  0.00     0.009 C 
ENDBRANCH  41  42
ENDBRANCH   7  41
BRANCH  17  45
HETATM   45  C20 UNL     1       5.207   5.262  -6.924  1.00  0.00     0.067 C 
BRANCH  45  46
HETATM   46  C21 UNL     1       6.581   5.769  -6.863  1.00  0.00    -0.017 C 
HETATM   47  C22 UNL     1       7.097   6.709  -7.868  1.00  0.00     0.010 C 
HETATM   48  C23 UNL     1       7.507   4.529  -6.930  1.00  0.00     0.010 C 
ENDBRANCH  45  46
ENDBRANCH  17  45
BRANCH  12  49
HETATM   49  C15 UNL     1       4.837   0.875  -9.434  1.00  0.00     0.009 C 
HETATM   50  C16 UNL     1       4.497  -0.439  -8.831  1.00  0.00     0.012 C 
HETATM   51  C17 UNL     1       6.261   1.211  -9.062  1.00  0.00     0.012 C 
ENDBRANCH  12  49
TORSDOF 16
ENDMDL
MODEL 3
REMARK VINA RESULT: -6.869446167      2.368      4.984
REMARK  16 active torsions:
REMARK  status: ('A' for Active; 'I' for Inactive)
REMARK    1  A    between atoms: C2_2  and  C3_3 
REMARK    2  A    between atoms: C3_3  and  C4_4 
REMARK    3  A    between atoms: C4_4  and  N1_5 
REMARK    4  A    between atoms: C4_4  and  C5_9 
REMARK    5  A    between atoms: C8_15  and  C9_16 
REMARK    6  A    between atoms: C9_16  and  C10_17 
REMARK    7  A    between atoms: C14_24  and  C15_25 
REMARK    8  A    between atoms: C19_32  and  C20_33 
REMARK    9  A    between atoms: C20_33  and  C21_34 
REMARK   10  A    between atoms: N6_41  and  C25_42 
REMARK   11  A    between atoms: C25_42  and  C26_43 
REMARK   12  A    between atoms: C26_43  and  C27_44 
REMARK   13  A    between atoms: C27_44  and  C28_45 
REMARK   14  A    between atoms: C28_45  and  C29_46 
REMARK   15  A    between atoms: C29_46  and  C30_47 
REMARK   16  A    between atoms: C30_47  and  S1_48 
ROOT
HETATM    1  C5  UNL     1       1.728   2.323  -6.780  1.00  0.00     0.118 C 
HETATM    2  C6  UNL     1       1.339   1.649  -8.021  1.00  0.00     0.119 C 
HETATM    3  C7  UNL     1       1.243   2.392  -9.264  1.00  0.00     0.219 C 
HETATM    4  O1  UNL     1       0.249   3.209  -9.384  1.00  0.00    -0.274 OA
HETATM    5  N2  UNL     1       2.166   2.262 -10.329  1.00  0.00    -0.348 N 
ATOM      6  H2  UNL     1       1.908   2.702 -11.213  1.00  0.00     0.163 HD
HETATM    7  C8  UNL     1       3.423   1.577 -10.298  1.00  0.00     0.177 C 
HETATM    8  C13 UNL     1       4.551   2.535 -10.649  1.00  0.00     0.241 C 
HETATM    9  O2  UNL     1       5.148   2.243 -11.747  1.00  0.00    -0.271 OA
HETATM   10  N3  UNL     1       4.984   3.630  -9.955  1.00  0.00    -0.346 N 
ATOM     11  H3  UNL     1       5.028   4.494 -10.495  1.00  0.00     0.163 HD
HETATM   12  C14 UNL     1       5.397   3.755  -8.549  1.00  0.00     0.180 C 
HETATM   13  C18 UNL     1       5.451   5.180  -8.160  1.00  0.00     0.245 C 
HETATM   14  O3  UNL     1       5.990   5.921  -9.078  1.00  0.00    -0.271 OA
HETATM   15  N4  UNL     1       5.031   5.840  -7.007  1.00  0.00    -0.324 N 
ATOM     16  H4  UNL     1       5.772   6.360  -6.536  1.00  0.00     0.169 HD
HETATM   17  C19 UNL     1       3.769   5.927  -6.363  1.00  0.00     0.082 C 
HETATM   18  C24 UNL     1       2.626   5.798  -7.279  1.00  0.00     0.282 C 
HETATM   19  O4  UNL     1       2.946   5.945  -8.522  1.00  0.00    -0.265 OA
HETATM   20  N5  UNL     1       1.275   5.554  -7.077  1.00  0.00    -0.260 N 
ATOM     21  H5  UNL     1       0.675   6.220  -7.564  1.00  0.00     0.190 HD
HETATM   22  N6  UNL     1       0.564   4.612  -6.363  1.00  0.00    -0.258 N 
HETATM   23  C32 UNL     1       0.800   3.241  -6.115  1.00  0.00     0.244 C 
HETATM   24  O5  UNL     1       0.128   2.659  -5.173  1.00  0.00    -0.271 OA
ENDROOT
BRANCH   1  25
HETATM   25  C4  UNL     1       2.345   1.293  -5.826  1.00  0.00     0.197 C 
BRANCH  25  26
HETATM   26  C3  UNL     1       2.113  -0.115  -6.185  1.00  0.00     0.033 C 
BRANCH  26  27
HETATM   27  C2  UNL     1       1.131  -0.870  -5.337  1.00  0.00    -0.002 C 
HETATM   28  C1  UNL     1       1.146  -0.589  -3.875  1.00  0.00     0.005 C 
ENDBRANCH  26  27
ENDBRANCH  25  26
BRANCH  25  29
HETATM   29  N1  UNL     1       3.702   1.605  -5.593  1.00  0.00    -0.074 N 
ATOM     30  H13 UNL     1       4.034   2.294  -6.268  1.00  0.00     0.274 HD
ATOM     31  H12 UNL     1       3.804   2.145  -4.733  1.00  0.00     0.274 HD
ATOM     32  H11 UNL     1       4.316   0.790  -5.580  1.00  0.00     0.274 HD
ENDBRANCH  25  29
ENDBRANCH   1  25
BRANCH  22  33
HETATM   33  C25 UNL     1      -0.685   5.116  -5.739  1.00  0.00     0.152 C 
BRANCH  33  34
HETATM   34  C26 UNL     1      -0.706   6.598  -5.629  1.00  0.00     0.022 C 
BRANCH  34  35
HETATM   35  C27 UNL     1      -1.254   7.064  -4.299  1.00  0.00     0.002 C 
BRANCH  35  36
HETATM   36  C28 UNL     1      -1.999   8.348  -4.403  1.00  0.00     0.001 C 
BRANCH  36  37
HETATM   37  C29 UNL     1      -2.711   8.654  -3.120  1.00  0.00     0.010 C 
BRANCH  37  38
HETATM   38  C30 UNL     1      -2.493   7.602  -2.081  1.00  0.00     0.073 C 
BRANCH  38  39
HETATM   39  S1  UNL     1      -4.135   7.253  -1.348  1.00  0.00    -0.173 SA
HETATM   40  C31 UNL     1      -5.281   8.526  -1.930  1.00  0.00     0.089 C 
ENDBRANCH  38  39
ENDBRANCH  37  38
ENDBRANCH  36  37
ENDBRANCH  35  36
ENDBRANCH  34  35
ENDBRANCH  33  34
ENDBRANCH  22  33
BRANCH   7  41
HETATM   41  C9  UNL     1       3.441   0.480 -11.305  1.00  0.00     0.038 C 
BRANCH  41  42
HETATM   42  C10 UNL     1       3.292  -0.918 -10.911  1.00  0.00    -0.020 C 
HETATM   43  C11 UNL     1       2.106  -1.663 -11.411  1.00  0.00     0.009 C 
HETATM   44  C12 UNL     1       3.472  -1.224  -9.438  1.00  0.00     0.009 C 
ENDBRANCH  41  42
ENDBRANCH   7  41
BRANCH  17  45
HETATM   45  C20 UNL     1       3.679   5.215  -5.077  1.00  0.00     0.067 C 
BRANCH  45  46
HETATM   46  C21 UNL     1       3.127   5.935  -3.926  1.00  0.00    -0.017 C 
HETATM   47  C22 UNL     1       1.969   5.419  -3.183  1.00  0.00     0.010 C 
HETATM   48  C23 UNL     1       2.707   7.333  -4.445  1.00  0.00     0.010 C 
ENDBRANCH  45  46
ENDBRANCH  17  45
BRANCH  12  49
HETATM   49  C15 UNL     1       6.825   3.222  -8.515  1.00  0.00     0.009 C 
HETATM   50  C16 UNL     1       6.935   1.742  -8.570  1.00  0.00     0.012 C 
HETATM   51  C17 UNL     1       7.591   3.708  -7.308  1.00  0.00     0.012 C 
ENDBRANCH  12  49
TORSDOF 16
ENDMDL
MODEL 4
REMARK VINA RESULT: -6.858211247      2.350      4.639
REMARK  16 active torsions:
REMARK  status: ('A' for Active; 'I' for Inactive)
REMARK    1  A    between atoms: C2_2  and  C3_3 
REMARK    2  A    between atoms: C3_3  and  C4_4 
REMARK    3  A    between atoms: C4_4  and  N1_5 
REMARK    4  A    between atoms: C4_4  and  C5_9 
REMARK    5  A    between atoms: C8_15  and  C9_16 
REMARK    6  A    between atoms: C9_16  and  C10_17 
REMARK    7  A    between atoms: C14_24  and  C15_25 
REMARK    8  A    between atoms: C19_32  and  C20_33 
REMARK    9  A    between atoms: C20_33  and  C21_34 
REMARK   10  A    between atoms: N6_41  and  C25_42 
REMARK   11  A    between atoms: C25_42  and  C26_43 
REMARK   12  A    between atoms: C26_43  and  C27_44 
REMARK   13  A    between atoms: C27_44  and  C28_45 
REMARK   14  A    between atoms: C28_45  and  C29_46 
REMARK   15  A    between atoms: C29_46  and  C30_47 
REMARK   16  A    between atoms: C30_47  and  S1_48 
ROOT
HETATM    1  C5  UNL     1       2.172   1.775  -6.586  1.00  0.00     0.118 C 
HETATM    2  C6  UNL     1       1.864   0.754  -7.589  1.00  0.00     0.119 C 
HETATM    3  C7  UNL     1       1.591   1.130  -8.965  1.00  0.00     0.219 C 
HETATM    4  O1  UNL     1       0.463   1.715  -9.200  1.00  0.00    -0.274 OA
HETATM    5  N2  UNL     1       2.483   0.886 -10.037  1.00  0.00    -0.348 N 
ATOM      6  H2  UNL     1       2.118   1.038 -10.977  1.00  0.00     0.163 HD
HETATM    7  C8  UNL     1       3.843   0.448  -9.941  1.00  0.00     0.177 C 
HETATM    8  C13 UNL     1       4.767   1.456 -10.604  1.00  0.00     0.241 C 
HETATM    9  O2  UNL     1       5.366   0.996 -11.643  1.00  0.00    -0.271 OA
HETATM   10  N3  UNL     1       5.023   2.748 -10.236  1.00  0.00    -0.346 N 
ATOM     11  H3  UNL     1       4.892   3.441 -10.973  1.00  0.00     0.163 HD
HETATM   12  C14 UNL     1       5.458   3.292  -8.942  1.00  0.00     0.180 C 
HETATM   13  C18 UNL     1       5.270   4.758  -8.917  1.00  0.00     0.245 C 
HETATM   14  O3  UNL     1       5.634   5.319 -10.029  1.00  0.00    -0.271 OA
HETATM   15  N4  UNL     1       4.782   5.612  -7.931  1.00  0.00    -0.324 N 
ATOM     16  H4  UNL     1       5.434   6.348  -7.662  1.00  0.00     0.169 HD
HETATM   17  C19 UNL     1       3.549   5.651  -7.228  1.00  0.00     0.082 C 
HETATM   18  C24 UNL     1       2.414   5.108  -7.990  1.00  0.00     0.282 C 
HETATM   19  O4  UNL     1       2.657   4.984  -9.253  1.00  0.00    -0.265 OA
HETATM   20  N5  UNL     1       1.138   4.706  -7.626  1.00  0.00    -0.260 N 
ATOM     21  H5  UNL     1       0.410   5.118  -8.210  1.00  0.00     0.190 HD
HETATM   22  N6  UNL     1       0.633   3.872  -6.649  1.00  0.00    -0.258 N 
HETATM   23  C32 UNL     1       1.120   2.668  -6.094  1.00  0.00     0.244 C 
HETATM   24  O5  UNL     1       0.598   2.243  -4.986  1.00  0.00    -0.271 OA
ENDROOT
BRANCH   1  25
HETATM   25  C4  UNL     1       2.998   1.138  -5.463  1.00  0.00     0.197 C 
BRANCH  25  26
HETATM   26  C3  UNL     1       3.934   0.086  -5.889  1.00  0.00     0.033 C 
BRANCH  26  27
HETATM   27  C2  UNL     1       5.396   0.385  -5.728  1.00  0.00    -0.002 C 
HETATM   28  C1  UNL     1       6.207  -0.602  -4.963  1.00  0.00     0.005 C 
ENDBRANCH  26  27
ENDBRANCH  25  26
BRANCH  25  29
HETATM   29  N1  UNL     1       3.594   2.145  -4.672  1.00  0.00    -0.074 N 
ATOM     30  H13 UNL     1       4.607   2.137  -4.784  1.00  0.00     0.274 HD
ATOM     31  H12 UNL     1       3.386   3.069  -5.051  1.00  0.00     0.274 HD
ATOM     32  H11 UNL     1       3.341   2.097  -3.685  1.00  0.00     0.274 HD
ENDBRANCH  25  29
ENDBRANCH   1  25
BRANCH  22  33
HETATM   33  C25 UNL     1      -0.662   4.307  -6.067  1.00  0.00     0.152 C 
BRANCH  33  34
HETATM   34  C26 UNL     1      -0.701   5.769  -5.799  1.00  0.00     0.022 C 
BRANCH  34  35
HETATM   35  C27 UNL     1      -1.149   6.078  -4.389  1.00  0.00     0.002 C 
BRANCH  35  36
HETATM   36  C28 UNL     1      -0.381   5.322  -3.363  1.00  0.00     0.001 C 
BRANCH  36  37
HETATM   37  C29 UNL     1      -0.829   5.696  -1.983  1.00  0.00     0.010 C 
BRANCH  37  38
HETATM   38  C30 UNL     1      -1.802   6.830  -1.985  1.00  0.00     0.073 C 
BRANCH  38  39
HETATM   39  S1  UNL     1      -3.318   6.211  -1.164  1.00  0.00    -0.173 SA
HETATM   40  C31 UNL     1      -4.509   7.573  -1.108  1.00  0.00     0.089 C 
ENDBRANCH  38  39
ENDBRANCH  37  38
ENDBRANCH  36  37
ENDBRANCH  35  36
ENDBRANCH  34  35
ENDBRANCH  33  34
ENDBRANCH  22  33
BRANCH   7  41
HETATM   41  C9  UNL     1       4.020  -0.852 -10.648  1.00  0.00     0.038 C 
BRANCH  41  42
HETATM   42  C10 UNL     1       4.763  -1.953 -10.042  1.00  0.00    -0.020 C 
HETATM   43  C11 UNL     1       5.356  -1.740  -8.696  1.00  0.00     0.009 C 
HETATM   44  C12 UNL     1       5.790  -2.635 -10.923  1.00  0.00     0.009 C 
ENDBRANCH  41  42
ENDBRANCH   7  41
BRANCH  17  45
HETATM   45  C20 UNL     1       3.636   5.286  -5.804  1.00  0.00     0.067 C 
BRANCH  45  46
HETATM   46  C21 UNL     1       2.799   6.019  -4.851  1.00  0.00    -0.017 C 
HETATM   47  C22 UNL     1       2.258   7.348  -5.171  1.00  0.00     0.010 C 
HETATM   48  C23 UNL     1       3.654   6.209  -3.574  1.00  0.00     0.010 C 
ENDBRANCH  45  46
ENDBRANCH  17  45
BRANCH  12  49
HETATM   49  C15 UNL     1       6.958   3.027  -8.893  1.00  0.00     0.009 C 
HETATM   50  C16 UNL     1       7.329   1.600  -8.712  1.00  0.00     0.012 C 
HETATM   51  C17 UNL     1       7.651   3.834  -7.822  1.00  0.00     0.012 C 
ENDBRANCH  12  49
TORSDOF 16
ENDMDL
MODEL 5
REMARK VINA RESULT: -6.843923358      2.294      5.069
REMARK  16 active torsions:
REMARK  status: ('A' for Active; 'I' for Inactive)
REMARK    1  A    between atoms: C2_2  and  C3_3 
REMARK    2  A    between atoms: C3_3  and  C4_4 
REMARK    3  A    between atoms: C4_4  and  N1_5 
REMARK    4  A    between atoms: C4_4  and  C5_9 
REMARK    5  A    between atoms: C8_15  and  C9_16 
REMARK    6  A    between atoms: C9_16  and  C10_17 
REMARK    7  A    between atoms: C14_24  and  C15_25 
REMARK    8  A    between atoms: C19_32  and  C20_33 
REMARK    9  A    between atoms: C20_33  and  C21_34 
REMARK   10  A    between atoms: N6_41  and  C25_42 
REMARK   11  A    between atoms: C25_42  and  C26_43 
REMARK   12  A    between atoms: C26_43  and  C27_44 
REMARK   13  A    between atoms: C27_44  and  C28_45 
REMARK   14  A    between atoms: C28_45  and  C29_46 
REMARK   15  A    between atoms: C29_46  and  C30_47 
REMARK   16  A    between atoms: C30_47  and  S1_48 
ROOT
HETATM    1  C5  UNL     1       1.230   2.736  -7.254  1.00  0.00     0.118 C 
HETATM    2  C6  UNL     1       1.052   2.313  -8.645  1.00  0.00     0.119 C 
HETATM    3  C7  UNL     1       1.600   3.106  -9.732  1.00  0.00     0.219 C 
HETATM    4  O1  UNL     1       1.018   4.230  -9.989  1.00  0.00    -0.274 OA
HETATM    5  N2  UNL     1       2.715   2.708 -10.509  1.00  0.00    -0.348 N 
ATOM      6  H2  UNL     1       2.906   3.257 -11.347  1.00  0.00     0.163 HD
HETATM    7  C8  UNL     1       3.602   1.617 -10.242  1.00  0.00     0.177 C 
HETATM    8  C13 UNL     1       5.030   2.122 -10.111  1.00  0.00     0.241 C 
HETATM    9  O2  UNL     1       5.813   1.694 -11.035  1.00  0.00    -0.271 OA
HETATM   10  N3  UNL     1       5.557   2.951  -9.159  1.00  0.00    -0.346 N 
ATOM     11  H3  UNL     1       6.047   3.768  -9.521  1.00  0.00     0.163 HD
HETATM   12  C14 UNL     1       5.524   2.844  -7.693  1.00  0.00     0.180 C 
HETATM   13  C18 UNL     1       5.915   4.132  -7.081  1.00  0.00     0.245 C 
HETATM   14  O3  UNL     1       6.926   4.677  -7.685  1.00  0.00    -0.271 OA
HETATM   15  N4  UNL     1       5.394   4.837  -5.998  1.00  0.00    -0.324 N 
ATOM     16  H4  UNL     1       6.076   5.031  -5.265  1.00  0.00     0.169 HD
HETATM   17  C19 UNL     1       4.095   5.338  -5.722  1.00  0.00     0.082 C 
HETATM   18  C24 UNL     1       3.321   5.677  -6.925  1.00  0.00     0.282 C 
HETATM   19  O4  UNL     1       4.044   5.764  -7.992  1.00  0.00    -0.265 OA
HETATM   20  N5  UNL     1       1.974   5.925  -7.144  1.00  0.00    -0.260 N 
ATOM     21  H5  UNL     1       1.808   6.787  -7.665  1.00  0.00     0.190 HD
HETATM   22  N6  UNL     1       0.808   5.265  -6.814  1.00  0.00    -0.258 N 
HETATM   23  C32 UNL     1       0.494   3.890  -6.733  1.00  0.00     0.244 C 
HETATM   24  O5  UNL     1      -0.591   3.540  -6.118  1.00  0.00    -0.271 OA
ENDROOT
BRANCH   1  25
HETATM   25  C4  UNL     1       1.144   1.504  -6.345  1.00  0.00     0.197 C 
BRANCH  25  26
HETATM   26  C3  UNL     1       1.926   0.339  -6.788  1.00  0.00     0.033 C 
BRANCH  26  27
HETATM   27  C2  UNL     1       1.203  -0.975  -6.834  1.00  0.00    -0.002 C 
HETATM   28  C1  UNL     1       0.297  -1.206  -7.992  1.00  0.00     0.005 C 
ENDBRANCH  26  27
ENDBRANCH  25  26
BRANCH  25  29
HETATM   29  N1  UNL     1       1.388   1.878  -5.005  1.00  0.00    -0.074 N 
ATOM     30  H13 UNL     1       0.646   1.535  -4.395  1.00  0.00     0.274 HD
ATOM     31  H12 UNL     1       2.177   1.355  -4.624  1.00  0.00     0.274 HD
ATOM     32  H11 UNL     1       1.525   2.881  -4.875  1.00  0.00     0.274 HD
ENDBRANCH  25  29
ENDBRANCH   1  25
BRANCH  22  33
HETATM   33  C25 UNL     1      -0.337   6.151  -6.485  1.00  0.00     0.152 C 
BRANCH  33  34
HETATM   34  C26 UNL     1       0.098   7.445  -5.899  1.00  0.00     0.022 C 
BRANCH  34  35
HETATM   35  C27 UNL     1      -1.074   8.315  -5.505  1.00  0.00     0.002 C 
BRANCH  35  36
HETATM   36  C28 UNL     1      -1.722   7.870  -4.242  1.00  0.00     0.001 C 
BRANCH  36  37
HETATM   37  C29 UNL     1      -2.844   8.790  -3.868  1.00  0.00     0.010 C 
BRANCH  37  38
HETATM   38  C30 UNL     1      -3.226   8.670  -2.428  1.00  0.00     0.073 C 
BRANCH  38  39
HETATM   39  S1  UNL     1      -5.054   8.774  -2.368  1.00  0.00    -0.173 SA
HETATM   40  C31 UNL     1      -5.717   7.290  -3.163  1.00  0.00     0.089 C 
ENDBRANCH  38  39
ENDBRANCH  37  38
ENDBRANCH  36  37
ENDBRANCH  35  36
ENDBRANCH  34  35
ENDBRANCH  33  34
ENDBRANCH  22  33
BRANCH   7  41
HETATM   41  C9  UNL     1       3.577   0.641 -11.368  1.00  0.00     0.038 C 
BRANCH  41  42
HETATM   42  C10 UNL     1       3.352  -0.783 -11.136  1.00  0.00    -0.020 C 
HETATM   43  C11 UNL     1       2.071  -1.375 -11.606  1.00  0.00     0.009 C 
HETATM   44  C12 UNL     1       3.636  -1.289  -9.736  1.00  0.00     0.009 C 
ENDBRANCH  41  42
ENDBRANCH   7  41
BRANCH  17  45
HETATM   45  C20 UNL     1       3.379   4.640  -4.641  1.00  0.00     0.067 C 
BRANCH  45  46
HETATM   46  C21 UNL     1       2.835   5.442  -3.542  1.00  0.00    -0.017 C 
HETATM   47  C22 UNL     1       1.399   5.439  -3.229  1.00  0.00     0.010 C 
HETATM   48  C23 UNL     1       3.196   6.915  -3.855  1.00  0.00     0.010 C 
ENDBRANCH  45  46
ENDBRANCH  17  45
BRANCH  12  49
HETATM   49  C15 UNL     1       6.612   1.833  -7.352  1.00  0.00     0.009 C 
HETATM   50  C16 UNL     1       7.754   1.809  -8.302  1.00  0.00     0.012 C 
HETATM   51  C17 UNL     1       6.073   0.428  -7.227  1.00  0.00     0.012 C 
ENDBRANCH  12  49
TORSDOF 16
ENDMDL
