MODEL 1
REMARK VINA RESULT: -7.792765418      0.000      0.000
REMARK  16 active torsions:
REMARK  status: ('A' for Active; 'I' for Inactive)
REMARK    1  A    between atoms: C2_2  and  C3_3 
REMARK    2  A    between atoms: C3_3  and  C4_4 
REMARK    3  A    between atoms: C4_4  and  C5_5 
REMARK    4  A    between atoms: C5_5  and  C7_7 
REMARK    5  A    between atoms: C9_11  and  C10_12 
REMARK    6  A    between atoms: C14_19  and  C15_20 
REMARK    7  A    between atoms: C15_20  and  C17_22 
REMARK    8  A    between atoms: C20_28  and  C21_29 
REMARK    9  A    between atoms: C21_29  and  C22_30 
REMARK   10  A    between atoms: C25_33  and  O5_34 
REMARK   11  A    between atoms: C27_36  and  C28_37 
REMARK   12  A    between atoms: C28_37  and  C29_38 
REMARK   13  A    between atoms: C29_38  and  C30_39 
REMARK   14  A    between atoms: C30_39  and  C31_40 
REMARK   15  A    between atoms: C31_40  and  N3_41 
REMARK   16  A    between atoms: C33_48  and  O6_49 
ROOT
HETATM    1  C7  UNL     1      -0.093   5.852  -5.931  1.00  0.00     0.209 C 
HETATM    2  O1  UNL     1       1.081   5.236  -6.190  1.00  0.00    -0.306 OA
HETATM    3  C8  UNL     1       2.211   5.215  -6.860  1.00  0.00     0.282 C 
HETATM    4  O2  UNL     1       2.484   5.557  -8.080  1.00  0.00    -0.263 OA
HETATM    5  C9  UNL     1       3.444   4.728  -6.184  1.00  0.00     0.187 C 
HETATM    6  N1  UNL     1       3.071   3.651  -5.294  1.00  0.00    -0.345 N 
ATOM      7  H1  UNL     1       2.551   3.928  -4.462  1.00  0.00     0.163 HD
HETATM    8  C13 UNL     1       3.327   2.283  -5.419  1.00  0.00     0.241 C 
HETATM    9  O3  UNL     1       3.736   1.714  -4.331  1.00  0.00    -0.271 OA
HETATM   10  C14 UNL     1       3.209   1.387  -6.577  1.00  0.00     0.180 C 
HETATM   11  N2  UNL     1       2.748   1.934  -7.798  1.00  0.00    -0.347 N 
ATOM     12  H2  UNL     1       3.355   2.636  -8.222  1.00  0.00     0.163 HD
HETATM   13  C19 UNL     1       1.556   1.641  -8.515  1.00  0.00     0.225 C 
HETATM   14  O4  UNL     1       1.651   1.469  -9.772  1.00  0.00    -0.273 OA
HETATM   15  C20 UNL     1       0.204   1.512  -7.953  1.00  0.00     0.109 C 
HETATM   16  C25 UNL     1      -0.587   2.756  -8.322  1.00  0.00     0.156 C 
HETATM   17  C27 UNL     1      -1.810   2.936  -7.463  1.00  0.00     0.113 C 
HETATM   18  N6  UNL     1      -1.943   4.115  -6.689  1.00  0.00    -0.365 N 
ATOM     19  H6  UNL     1      -2.703   4.031  -6.014  1.00  0.00     0.161 HD
HETATM   20  C33 UNL     1      -1.318   5.360  -6.597  1.00  0.00     0.142 C 
ENDROOT
BRANCH  17  21
HETATM   21  C28 UNL     1      -3.075   2.735  -8.351  1.00  0.00     0.028 C 
BRANCH  21  22
HETATM   22  C29 UNL     1      -4.282   2.431  -7.543  1.00  0.00     0.004 C 
BRANCH  22  23
HETATM   23  C30 UNL     1      -5.488   3.261  -7.765  1.00  0.00     0.020 C 
BRANCH  23  24
HETATM   24  C31 UNL     1      -5.593   4.436  -6.870  1.00  0.00     0.122 C 
BRANCH  24  25
HETATM   25  N3  UNL     1      -6.659   4.454  -5.930  1.00  0.00    -0.367 N 
HETATM   26  C32 UNL     1      -6.559   4.078  -4.700  1.00  0.00     0.196 C 
HETATM   27  N4  UNL     1      -5.354   3.600  -4.160  1.00  0.00    -0.067 NA
HETATM   28  N5  UNL     1      -7.740   4.172  -3.904  1.00  0.00    -0.067 NA
ATOM     29  H3  UNL     1      -7.567   4.788  -6.250  1.00  0.00     0.161 HD
ENDBRANCH  24  25
ENDBRANCH  23  24
ENDBRANCH  22  23
ENDBRANCH  21  22
ENDBRANCH  17  21
BRANCH  16  30
HETATM   30  O5  UNL     1      -1.031   2.618  -9.634  1.00  0.00    -0.388 OA
HETATM   31  C26 UNL     1      -0.644   3.690 -10.421  1.00  0.00     0.202 C 
ENDBRANCH  16  30
BRANCH  15  32
HETATM   32  C21 UNL     1      -0.574   0.339  -8.395  1.00  0.00     0.020 C 
BRANCH  32  33
HETATM   33  C22 UNL     1      -0.234  -1.024  -7.998  1.00  0.00    -0.022 C 
HETATM   34  C23 UNL     1       0.530  -1.815  -9.014  1.00  0.00     0.009 C 
HETATM   35  C24 UNL     1       0.470  -1.153  -6.670  1.00  0.00     0.009 C 
ENDBRANCH  32  33
ENDBRANCH  15  32
BRANCH  20  36
HETATM   36  O6  UNL     1      -1.910   6.353  -7.223  1.00  0.00    -0.348 OA
ATOM     37  H6  UNL     1      -2.172   6.072  -8.092  1.00  0.00     0.219 HD
ENDBRANCH  20  36
BRANCH   1  38
HETATM   38  C5  UNL     1      -0.303   5.913  -4.400  1.00  0.00     0.019 C 
HETATM   39  C6  UNL     1       0.084   4.681  -3.683  1.00  0.00     0.013 C 
BRANCH  38  40
HETATM   40  C4  UNL     1      -1.787   6.146  -4.104  1.00  0.00     0.007 C 
BRANCH  40  41
HETATM   41  C3  UNL     1      -1.917   6.276  -2.604  1.00  0.00     0.000 C 
BRANCH  41  42
HETATM   42  C2  UNL     1      -3.330   5.974  -2.140  1.00  0.00    -0.005 C 
HETATM   43  C1  UNL     1      -3.578   6.635  -0.806  1.00  0.00     0.005 C 
ENDBRANCH  41  42
ENDBRANCH  40  41
ENDBRANCH  38  40
ENDBRANCH   1  38
BRANCH  10  44
HETATM   44  C15 UNL     1       4.505   0.570  -6.777  1.00  0.00     0.013 C 
HETATM   45  C16 UNL     1       5.658   1.443  -7.209  1.00  0.00     0.012 C 
BRANCH  44  46
HETATM   46  C17 UNL     1       4.297  -0.588  -7.714  1.00  0.00     0.002 C 
HETATM   47  C18 UNL     1       4.165  -1.840  -6.848  1.00  0.00     0.005 C 
ENDBRANCH  44  46
ENDBRANCH  10  44
BRANCH   5  48
HETATM   48  C10 UNL     1       4.236   5.813  -5.498  1.00  0.00     0.010 C 
HETATM   49  C11 UNL     1       3.978   6.008  -4.059  1.00  0.00     0.012 C 
HETATM   50  C12 UNL     1       5.736   5.572  -5.657  1.00  0.00     0.012 C 
ENDBRANCH   5  48
TORSDOF 16
ENDMDL
MODEL 2
REMARK VINA RESULT: -7.470000042      2.062      3.082
REMARK  16 active torsions:
REMARK  status: ('A' for Active; 'I' for Inactive)
REMARK    1  A    between atoms: C2_2  and  C3_3 
REMARK    2  A    between atoms: C3_3  and  C4_4 
REMARK    3  A    between atoms: C4_4  and  C5_5 
REMARK    4  A    between atoms: C5_5  and  C7_7 
REMARK    5  A    between atoms: C9_11  and  C10_12 
REMARK    6  A    between atoms: C14_19  and  C15_20 
REMARK    7  A    between atoms: C15_20  and  C17_22 
REMARK    8  A    between atoms: C20_28  and  C21_29 
REMARK    9  A    between atoms: C21_29  and  C22_30 
REMARK   10  A    between atoms: C25_33  and  O5_34 
REMARK   11  A    between atoms: C27_36  and  C28_37 
REMARK   12  A    between atoms: C28_37  and  C29_38 
REMARK   13  A    between atoms: C29_38  and  C30_39 
REMARK   14  A    between atoms: C30_39  and  C31_40 
REMARK   15  A    between atoms: C31_40  and  N3_41 
REMARK   16  A    between atoms: C33_48  and  O6_49 
ROOT
HETATM    1  C7  UNL     1       3.010   4.940  -6.433  1.00  0.00     0.209 C 
HETATM    2  O1  UNL     1       3.955   4.279  -7.137  1.00  0.00    -0.306 OA
HETATM    3  C8  UNL     1       4.781   4.259  -8.158  1.00  0.00     0.282 C 
HETATM    4  O2  UNL     1       4.658   4.721  -9.362  1.00  0.00    -0.263 OA
HETATM    5  C9  UNL     1       6.111   3.611  -7.999  1.00  0.00     0.187 C 
HETATM    6  N1  UNL     1       5.951   2.466  -7.131  1.00  0.00    -0.345 N 
ATOM      7  H1  UNL     1       5.777   2.679  -6.149  1.00  0.00     0.163 HD
HETATM    8  C13 UNL     1       6.004   1.108  -7.454  1.00  0.00     0.241 C 
HETATM    9  O3  UNL     1       6.696   0.388  -6.630  1.00  0.00    -0.271 OA
HETATM   10  C14 UNL     1       5.406   0.364  -8.571  1.00  0.00     0.180 C 
HETATM   11  N2  UNL     1       4.618   1.081  -9.502  1.00  0.00    -0.347 N 
ATOM     12  H2  UNL     1       5.115   1.783 -10.050  1.00  0.00     0.163 HD
HETATM   13  C19 UNL     1       3.230   0.956  -9.781  1.00  0.00     0.225 C 
HETATM   14  O4  UNL     1       2.873   0.926 -11.002  1.00  0.00    -0.273 OA
HETATM   15  C20 UNL     1       2.143   0.856  -8.796  1.00  0.00     0.109 C 
HETATM   16  C25 UNL     1       1.410   2.186  -8.757  1.00  0.00     0.156 C 
HETATM   17  C27 UNL     1       0.577   2.349  -7.513  1.00  0.00     0.113 C 
HETATM   18  N6  UNL     1       0.841   3.436  -6.644  1.00  0.00    -0.365 N 
ATOM     19  H6  UNL     1       0.351   3.326  -5.756  1.00  0.00     0.161 HD
HETATM   20  C33 UNL     1       1.587   4.615  -6.669  1.00  0.00     0.142 C 
ENDROOT
BRANCH  17  21
HETATM   21  C28 UNL     1      -0.928   2.341  -7.918  1.00  0.00     0.028 C 
BRANCH  21  22
HETATM   22  C29 UNL     1      -1.658   3.514  -7.376  1.00  0.00     0.004 C 
BRANCH  22  23
HETATM   23  C30 UNL     1      -2.764   4.073  -8.186  1.00  0.00     0.020 C 
BRANCH  23  24
HETATM   24  C31 UNL     1      -4.117   3.723  -7.696  1.00  0.00     0.122 C 
BRANCH  24  25
HETATM   25  N3  UNL     1      -4.274   3.492  -6.303  1.00  0.00    -0.367 N 
HETATM   26  C32 UNL     1      -5.308   3.837  -5.614  1.00  0.00     0.196 C 
HETATM   27  N4  UNL     1      -6.406   4.494  -6.192  1.00  0.00    -0.067 NA
HETATM   28  N5  UNL     1      -5.287   3.516  -4.223  1.00  0.00    -0.067 NA
ATOM     29  H3  UNL     1      -3.515   3.019  -5.813  1.00  0.00     0.161 HD
ENDBRANCH  24  25
ENDBRANCH  23  24
ENDBRANCH  22  23
ENDBRANCH  21  22
ENDBRANCH  17  21
BRANCH  16  30
HETATM   30  O5  UNL     1       0.535   2.234  -9.839  1.00  0.00    -0.388 OA
HETATM   31  C26 UNL     1       0.637   3.431 -10.528  1.00  0.00     0.202 C 
ENDBRANCH  16  30
BRANCH  15  32
HETATM   32  C21 UNL     1       1.143  -0.200  -9.038  1.00  0.00     0.020 C 
BRANCH  32  33
HETATM   33  C22 UNL     1       1.481  -1.620  -9.022  1.00  0.00    -0.022 C 
HETATM   34  C23 UNL     1       2.401  -2.048  -7.922  1.00  0.00     0.009 C 
HETATM   35  C24 UNL     1       0.304  -2.564  -9.049  1.00  0.00     0.009 C 
ENDBRANCH  32  33
ENDBRANCH  15  32
BRANCH  20  36
HETATM   36  O6  UNL     1       0.926   5.713  -6.961  1.00  0.00    -0.348 OA
ATOM     37  H6  UNL     1      -0.007   5.530  -6.977  1.00  0.00     0.219 HD
ENDBRANCH  20  36
BRANCH   1  38
HETATM   38  C5  UNL     1       3.340   4.836  -4.925  1.00  0.00     0.019 C 
HETATM   39  C6  UNL     1       3.804   3.502  -4.495  1.00  0.00     0.013 C 
BRANCH  38  40
HETATM   40  C4  UNL     1       2.081   5.147  -4.111  1.00  0.00     0.007 C 
BRANCH  40  41
HETATM   41  C3  UNL     1       2.456   6.230  -3.125  1.00  0.00     0.000 C 
BRANCH  41  42
HETATM   42  C2  UNL     1       1.689   6.087  -1.824  1.00  0.00    -0.005 C 
HETATM   43  C1  UNL     1       0.239   5.793  -2.120  1.00  0.00     0.005 C 
ENDBRANCH  41  42
ENDBRANCH  40  41
ENDBRANCH  38  40
ENDBRANCH   1  38
BRANCH  10  44
HETATM   44  C15 UNL     1       6.464  -0.512  -9.279  1.00  0.00     0.013 C 
HETATM   45  C16 UNL     1       6.796   0.011 -10.655  1.00  0.00     0.012 C 
BRANCH  44  46
HETATM   46  C17 UNL     1       6.059  -1.959  -9.312  1.00  0.00     0.002 C 
HETATM   47  C18 UNL     1       5.309  -2.180 -10.626  1.00  0.00     0.005 C 
ENDBRANCH  44  46
ENDBRANCH  10  44
BRANCH   5  48
HETATM   48  C10 UNL     1       7.199   4.552  -7.542  1.00  0.00     0.010 C 
HETATM   49  C11 UNL     1       6.874   5.430  -6.401  1.00  0.00     0.012 C 
HETATM   50  C12 UNL     1       8.462   3.779  -7.168  1.00  0.00     0.012 C 
ENDBRANCH   5  48
TORSDOF 16
ENDMDL
MODEL 3
REMARK VINA RESULT: -7.421029981      2.460      3.622
REMARK  16 active torsions:
REMARK  status: ('A' for Active; 'I' for Inactive)
REMARK    1  A    between atoms: C2_2  and  C3_3 
REMARK    2  A    between atoms: C3_3  and  C4_4 
REMARK    3  A    between atoms: C4_4  and  C5_5 
REMARK    4  A    between atoms: C5_5  and  C7_7 
REMARK    5  A    between atoms: C9_11  and  C10_12 
REMARK    6  A    between atoms: C14_19  and  C15_20 
REMARK    7  A    between atoms: C15_20  and  C17_22 
REMARK    8  A    between atoms: C20_28  and  C21_29 
REMARK    9  A    between atoms: C21_29  and  C22_30 
REMARK   10  A    between atoms: C25_33  and  O5_34 
REMARK   11  A    between atoms: C27_36  and  C28_37 
REMARK   12  A    between atoms: C28_37  and  C29_38 
REMARK   13  A    between atoms: C29_38  and  C30_39 
REMARK   14  A    between atoms: C30_39  and  C31_40 
REMARK   15  A    between atoms: C31_40  and  N3_41 
REMARK   16  A    between atoms: C33_48  and  O6_49 
ROOT
HETATM    1  C7  UNL     1       3.155   4.951  -6.426  1.00  0.00     0.209 C 
HETATM    2  O1  UNL     1       4.144   4.371  -7.141  1.00  0.00    -0.306 OA
HETATM    3  C8  UNL     1       4.994   4.443  -8.141  1.00  0.00     0.282 C 
HETATM    4  O2  UNL     1       4.880   4.969  -9.319  1.00  0.00    -0.263 OA
HETATM    5  C9  UNL     1       6.347   3.844  -7.983  1.00  0.00     0.187 C 
HETATM    6  N1  UNL     1       6.215   2.645  -7.186  1.00  0.00    -0.345 N 
ATOM      7  H1  UNL     1       6.009   2.794  -6.198  1.00  0.00     0.163 HD
HETATM    8  C13 UNL     1       6.334   1.310  -7.583  1.00  0.00     0.241 C 
HETATM    9  O3  UNL     1       7.036   0.574  -6.783  1.00  0.00    -0.271 OA
HETATM   10  C14 UNL     1       5.795   0.608  -8.756  1.00  0.00     0.180 C 
HETATM   11  N2  UNL     1       4.999   1.344  -9.665  1.00  0.00    -0.347 N 
ATOM     12  H2  UNL     1       5.478   2.097 -10.159  1.00  0.00     0.163 HD
HETATM   13  C19 UNL     1       3.624   1.178  -9.986  1.00  0.00     0.225 C 
HETATM   14  O4  UNL     1       3.298   1.204 -11.216  1.00  0.00    -0.273 OA
HETATM   15  C20 UNL     1       2.520   0.977  -9.037  1.00  0.00     0.109 C 
HETATM   16  C25 UNL     1       1.730   2.271  -8.943  1.00  0.00     0.156 C 
HETATM   17  C27 UNL     1       0.862   2.328  -7.714  1.00  0.00     0.113 C 
HETATM   18  N6  UNL     1       1.058   3.373  -6.778  1.00  0.00    -0.365 N 
ATOM     19  H6  UNL     1       0.552   3.192  -5.910  1.00  0.00     0.161 HD
HETATM   20  C33 UNL     1       1.753   4.581  -6.717  1.00  0.00     0.142 C 
ENDROOT
BRANCH  17  21
HETATM   21  C28 UNL     1      -0.632   2.281  -8.158  1.00  0.00     0.028 C 
BRANCH  21  22
HETATM   22  C29 UNL     1      -1.479   3.207  -7.365  1.00  0.00     0.004 C 
BRANCH  22  23
HETATM   23  C30 UNL     1      -2.230   4.251  -8.097  1.00  0.00     0.020 C 
BRANCH  23  24
HETATM   24  C31 UNL     1      -2.808   5.306  -7.234  1.00  0.00     0.122 C 
BRANCH  24  25
HETATM   25  N3  UNL     1      -1.920   6.274  -6.693  1.00  0.00    -0.367 N 
HETATM   26  C32 UNL     1      -1.704   6.450  -5.433  1.00  0.00     0.196 C 
HETATM   27  N4  UNL     1      -2.346   5.679  -4.451  1.00  0.00    -0.067 NA
HETATM   28  N5  UNL     1      -0.772   7.472  -5.080  1.00  0.00    -0.067 NA
ATOM     29  H3  UNL     1      -1.417   6.873  -7.347  1.00  0.00     0.161 HD
ENDBRANCH  24  25
ENDBRANCH  23  24
ENDBRANCH  22  23
ENDBRANCH  21  22
ENDBRANCH  17  21
BRANCH  16  30
HETATM   30  O5  UNL     1       0.879   2.344 -10.042  1.00  0.00    -0.388 OA
HETATM   31  C26 UNL     1       0.863   3.615 -10.593  1.00  0.00     0.202 C 
ENDBRANCH  16  30
BRANCH  15  32
HETATM   32  C21 UNL     1       1.572  -0.104  -9.364  1.00  0.00     0.020 C 
BRANCH  32  33
HETATM   33  C22 UNL     1       1.894  -1.516  -9.175  1.00  0.00    -0.022 C 
HETATM   34  C23 UNL     1       2.840  -1.813  -8.054  1.00  0.00     0.009 C 
HETATM   35  C24 UNL     1       0.706  -2.437  -9.051  1.00  0.00     0.009 C 
ENDBRANCH  32  33
ENDBRANCH  15  32
BRANCH  20  36
HETATM   36  O6  UNL     1       1.053   5.666  -6.964  1.00  0.00    -0.348 OA
ATOM     37  H6  UNL     1       0.429   5.811  -6.262  1.00  0.00     0.219 HD
ENDBRANCH  20  36
BRANCH   1  38
HETATM   38  C5  UNL     1       3.454   4.774  -4.918  1.00  0.00     0.019 C 
HETATM   39  C6  UNL     1       3.909   3.421  -4.543  1.00  0.00     0.013 C 
BRANCH  38  40
HETATM   40  C4  UNL     1       2.177   5.046  -4.117  1.00  0.00     0.007 C 
BRANCH  40  41
HETATM   41  C3  UNL     1       2.455   6.257  -3.254  1.00  0.00     0.000 C 
BRANCH  41  42
HETATM   42  C2  UNL     1       1.830   6.114  -1.879  1.00  0.00    -0.005 C 
HETATM   43  C1  UNL     1       0.360   5.801  -2.020  1.00  0.00     0.005 C 
ENDBRANCH  41  42
ENDBRANCH  40  41
ENDBRANCH  38  40
ENDBRANCH   1  38
BRANCH  10  44
HETATM   44  C15 UNL     1       6.906  -0.181  -9.484  1.00  0.00     0.013 C 
HETATM   45  C16 UNL     1       7.116   0.317 -10.893  1.00  0.00     0.012 C 
BRANCH  44  46
HETATM   46  C17 UNL     1       6.655  -1.663  -9.445  1.00  0.00     0.002 C 
HETATM   47  C18 UNL     1       5.664  -1.975 -10.567  1.00  0.00     0.005 C 
ENDBRANCH  44  46
ENDBRANCH  10  44
BRANCH   5  48
HETATM   48  C10 UNL     1       7.382   4.801  -7.446  1.00  0.00     0.010 C 
HETATM   49  C11 UNL     1       6.978   5.629  -6.293  1.00  0.00     0.012 C 
HETATM   50  C12 UNL     1       8.651   4.054  -7.040  1.00  0.00     0.012 C 
ENDBRANCH   5  48
TORSDOF 16
ENDMDL
MODEL 4
REMARK VINA RESULT: -7.411230105      1.201      1.517
REMARK  16 active torsions:
REMARK  status: ('A' for Active; 'I' for Inactive)
REMARK    1  A    between atoms: C2_2  and  C3_3 
REMARK    2  A    between atoms: C3_3  and  C4_4 
REMARK    3  A    between atoms: C4_4  and  C5_5 
REMARK    4  A    between atoms: C5_5  and  C7_7 
REMARK    5  A    between atoms: C9_11  and  C10_12 
REMARK    6  A    between atoms: C14_19  and  C15_20 
REMARK    7  A    between atoms: C15_20  and  C17_22 
REMARK    8  A    between atoms: C20_28  and  C21_29 
REMARK    9  A    between atoms: C21_29  and  C22_30 
REMARK   10  A    between atoms: C25_33  and  O5_34 
REMARK   11  A    between atoms: C27_36  and  C28_37 
REMARK   12  A    between atoms: C28_37  and  C29_38 
REMARK   13  A    between atoms: C29_38  and  C30_39 
REMARK   14  A    between atoms: C30_39  and  C31_40 
REMARK   15  A    between atoms: C31_40  and  N3_41 
REMARK   16  A    between atoms: C33_48  and  O6_49 
ROOT
HETATM    1  C7  UNL     1       0.259   5.814  -5.973  1.00  0.00     0.209 C 
HETATM    2  O1  UNL     1       1.392   5.158  -6.309  1.00  0.00    -0.306 OA
HETATM    3  C8  UNL     1       2.469   5.096  -7.059  1.00  0.00     0.282 C 
HETATM    4  O2  UNL     1       2.663   5.418  -8.299  1.00  0.00    -0.263 OA
HETATM    5  C9  UNL     1       3.732   4.576  -6.468  1.00  0.00     0.187 C 
HETATM    6  N1  UNL     1       3.391   3.520  -5.542  1.00  0.00    -0.345 N 
ATOM      7  H1  UNL     1       2.942   3.820  -4.677  1.00  0.00     0.163 HD
HETATM    8  C13 UNL     1       3.595   2.143  -5.669  1.00  0.00     0.241 C 
HETATM    9  O3  UNL     1       4.065   1.571  -4.607  1.00  0.00    -0.271 OA
HETATM   10  C14 UNL     1       3.366   1.241  -6.806  1.00  0.00     0.180 C 
HETATM   11  N2  UNL     1       2.834   1.791  -7.996  1.00  0.00    -0.347 N 
ATOM     12  H2  UNL     1       3.430   2.469  -8.471  1.00  0.00     0.163 HD
HETATM   13  C19 UNL     1       1.585   1.529  -8.621  1.00  0.00     0.225 C 
HETATM   14  O4  UNL     1       1.583   1.343  -9.880  1.00  0.00    -0.273 OA
HETATM   15  C20 UNL     1       0.274   1.448  -7.962  1.00  0.00     0.109 C 
HETATM   16  C25 UNL     1      -0.503   2.713  -8.286  1.00  0.00     0.156 C 
HETATM   17  C27 UNL     1      -1.654   2.940  -7.343  1.00  0.00     0.113 C 
HETATM   18  N6  UNL     1      -1.694   4.129  -6.575  1.00  0.00    -0.365 N 
ATOM     19  H6  UNL     1      -2.405   4.075  -5.846  1.00  0.00     0.161 HD
HETATM   20  C33 UNL     1      -1.026   5.354  -6.543  1.00  0.00     0.142 C 
ENDROOT
BRANCH  17  21
HETATM   21  C28 UNL     1      -2.986   2.770  -8.135  1.00  0.00     0.028 C 
BRANCH  21  22
HETATM   22  C29 UNL     1      -3.927   3.892  -7.891  1.00  0.00     0.004 C 
BRANCH  22  23
HETATM   23  C30 UNL     1      -5.138   3.613  -7.086  1.00  0.00     0.020 C 
BRANCH  23  24
HETATM   24  C31 UNL     1      -6.152   2.783  -7.776  1.00  0.00     0.122 C 
BRANCH  24  25
HETATM   25  N3  UNL     1      -7.520   3.080  -7.534  1.00  0.00    -0.367 N 
HETATM   26  C32 UNL     1      -8.492   2.754  -8.318  1.00  0.00     0.196 C 
HETATM   27  N4  UNL     1      -8.281   2.057  -9.518  1.00  0.00    -0.067 NA
HETATM   28  N5  UNL     1      -9.803   3.135  -7.904  1.00  0.00    -0.067 NA
ATOM     29  H3  UNL     1      -7.751   3.586  -6.680  1.00  0.00     0.161 HD
ENDBRANCH  24  25
ENDBRANCH  23  24
ENDBRANCH  22  23
ENDBRANCH  21  22
ENDBRANCH  17  21
BRANCH  16  30
HETATM   30  O5  UNL     1      -1.045   2.577  -9.561  1.00  0.00    -0.388 OA
HETATM   31  C26 UNL     1      -0.704   3.642 -10.379  1.00  0.00     0.202 C 
ENDBRANCH  16  30
BRANCH  15  32
HETATM   32  C21 UNL     1      -0.569   0.296  -8.333  1.00  0.00     0.020 C 
BRANCH  32  33
HETATM   33  C22 UNL     1      -0.258  -1.070  -7.922  1.00  0.00    -0.022 C 
HETATM   34  C23 UNL     1       0.376  -1.926  -8.973  1.00  0.00     0.009 C 
HETATM   35  C24 UNL     1       0.551  -1.194  -6.656  1.00  0.00     0.009 C 
ENDBRANCH  32  33
ENDBRANCH  15  32
BRANCH  20  36
HETATM   36  O6  UNL     1      -1.631   6.360  -7.136  1.00  0.00    -0.348 OA
ATOM     37  H6  UNL     1      -2.495   6.089  -7.423  1.00  0.00     0.219 HD
ENDBRANCH  20  36
BRANCH   1  38
HETATM   38  C5  UNL     1       0.163   5.895  -4.431  1.00  0.00     0.019 C 
HETATM   39  C6  UNL     1       0.421   4.618  -3.738  1.00  0.00     0.013 C 
BRANCH  38  40
HETATM   40  C4  UNL     1      -1.251   6.332  -4.038  1.00  0.00     0.007 C 
BRANCH  40  41
HETATM   41  C3  UNL     1      -1.414   6.009  -2.570  1.00  0.00     0.000 C 
BRANCH  41  42
HETATM   42  C2  UNL     1      -2.305   7.021  -1.873  1.00  0.00    -0.005 C 
HETATM   43  C1  UNL     1      -3.378   6.301  -1.096  1.00  0.00     0.005 C 
ENDBRANCH  41  42
ENDBRANCH  40  41
ENDBRANCH  38  40
ENDBRANCH   1  38
BRANCH  10  44
HETATM   44  C15 UNL     1       4.619   0.382  -7.089  1.00  0.00     0.013 C 
HETATM   45  C16 UNL     1       5.271   0.755  -8.398  1.00  0.00     0.012 C 
BRANCH  44  46
HETATM   46  C17 UNL     1       4.315  -1.089  -7.013  1.00  0.00     0.002 C 
HETATM   47  C18 UNL     1       4.057  -1.563  -8.443  1.00  0.00     0.005 C 
ENDBRANCH  44  46
ENDBRANCH  10  44
BRANCH   5  48
HETATM   48  C10 UNL     1       4.605   5.643  -5.854  1.00  0.00     0.010 C 
HETATM   49  C11 UNL     1       4.452   5.864  -4.403  1.00  0.00     0.012 C 
HETATM   50  C12 UNL     1       6.081   5.347  -6.110  1.00  0.00     0.012 C 
ENDBRANCH   5  48
TORSDOF 16
ENDMDL
MODEL 5
REMARK VINA RESULT: -7.373212299      3.117      6.574
REMARK  16 active torsions:
REMARK  status: ('A' for Active; 'I' for Inactive)
REMARK    1  A    between atoms: C2_2  and  C3_3 
REMARK    2  A    between atoms: C3_3  and  C4_4 
REMARK    3  A    between atoms: C4_4  and  C5_5 
REMARK    4  A    between atoms: C5_5  and  C7_7 
REMARK    5  A    between atoms: C9_11  and  C10_12 
REMARK    6  A    between atoms: C14_19  and  C15_20 
REMARK    7  A    between atoms: C15_20  and  C17_22 
REMARK    8  A    between atoms: C20_28  and  C21_29 
REMARK    9  A    between atoms: C21_29  and  C22_30 
REMARK   10  A    between atoms: C25_33  and  O5_34 
REMARK   11  A    between atoms: C27_36  and  C28_37 
REMARK   12  A    between atoms: C28_37  and  C29_38 
REMARK   13  A    between atoms: C29_38  and  C30_39 
REMARK   14  A    between atoms: C30_39  and  C31_40 
REMARK   15  A    between atoms: C31_40  and  N3_41 
REMARK   16  A    between atoms: C33_48  and  O6_49 
ROOT
HETATM    1  C7  UNL     1      -0.760   3.267  -6.870  1.00  0.00     0.209 C 
HETATM    2  O1  UNL     1       0.279   2.410  -6.759  1.00  0.00    -0.306 OA
HETATM    3  C8  UNL     1       0.895   1.481  -6.064  1.00  0.00     0.282 C 
HETATM    4  O2  UNL     1       1.048   1.335  -4.786  1.00  0.00    -0.263 OA
HETATM    5  C9  UNL     1       1.563   0.363  -6.784  1.00  0.00     0.187 C 
HETATM    6  N1  UNL     1       2.124   0.890  -8.007  1.00  0.00    -0.345 N 
ATOM      7  H1  UNL     1       1.449   1.142  -8.729  1.00  0.00     0.163 HD
HETATM    8  C13 UNL     1       3.466   1.102  -8.337  1.00  0.00     0.241 C 
HETATM    9  O3  UNL     1       3.794   0.705  -9.525  1.00  0.00    -0.271 OA
HETATM   10  C14 UNL     1       4.562   1.697  -7.560  1.00  0.00     0.180 C 
HETATM   11  N2  UNL     1       4.274   2.172  -6.258  1.00  0.00    -0.347 N 
ATOM     12  H2  UNL     1       3.991   1.461  -5.583  1.00  0.00     0.163 HD
HETATM   13  C19 UNL     1       4.325   3.503  -5.762  1.00  0.00     0.225 C 
HETATM   14  O4  UNL     1       4.882   3.690  -4.633  1.00  0.00    -0.273 OA
HETATM   15  C20 UNL     1       3.795   4.706  -6.420  1.00  0.00     0.109 C 
HETATM   16  C25 UNL     1       2.521   5.120  -5.705  1.00  0.00     0.156 C 
HETATM   17  C27 UNL     1       1.674   6.053  -6.529  1.00  0.00     0.113 C 
HETATM   18  N6  UNL     1       0.353   5.671  -6.865  1.00  0.00    -0.365 N 
ATOM     19  H6  UNL     1      -0.041   6.287  -7.577  1.00  0.00     0.161 HD
HETATM   20  C33 UNL     1      -0.559   4.683  -6.490  1.00  0.00     0.142 C 
ENDROOT
BRANCH  17  21
HETATM   21  C28 UNL     1       1.668   7.454  -5.845  1.00  0.00     0.028 C 
BRANCH  21  22
HETATM   22  C29 UNL     1       0.291   7.943  -5.588  1.00  0.00     0.004 C 
BRANCH  22  23
HETATM   23  C30 UNL     1      -0.069   9.287  -6.095  1.00  0.00     0.020 C 
BRANCH  23  24
HETATM   24  C31 UNL     1      -1.480   9.420  -6.522  1.00  0.00     0.122 C 
BRANCH  24  25
HETATM   25  N3  UNL     1      -1.731   9.677  -7.897  1.00  0.00    -0.367 N 
HETATM   26  C32 UNL     1      -1.913  10.850  -8.403  1.00  0.00     0.196 C 
HETATM   27  N4  UNL     1      -1.880  12.015  -7.620  1.00  0.00    -0.067 NA
HETATM   28  N5  UNL     1      -2.148  10.910  -9.809  1.00  0.00    -0.067 NA
ATOM     29  H3  UNL     1      -1.770   8.878  -8.528  1.00  0.00     0.161 HD
ENDBRANCH  24  25
ENDBRANCH  23  24
ENDBRANCH  22  23
ENDBRANCH  21  22
ENDBRANCH  17  21
BRANCH  16  30
HETATM   30  O5  UNL     1       2.874   5.809  -4.548  1.00  0.00    -0.388 OA
HETATM   31  C26 UNL     1       2.126   5.396  -3.457  1.00  0.00     0.202 C 
ENDBRANCH  16  30
BRANCH  15  32
HETATM   32  C21 UNL     1       4.692   5.876  -6.452  1.00  0.00     0.020 C 
BRANCH  32  33
HETATM   33  C22 UNL     1       5.853   5.952  -7.334  1.00  0.00    -0.022 C 
HETATM   34  C23 UNL     1       7.165   5.618  -6.696  1.00  0.00     0.009 C 
HETATM   35  C24 UNL     1       5.739   5.173  -8.620  1.00  0.00     0.009 C 
ENDBRANCH  32  33
ENDBRANCH  15  32
BRANCH  20  36
HETATM   36  O6  UNL     1      -1.465   5.035  -5.605  1.00  0.00    -0.348 OA
ATOM     37  H6  UNL     1      -1.678   5.954  -5.715  1.00  0.00     0.219 HD
ENDBRANCH  20  36
BRANCH   1  38
HETATM   38  C5  UNL     1      -1.340   3.173  -8.301  1.00  0.00     0.019 C 
HETATM   39  C6  UNL     1      -2.614   2.432  -8.392  1.00  0.00     0.013 C 
BRANCH  38  40
HETATM   40  C4  UNL     1      -0.341   2.442  -9.202  1.00  0.00     0.007 C 
BRANCH  40  41
HETATM   41  C3  UNL     1       0.070   3.421 -10.279  1.00  0.00     0.000 C 
BRANCH  41  42
HETATM   42  C2  UNL     1       1.560   3.344 -10.560  1.00  0.00    -0.005 C 
HETATM   43  C1  UNL     1       2.295   4.303  -9.656  1.00  0.00     0.005 C 
ENDBRANCH  41  42
ENDBRANCH  40  41
ENDBRANCH  38  40
ENDBRANCH   1  38
BRANCH  10  44
HETATM   44  C15 UNL     1       5.804   0.777  -7.565  1.00  0.00     0.013 C 
HETATM   45  C16 UNL     1       5.866  -0.091  -6.332  1.00  0.00     0.012 C 
BRANCH  44  46
HETATM   46  C17 UNL     1       7.074   1.557  -7.766  1.00  0.00     0.002 C 
HETATM   47  C18 UNL     1       7.227   1.775  -9.271  1.00  0.00     0.005 C 
ENDBRANCH  44  46
ENDBRANCH  10  44
BRANCH   5  48
HETATM   48  C10 UNL     1       0.677  -0.837  -7.010  1.00  0.00     0.010 C 
HETATM   49  C11 UNL     1       0.144  -1.015  -8.374  1.00  0.00     0.012 C 
HETATM   50  C12 UNL     1       1.408  -2.127  -6.641  1.00  0.00     0.012 C 
ENDBRANCH   5  48
TORSDOF 16
ENDMDL
