MODEL 1
REMARK VINA RESULT: -8.290883239      0.000      0.000
REMARK  17 active torsions:
REMARK  status: ('A' for Active; 'I' for Inactive)
REMARK    1  A    between atoms: C2_2  and  N1_3 
REMARK    2  A    between atoms: C3_4  and  C4_5 
REMARK    3  A    between atoms: C4_5  and  C5_6 
REMARK    4  A    between atoms: C8_11  and  C9_12 
REMARK    5  A    between atoms: C9_12  and  C10_13 
REMARK    6  A    between atoms: C10_13  and  C12_15 
REMARK       I    between atoms: C12_15  and  N3_17 
REMARK    7  A    between atoms: N3_17  and  C13_19 
REMARK    8  A    between atoms: C13_19  and  C14_20 
REMARK    9  A    between atoms: C14_20  and  C15_21 
REMARK   10  A    between atoms: C15_21  and  O2_22 
REMARK   11  A    between atoms: C20_28  and  O3_29 
REMARK   12  A    between atoms: N5_34  and  C22_36 
REMARK   13  A    between atoms: C22_36  and  C24_38 
REMARK   14  A    between atoms: C24_38  and  C25_39 
REMARK   15  A    between atoms: C25_39  and  O4_41 
REMARK   16  A    between atoms: N6_43  and  C28_44 
REMARK   17  A    between atoms: C28_44  and  C29_45 
ROOT
HETATM    1  N1  UNL     1       2.802   4.362  -6.021  1.00  0.00    -0.258 N 
HETATM    2  C3  UNL     1       1.759   3.987  -6.896  1.00  0.00     0.079 C 
HETATM    3  C20 UNL     1       1.845   3.900  -8.230  1.00  0.00     0.179 C 
HETATM    4  N4  UNL     1       2.880   4.134  -9.158  1.00  0.00    -0.168 N 
ATOM      5  H4  UNL     1       2.598   4.114 -10.138  1.00  0.00     0.186 HD
HETATM    6  C21 UNL     1       4.258   4.393  -8.930  1.00  0.00     0.697 C 
HETATM    7  N5  UNL     1       5.076   4.117  -9.811  1.00  0.00    -0.198 N 
ATOM      8  H5  UNL     1       5.982   4.387  -9.427  1.00  0.00     0.183 HD
HETATM    9  N6  UNL     1       4.873   4.994  -7.754  1.00  0.00    -0.090 N 
HETATM   10  S1  UNL     1       4.014   5.567  -6.389  1.00  0.00     0.341 S 
HETATM   11  O5  UNL     1       3.379   6.888  -6.682  1.00  0.00    -0.181 OA
HETATM   12  O6  UNL     1       4.876   5.705  -5.175  1.00  0.00    -0.181 OA
ENDROOT
BRANCH   2  13
HETATM   13  C4  UNL     1       0.471   3.663  -6.337  1.00  0.00     0.103 C 
BRANCH  13  14
HETATM   14  C5  UNL     1      -0.417   4.712  -5.870  1.00  0.00    -0.025 A 
HETATM   15  C6  UNL     1      -1.316   5.410  -6.643  1.00  0.00     0.096 A 
HETATM   16  N2  UNL     1      -1.947   6.329  -5.948  1.00  0.00    -0.364 N 
HETATM   17  C7  UNL     1      -1.517   6.306  -4.680  1.00  0.00     0.049 A 
ATOM     18  H2  UNL     1      -2.656   6.963  -6.317  1.00  0.00     0.165 HD
HETATM   19  C8  UNL     1      -1.874   7.073  -3.570  1.00  0.00    -0.030 A 
HETATM   20  C19 UNL     1      -0.568   5.311  -4.613  1.00  0.00    -0.001 A 
HETATM   21  C16 UNL     1      -1.227   6.792  -2.386  1.00  0.00     0.009 A 
HETATM   22  C17 UNL     1      -0.273   5.801  -2.290  1.00  0.00     0.002 A 
HETATM   23  C18 UNL     1       0.041   5.076  -3.409  1.00  0.00     0.014 A 
BRANCH  19  24
HETATM   24  C9  UNL     1      -2.899   8.112  -3.710  1.00  0.00     0.054 C 
BRANCH  24  25
HETATM   25  C10 UNL     1      -4.029   8.017  -2.719  1.00  0.00     0.078 C 
HETATM   26  C11 UNL     1      -4.896   9.236  -2.678  1.00  0.00     0.020 C 
BRANCH  25  27
HETATM   27  C12 UNL     1      -4.797   6.775  -3.029  1.00  0.00     0.221 C 
HETATM   28  O1  UNL     1      -4.544   5.685  -2.432  1.00  0.00    -0.273 OA
HETATM   29  N3  UNL     1      -5.824   6.823  -4.005  1.00  0.00    -0.361 N 
ATOM     30  H3  UNL     1      -6.010   7.711  -4.470  1.00  0.00     0.162 HD
BRANCH  29  31
HETATM   31  C13 UNL     1      -6.622   5.676  -4.374  1.00  0.00     0.124 C 
BRANCH  31  32
HETATM   32  C14 UNL     1      -6.221   5.076  -5.695  1.00  0.00     0.046 C 
BRANCH  32  33
HETATM   33  C15 UNL     1      -5.375   3.825  -5.448  1.00  0.00     0.165 C 
BRANCH  33  34
HETATM   34  O2  UNL     1      -5.373   3.481  -4.097  1.00  0.00    -0.401 OA
ATOM     35  H2  UNL     1      -5.113   2.575  -3.976  1.00  0.00     0.209 HD
ENDBRANCH  33  34
ENDBRANCH  32  33
ENDBRANCH  31  32
ENDBRANCH  29  31
ENDBRANCH  25  27
ENDBRANCH  24  25
ENDBRANCH  19  24
ENDBRANCH  13  14
ENDBRANCH   2  13
BRANCH   1  36
HETATM   36  C2  UNL     1       2.934   3.696  -4.764  1.00  0.00     0.139 C 
HETATM   37  C1  UNL     1       3.696   2.357  -4.926  1.00  0.00     0.028 C 
ENDBRANCH   1  36
BRANCH   3  38
HETATM   38  O3  UNL     1       0.635   3.491  -8.820  1.00  0.00    -0.344 OA
ATOM     39  H3  UNL     1       0.464   2.565  -8.691  1.00  0.00     0.219 HD
ENDBRANCH   3  38
BRANCH   9  40
HETATM   40  C28 UNL     1       6.281   5.132  -7.828  1.00  0.00     0.166 C 
BRANCH  40  41
HETATM   41  C29 UNL     1       6.855   6.499  -7.801  1.00  0.00    -0.003 C 
HETATM   42  C30 UNL     1       7.893   6.622  -6.722  1.00  0.00     0.011 C 
HETATM   43  C31 UNL     1       7.588   6.801  -9.120  1.00  0.00     0.011 C 
ENDBRANCH  40  41
ENDBRANCH   9  40
BRANCH   7  44
HETATM   44  C22 UNL     1       5.352   3.617 -11.069  1.00  0.00     0.003 C 
HETATM   45  C23 UNL     1       6.282   4.546 -11.871  1.00  0.00     0.064 C 
BRANCH  44  46
HETATM   46  C24 UNL     1       5.620   2.174 -11.239  1.00  0.00     0.084 C 
BRANCH  46  47
HETATM   47  C25 UNL     1       4.557   1.177 -10.903  1.00  0.00     0.122 C 
HETATM   48  C26 UNL     1       4.621   0.481  -9.602  1.00  0.00     0.040 C 
BRANCH  47  49
HETATM   49  O4  UNL     1       3.274   1.769 -11.037  1.00  0.00    -0.391 OA
HETATM   50  C27 UNL     1       2.255   0.898 -10.702  1.00  0.00     0.202 C 
ENDBRANCH  47  49
ENDBRANCH  46  47
ENDBRANCH  44  46
ENDBRANCH   7  44
TORSDOF 17
ENDMDL
MODEL 2
REMARK VINA RESULT: -8.146964726      0.913      1.230
REMARK  17 active torsions:
REMARK  status: ('A' for Active; 'I' for Inactive)
REMARK    1  A    between atoms: C2_2  and  N1_3 
REMARK    2  A    between atoms: C3_4  and  C4_5 
REMARK    3  A    between atoms: C4_5  and  C5_6 
REMARK    4  A    between atoms: C8_11  and  C9_12 
REMARK    5  A    between atoms: C9_12  and  C10_13 
REMARK    6  A    between atoms: C10_13  and  C12_15 
REMARK       I    between atoms: C12_15  and  N3_17 
REMARK    7  A    between atoms: N3_17  and  C13_19 
REMARK    8  A    between atoms: C13_19  and  C14_20 
REMARK    9  A    between atoms: C14_20  and  C15_21 
REMARK   10  A    between atoms: C15_21  and  O2_22 
REMARK   11  A    between atoms: C20_28  and  O3_29 
REMARK   12  A    between atoms: N5_34  and  C22_36 
REMARK   13  A    between atoms: C22_36  and  C24_38 
REMARK   14  A    between atoms: C24_38  and  C25_39 
REMARK   15  A    between atoms: C25_39  and  O4_41 
REMARK   16  A    between atoms: N6_43  and  C28_44 
REMARK   17  A    between atoms: C28_44  and  C29_45 
ROOT
HETATM    1  N1  UNL     1       2.529   4.633  -5.991  1.00  0.00    -0.258 N 
HETATM    2  C3  UNL     1       1.504   4.175  -6.848  1.00  0.00     0.079 C 
HETATM    3  C20 UNL     1       1.600   4.021  -8.176  1.00  0.00     0.179 C 
HETATM    4  N4  UNL     1       2.631   4.242  -9.111  1.00  0.00    -0.168 N 
ATOM      5  H4  UNL     1       2.356   4.161 -10.090  1.00  0.00     0.186 HD
HETATM    6  C21 UNL     1       3.999   4.562  -8.893  1.00  0.00     0.697 C 
HETATM    7  N5  UNL     1       4.831   4.268  -9.754  1.00  0.00    -0.198 N 
ATOM      8  H5  UNL     1       5.724   4.589  -9.382  1.00  0.00     0.183 HD
HETATM    9  N6  UNL     1       4.586   5.244  -7.747  1.00  0.00    -0.090 N 
HETATM   10  S1  UNL     1       3.700   5.858  -6.418  1.00  0.00     0.341 S 
HETATM   11  O5  UNL     1       3.022   7.139  -6.782  1.00  0.00    -0.181 OA
HETATM   12  O6  UNL     1       4.550   6.089  -5.209  1.00  0.00    -0.181 OA
ENDROOT
BRANCH   2  13
HETATM   13  C4  UNL     1       0.225   3.837  -6.278  1.00  0.00     0.103 C 
BRANCH  13  14
HETATM   14  C5  UNL     1      -0.663   4.874  -5.786  1.00  0.00    -0.025 A 
HETATM   15  C6  UNL     1      -1.540   5.611  -6.548  1.00  0.00     0.096 A 
HETATM   16  N2  UNL     1      -2.178   6.508  -5.829  1.00  0.00    -0.364 N 
HETATM   17  C7  UNL     1      -1.774   6.428  -4.554  1.00  0.00     0.049 A 
ATOM     18  H2  UNL     1      -2.873   7.163  -6.187  1.00  0.00     0.165 HD
HETATM   19  C8  UNL     1      -2.147   7.153  -3.422  1.00  0.00    -0.030 A 
HETATM   20  C19 UNL     1      -0.835   5.423  -4.509  1.00  0.00    -0.001 A 
HETATM   21  C16 UNL     1      -1.527   6.818  -2.237  1.00  0.00     0.009 A 
HETATM   22  C17 UNL     1      -0.584   5.816  -2.163  1.00  0.00     0.002 A 
HETATM   23  C18 UNL     1      -0.253   5.133  -3.304  1.00  0.00     0.014 A 
BRANCH  19  24
HETATM   24  C9  UNL     1      -3.159   8.207  -3.540  1.00  0.00     0.054 C 
BRANCH  24  25
HETATM   25  C10 UNL     1      -4.370   8.015  -2.666  1.00  0.00     0.078 C 
HETATM   26  C11 UNL     1      -5.166   9.265  -2.458  1.00  0.00     0.020 C 
BRANCH  25  27
HETATM   27  C12 UNL     1      -5.181   6.909  -3.256  1.00  0.00     0.221 C 
HETATM   28  O1  UNL     1      -4.922   5.696  -2.988  1.00  0.00    -0.273 OA
HETATM   29  N3  UNL     1      -6.255   7.225  -4.125  1.00  0.00    -0.361 N 
ATOM     30  H3  UNL     1      -6.444   8.208  -4.323  1.00  0.00     0.162 HD
BRANCH  29  31
HETATM   31  C13 UNL     1      -7.096   6.227  -4.743  1.00  0.00     0.124 C 
BRANCH  31  32
HETATM   32  C14 UNL     1      -8.277   5.838  -3.894  1.00  0.00     0.046 C 
BRANCH  32  33
HETATM   33  C15 UNL     1      -8.936   4.589  -4.485  1.00  0.00     0.165 C 
BRANCH  33  34
HETATM   34  O2  UNL     1      -9.124   3.613  -3.507  1.00  0.00    -0.401 OA
ATOM     35  H2  UNL     1      -8.320   3.133  -3.346  1.00  0.00     0.209 HD
ENDBRANCH  33  34
ENDBRANCH  32  33
ENDBRANCH  31  32
ENDBRANCH  29  31
ENDBRANCH  25  27
ENDBRANCH  24  25
ENDBRANCH  19  24
ENDBRANCH  13  14
ENDBRANCH   2  13
BRANCH   1  36
HETATM   36  C2  UNL     1       2.677   4.038  -4.700  1.00  0.00     0.139 C 
HETATM   37  C1  UNL     1       3.616   2.808  -4.763  1.00  0.00     0.028 C 
ENDBRANCH   1  36
BRANCH   3  38
HETATM   38  O3  UNL     1       0.409   3.540  -8.748  1.00  0.00    -0.344 OA
ATOM     39  H3  UNL     1      -0.355   3.746  -8.221  1.00  0.00     0.219 HD
ENDBRANCH   3  38
BRANCH   9  40
HETATM   40  C28 UNL     1       5.988   5.427  -7.824  1.00  0.00     0.166 C 
BRANCH  40  41
HETATM   41  C29 UNL     1       6.848   4.669  -6.883  1.00  0.00    -0.003 C 
HETATM   42  C30 UNL     1       7.424   3.451  -7.548  1.00  0.00     0.011 C 
HETATM   43  C31 UNL     1       8.058   5.519  -6.456  1.00  0.00     0.011 C 
ENDBRANCH  40  41
ENDBRANCH   9  40
BRANCH   7  44
HETATM   44  C22 UNL     1       5.130   3.712 -10.984  1.00  0.00     0.003 C 
HETATM   45  C23 UNL     1       6.087   4.599 -11.802  1.00  0.00     0.064 C 
BRANCH  44  46
HETATM   46  C24 UNL     1       5.388   2.261 -11.086  1.00  0.00     0.084 C 
BRANCH  46  47
HETATM   47  C25 UNL     1       4.323   1.288 -10.692  1.00  0.00     0.122 C 
HETATM   48  C26 UNL     1       4.336   0.738  -9.320  1.00  0.00     0.040 C 
BRANCH  47  49
HETATM   49  O4  UNL     1       3.040   1.841 -10.946  1.00  0.00    -0.391 OA
HETATM   50  C27 UNL     1       2.018   1.003 -10.543  1.00  0.00     0.202 C 
ENDBRANCH  47  49
ENDBRANCH  46  47
ENDBRANCH  44  46
ENDBRANCH   7  44
TORSDOF 17
ENDMDL
MODEL 3
REMARK VINA RESULT: -8.110381703      2.420      4.340
REMARK  17 active torsions:
REMARK  status: ('A' for Active; 'I' for Inactive)
REMARK    1  A    between atoms: C2_2  and  N1_3 
REMARK    2  A    between atoms: C3_4  and  C4_5 
REMARK    3  A    between atoms: C4_5  and  C5_6 
REMARK    4  A    between atoms: C8_11  and  C9_12 
REMARK    5  A    between atoms: C9_12  and  C10_13 
REMARK    6  A    between atoms: C10_13  and  C12_15 
REMARK       I    between atoms: C12_15  and  N3_17 
REMARK    7  A    between atoms: N3_17  and  C13_19 
REMARK    8  A    between atoms: C13_19  and  C14_20 
REMARK    9  A    between atoms: C14_20  and  C15_21 
REMARK   10  A    between atoms: C15_21  and  O2_22 
REMARK   11  A    between atoms: C20_28  and  O3_29 
REMARK   12  A    between atoms: N5_34  and  C22_36 
REMARK   13  A    between atoms: C22_36  and  C24_38 
REMARK   14  A    between atoms: C24_38  and  C25_39 
REMARK   15  A    between atoms: C25_39  and  O4_41 
REMARK   16  A    between atoms: N6_43  and  C28_44 
REMARK   17  A    between atoms: C28_44  and  C29_45 
ROOT
HETATM    1  N1  UNL     1       1.874   4.113  -7.938  1.00  0.00    -0.258 N 
HETATM    2  C3  UNL     1       1.477   3.806  -6.617  1.00  0.00     0.079 C 
HETATM    3  C20 UNL     1       1.050   2.613  -6.182  1.00  0.00     0.179 C 
HETATM    4  N4  UNL     1       0.847   1.364  -6.803  1.00  0.00    -0.168 N 
ATOM      5  H4  UNL     1       0.374   0.665  -6.229  1.00  0.00     0.186 HD
HETATM    6  C21 UNL     1       1.202   0.934  -8.110  1.00  0.00     0.697 C 
HETATM    7  N5  UNL     1       1.373  -0.268  -8.322  1.00  0.00    -0.198 N 
ATOM      8  H5  UNL     1       1.616  -0.332  -9.310  1.00  0.00     0.183 HD
HETATM    9  N6  UNL     1       1.377   1.751  -9.303  1.00  0.00    -0.090 N 
HETATM   10  S1  UNL     1       1.133   3.443  -9.372  1.00  0.00     0.341 S 
HETATM   11  O5  UNL     1      -0.326   3.764  -9.416  1.00  0.00    -0.181 OA
HETATM   12  O6  UNL     1       1.803   4.081 -10.547  1.00  0.00    -0.181 OA
ENDROOT
BRANCH   2  13
HETATM   13  C4  UNL     1       1.521   4.848  -5.623  1.00  0.00     0.103 C 
BRANCH  13  14
HETATM   14  C5  UNL     1       0.315   5.561  -5.245  1.00  0.00    -0.025 A 
HETATM   15  C6  UNL     1      -0.573   6.156  -6.112  1.00  0.00     0.096 A 
HETATM   16  N2  UNL     1      -1.546   6.765  -5.471  1.00  0.00    -0.364 N 
HETATM   17  C7  UNL     1      -1.375   6.617  -4.152  1.00  0.00     0.049 A 
ATOM     18  H2  UNL     1      -2.314   7.271  -5.912  1.00  0.00     0.165 HD
HETATM   19  C8  UNL     1      -2.127   7.071  -3.067  1.00  0.00    -0.030 A 
HETATM   20  C19 UNL     1      -0.226   5.875  -3.993  1.00  0.00    -0.001 A 
HETATM   21  C16 UNL     1      -1.666   6.742  -1.810  1.00  0.00     0.009 A 
HETATM   22  C17 UNL     1      -0.520   6.000  -1.621  1.00  0.00     0.002 A 
HETATM   23  C18 UNL     1       0.182   5.578  -2.720  1.00  0.00     0.014 A 
BRANCH  19  24
HETATM   24  C9  UNL     1      -3.344   7.850  -3.309  1.00  0.00     0.054 C 
BRANCH  24  25
HETATM   25  C10 UNL     1      -4.544   7.403  -2.516  1.00  0.00     0.078 C 
HETATM   26  C11 UNL     1      -5.363   8.534  -1.977  1.00  0.00     0.020 C 
BRANCH  25  27
HETATM   27  C12 UNL     1      -5.337   6.480  -3.381  1.00  0.00     0.221 C 
HETATM   28  O1  UNL     1      -5.011   5.260  -3.502  1.00  0.00    -0.273 OA
HETATM   29  N3  UNL     1      -6.469   6.981  -4.072  1.00  0.00    -0.361 N 
ATOM     30  H3  UNL     1      -6.711   7.965  -3.956  1.00  0.00     0.162 HD
BRANCH  29  31
HETATM   31  C13 UNL     1      -7.298   6.167  -4.930  1.00  0.00     0.124 C 
BRANCH  31  32
HETATM   32  C14 UNL     1      -8.684   5.950  -4.384  1.00  0.00     0.046 C 
BRANCH  32  33
HETATM   33  C15 UNL     1      -8.791   4.531  -3.821  1.00  0.00     0.165 C 
BRANCH  33  34
HETATM   34  O2  UNL     1      -7.571   3.864  -3.912  1.00  0.00    -0.401 OA
ATOM     35  H2  UNL     1      -7.019   4.059  -3.164  1.00  0.00     0.209 HD
ENDBRANCH  33  34
ENDBRANCH  32  33
ENDBRANCH  31  32
ENDBRANCH  29  31
ENDBRANCH  25  27
ENDBRANCH  24  25
ENDBRANCH  19  24
ENDBRANCH  13  14
ENDBRANCH   2  13
BRANCH   1  36
HETATM   36  C2  UNL     1       2.986   4.986  -8.148  1.00  0.00     0.139 C 
HETATM   37  C1  UNL     1       4.324   4.231  -7.954  1.00  0.00     0.028 C 
ENDBRANCH   1  36
BRANCH   3  38
HETATM   38  O3  UNL     1       0.737   2.623  -4.811  1.00  0.00    -0.344 OA
ATOM     39  H3  UNL     1       1.437   2.987  -4.282  1.00  0.00     0.219 HD
ENDBRANCH   3  38
BRANCH   9  40
HETATM   40  C28 UNL     1       1.726   1.026 -10.469  1.00  0.00     0.166 C 
BRANCH  40  41
HETATM   41  C29 UNL     1       3.116   1.131 -10.973  1.00  0.00    -0.003 C 
HETATM   42  C30 UNL     1       4.101   1.085  -9.839  1.00  0.00     0.011 C 
HETATM   43  C31 UNL     1       3.457  -0.074 -11.867  1.00  0.00     0.011 C 
ENDBRANCH  40  41
ENDBRANCH   9  40
BRANCH   7  44
HETATM   44  C22 UNL     1       1.393  -1.571  -7.860  1.00  0.00     0.003 C 
HETATM   45  C23 UNL     1       0.589  -2.520  -8.769  1.00  0.00     0.064 C 
BRANCH  44  46
HETATM   46  C24 UNL     1       2.649  -2.139  -7.328  1.00  0.00     0.084 C 
BRANCH  46  47
HETATM   47  C25 UNL     1       3.324  -1.484  -6.164  1.00  0.00     0.122 C 
HETATM   48  C26 UNL     1       4.431  -0.541  -6.423  1.00  0.00     0.040 C 
BRANCH  47  49
HETATM   49  O4  UNL     1       2.362  -0.839  -5.343  1.00  0.00    -0.391 OA
HETATM   50  C27 UNL     1       2.937  -0.214  -4.253  1.00  0.00     0.202 C 
ENDBRANCH  47  49
ENDBRANCH  46  47
ENDBRANCH  44  46
ENDBRANCH   7  44
TORSDOF 17
ENDMDL
MODEL 4
REMARK VINA RESULT: -8.042079798      2.982      4.892
REMARK  17 active torsions:
REMARK  status: ('A' for Active; 'I' for Inactive)
REMARK    1  A    between atoms: C2_2  and  N1_3 
REMARK    2  A    between atoms: C3_4  and  C4_5 
REMARK    3  A    between atoms: C4_5  and  C5_6 
REMARK    4  A    between atoms: C8_11  and  C9_12 
REMARK    5  A    between atoms: C9_12  and  C10_13 
REMARK    6  A    between atoms: C10_13  and  C12_15 
REMARK       I    between atoms: C12_15  and  N3_17 
REMARK    7  A    between atoms: N3_17  and  C13_19 
REMARK    8  A    between atoms: C13_19  and  C14_20 
REMARK    9  A    between atoms: C14_20  and  C15_21 
REMARK   10  A    between atoms: C15_21  and  O2_22 
REMARK   11  A    between atoms: C20_28  and  O3_29 
REMARK   12  A    between atoms: N5_34  and  C22_36 
REMARK   13  A    between atoms: C22_36  and  C24_38 
REMARK   14  A    between atoms: C24_38  and  C25_39 
REMARK   15  A    between atoms: C25_39  and  O4_41 
REMARK   16  A    between atoms: N6_43  and  C28_44 
REMARK   17  A    between atoms: C28_44  and  C29_45 
ROOT
HETATM    1  N1  UNL     1       1.703   3.163  -8.353  1.00  0.00    -0.258 N 
HETATM    2  C3  UNL     1       2.133   3.168  -7.008  1.00  0.00     0.079 C 
HETATM    3  C20 UNL     1       2.509   2.095  -6.298  1.00  0.00     0.179 C 
HETATM    4  N4  UNL     1       2.597   0.718  -6.586  1.00  0.00    -0.168 N 
ATOM      5  H4  UNL     1       2.791   0.118  -5.784  1.00  0.00     0.186 HD
HETATM    6  C21 UNL     1       2.455   0.041  -7.828  1.00  0.00     0.697 C 
HETATM    7  N5  UNL     1       3.004  -1.052  -7.983  1.00  0.00    -0.198 N 
ATOM      8  H5  UNL     1       2.766  -1.336  -8.933  1.00  0.00     0.183 HD
HETATM    9  N6  UNL     1       1.695   0.465  -8.996  1.00  0.00    -0.090 N 
HETATM   10  S1  UNL     1       0.751   1.890  -9.081  1.00  0.00     0.341 S 
HETATM   11  O5  UNL     1      -0.542   1.712  -8.355  1.00  0.00    -0.181 OA
HETATM   12  O6  UNL     1       0.461   2.312 -10.486  1.00  0.00    -0.181 OA
ENDROOT
BRANCH   2  13
HETATM   13  C4  UNL     1       2.180   4.423  -6.302  1.00  0.00     0.103 C 
BRANCH  13  14
HETATM   14  C5  UNL     1       0.991   4.959  -5.665  1.00  0.00    -0.025 A 
HETATM   15  C6  UNL     1      -0.196   5.256  -6.296  1.00  0.00     0.096 A 
HETATM   16  N2  UNL     1      -1.075   5.769  -5.464  1.00  0.00    -0.364 N 
HETATM   17  C7  UNL     1      -0.540   5.847  -4.239  1.00  0.00     0.049 A 
ATOM     18  H2  UNL     1      -2.019   6.063  -5.714  1.00  0.00     0.165 HD
HETATM   19  C8  UNL     1      -1.063   6.312  -3.032  1.00  0.00    -0.030 A 
HETATM   20  C19 UNL     1       0.739   5.350  -4.345  1.00  0.00    -0.001 A 
HETATM   21  C16 UNL     1      -0.235   6.255  -1.932  1.00  0.00     0.009 A 
HETATM   22  C17 UNL     1       1.051   5.763  -2.008  1.00  0.00     0.002 A 
HETATM   23  C18 UNL     1       1.516   5.317  -3.218  1.00  0.00     0.014 A 
BRANCH  19  24
HETATM   24  C9  UNL     1      -2.437   6.821  -2.990  1.00  0.00     0.054 C 
BRANCH  24  25
HETATM   25  C10 UNL     1      -3.382   6.010  -2.141  1.00  0.00     0.078 C 
HETATM   26  C11 UNL     1      -3.784   6.692  -0.871  1.00  0.00     0.020 C 
BRANCH  25  27
HETATM   27  C12 UNL     1      -4.551   5.645  -2.994  1.00  0.00     0.221 C 
HETATM   28  O1  UNL     1      -5.502   6.464  -3.182  1.00  0.00    -0.273 OA
HETATM   29  N3  UNL     1      -4.593   4.365  -3.601  1.00  0.00    -0.361 N 
ATOM     30  H3  UNL     1      -3.815   3.725  -3.436  1.00  0.00     0.162 HD
BRANCH  29  31
HETATM   31  C13 UNL     1      -5.680   3.920  -4.442  1.00  0.00     0.124 C 
BRANCH  31  32
HETATM   32  C14 UNL     1      -5.312   3.852  -5.900  1.00  0.00     0.046 C 
BRANCH  32  33
HETATM   33  C15 UNL     1      -6.212   4.802  -6.694  1.00  0.00     0.165 C 
BRANCH  33  34
HETATM   34  O2  UNL     1      -6.642   5.865  -5.900  1.00  0.00    -0.401 OA
ATOM     35  H2  UNL     1      -7.549   6.080  -6.081  1.00  0.00     0.209 HD
ENDBRANCH  33  34
ENDBRANCH  32  33
ENDBRANCH  31  32
ENDBRANCH  29  31
ENDBRANCH  25  27
ENDBRANCH  24  25
ENDBRANCH  19  24
ENDBRANCH  13  14
ENDBRANCH   2  13
BRANCH   1  36
HETATM   36  C2  UNL     1       2.100   4.230  -9.217  1.00  0.00     0.139 C 
HETATM   37  C1  UNL     1       3.441   3.901  -9.920  1.00  0.00     0.028 C 
ENDBRANCH   1  36
BRANCH   3  38
HETATM   38  O3  UNL     1       2.890   2.427  -4.986  1.00  0.00    -0.344 OA
ATOM     39  H3  UNL     1       2.986   1.661  -4.432  1.00  0.00     0.219 HD
ENDBRANCH   3  38
BRANCH   9  40
HETATM   40  C28 UNL     1       1.739  -0.435 -10.088  1.00  0.00     0.166 C 
BRANCH  40  41
HETATM   41  C29 UNL     1       2.369   0.022 -11.351  1.00  0.00    -0.003 C 
HETATM   42  C30 UNL     1       3.861   0.115 -11.202  1.00  0.00     0.011 C 
HETATM   43  C31 UNL     1       2.127  -1.003 -12.473  1.00  0.00     0.011 C 
ENDBRANCH  40  41
ENDBRANCH   9  40
BRANCH   7  44
HETATM   44  C22 UNL     1       3.787  -2.076  -7.485  1.00  0.00     0.003 C 
HETATM   45  C23 UNL     1       5.287  -1.726  -7.519  1.00  0.00     0.064 C 
BRANCH  44  46
HETATM   46  C24 UNL     1       3.349  -2.812  -6.281  1.00  0.00     0.084 C 
BRANCH  46  47
HETATM   47  C25 UNL     1       1.935  -3.289  -6.177  1.00  0.00     0.122 C 
HETATM   48  C26 UNL     1       1.636  -4.441  -5.301  1.00  0.00     0.040 C 
BRANCH  47  49
HETATM   49  O4  UNL     1       1.083  -2.212  -5.817  1.00  0.00    -0.391 OA
HETATM   50  C27 UNL     1      -0.134  -2.264  -6.469  1.00  0.00     0.202 C 
ENDBRANCH  47  49
ENDBRANCH  46  47
ENDBRANCH  44  46
ENDBRANCH   7  44
TORSDOF 17
ENDMDL
MODEL 5
REMARK VINA RESULT: -7.945793165      2.879      4.819
REMARK  17 active torsions:
REMARK  status: ('A' for Active; 'I' for Inactive)
REMARK    1  A    between atoms: C2_2  and  N1_3 
REMARK    2  A    between atoms: C3_4  and  C4_5 
REMARK    3  A    between atoms: C4_5  and  C5_6 
REMARK    4  A    between atoms: C8_11  and  C9_12 
REMARK    5  A    between atoms: C9_12  and  C10_13 
REMARK    6  A    between atoms: C10_13  and  C12_15 
REMARK       I    between atoms: C12_15  and  N3_17 
REMARK    7  A    between atoms: N3_17  and  C13_19 
REMARK    8  A    between atoms: C13_19  and  C14_20 
REMARK    9  A    between atoms: C14_20  and  C15_21 
REMARK   10  A    between atoms: C15_21  and  O2_22 
REMARK   11  A    between atoms: C20_28  and  O3_29 
REMARK   12  A    between atoms: N5_34  and  C22_36 
REMARK   13  A    between atoms: C22_36  and  C24_38 
REMARK   14  A    between atoms: C24_38  and  C25_39 
REMARK   15  A    between atoms: C25_39  and  O4_41 
REMARK   16  A    between atoms: N6_43  and  C28_44 
REMARK   17  A    between atoms: C28_44  and  C29_45 
ROOT
HETATM    1  N1  UNL     1       1.708   3.053  -8.408  1.00  0.00    -0.258 N 
HETATM    2  C3  UNL     1       2.120   3.079  -7.057  1.00  0.00     0.079 C 
HETATM    3  C20 UNL     1       2.578   2.034  -6.355  1.00  0.00     0.179 C 
HETATM    4  N4  UNL     1       2.787   0.673  -6.656  1.00  0.00    -0.168 N 
ATOM      5  H4  UNL     1       3.021   0.082  -5.858  1.00  0.00     0.186 HD
HETATM    6  C21 UNL     1       2.718   0.001  -7.906  1.00  0.00     0.697 C 
HETATM    7  N5  UNL     1       3.360  -1.040  -8.067  1.00  0.00    -0.198 N 
ATOM      8  H5  UNL     1       3.158  -1.332  -9.022  1.00  0.00     0.183 HD
HETATM    9  N6  UNL     1       1.939   0.372  -9.079  1.00  0.00    -0.090 N 
HETATM   10  S1  UNL     1       0.878   1.713  -9.162  1.00  0.00     0.341 S 
HETATM   11  O5  UNL     1      -0.404   1.416  -8.454  1.00  0.00    -0.181 OA
HETATM   12  O6  UNL     1       0.569   2.125 -10.566  1.00  0.00    -0.181 OA
ENDROOT
BRANCH   2  13
HETATM   13  C4  UNL     1       2.051   4.325  -6.338  1.00  0.00     0.103 C 
BRANCH  13  14
HETATM   14  C5  UNL     1       0.867   4.675  -5.575  1.00  0.00    -0.025 A 
HETATM   15  C6  UNL     1      -0.427   4.657  -6.044  1.00  0.00     0.096 A 
HETATM   16  N2  UNL     1      -1.281   5.069  -5.134  1.00  0.00    -0.364 N 
HETATM   17  C7  UNL     1      -0.623   5.383  -4.011  1.00  0.00     0.049 A 
ATOM     18  H2  UNL     1      -2.291   5.137  -5.263  1.00  0.00     0.165 HD
HETATM   19  C8  UNL     1      -1.074   5.860  -2.780  1.00  0.00    -0.030 A 
HETATM   20  C19 UNL     1       0.709   5.147  -4.266  1.00  0.00    -0.001 A 
HETATM   21  C16 UNL     1      -0.118   6.090  -1.814  1.00  0.00     0.009 A 
HETATM   22  C17 UNL     1       1.222   5.861  -2.042  1.00  0.00     0.002 A 
HETATM   23  C18 UNL     1       1.614   5.392  -3.268  1.00  0.00     0.014 A 
BRANCH  19  24
HETATM   24  C9  UNL     1      -2.508   6.083  -2.574  1.00  0.00     0.054 C 
BRANCH  24  25
HETATM   25  C10 UNL     1      -2.943   7.520  -2.693  1.00  0.00     0.078 C 
HETATM   26  C11 UNL     1      -2.255   8.267  -3.792  1.00  0.00     0.020 C 
BRANCH  25  27
HETATM   27  C12 UNL     1      -4.429   7.530  -2.833  1.00  0.00     0.221 C 
HETATM   28  O1  UNL     1      -5.143   8.333  -2.158  1.00  0.00    -0.273 OA
HETATM   29  N3  UNL     1      -5.045   6.628  -3.737  1.00  0.00    -0.361 N 
ATOM     30  H3  UNL     1      -4.450   5.994  -4.270  1.00  0.00     0.162 HD
BRANCH  29  31
HETATM   31  C13 UNL     1      -6.474   6.563  -3.943  1.00  0.00     0.124 C 
BRANCH  31  32
HETATM   32  C14 UNL     1      -6.968   5.169  -4.227  1.00  0.00     0.046 C 
BRANCH  32  33
HETATM   33  C15 UNL     1      -5.840   4.351  -4.859  1.00  0.00     0.165 C 
BRANCH  33  34
HETATM   34  O2  UNL     1      -5.233   3.524  -3.915  1.00  0.00    -0.401 OA
ATOM     35  H2  UNL     1      -5.792   3.405  -3.156  1.00  0.00     0.209 HD
ENDBRANCH  33  34
ENDBRANCH  32  33
ENDBRANCH  31  32
ENDBRANCH  29  31
ENDBRANCH  25  27
ENDBRANCH  24  25
ENDBRANCH  19  24
ENDBRANCH  13  14
ENDBRANCH   2  13
BRANCH   1  36
HETATM   36  C2  UNL     1       2.023   4.160  -9.256  1.00  0.00     0.139 C 
HETATM   37  C1  UNL     1       3.405   3.966  -9.926  1.00  0.00     0.028 C 
ENDBRANCH   1  36
BRANCH   3  38
HETATM   38  O3  UNL     1       2.914   2.381  -5.034  1.00  0.00    -0.344 OA
ATOM     39  H3  UNL     1       3.086   1.620  -4.492  1.00  0.00     0.219 HD
ENDBRANCH   3  38
BRANCH   9  40
HETATM   40  C28 UNL     1       2.072  -0.508 -10.181  1.00  0.00     0.166 C 
BRANCH  40  41
HETATM   41  C29 UNL     1       2.642   0.025 -11.442  1.00  0.00    -0.003 C 
HETATM   42  C30 UNL     1       4.144  -0.004 -11.404  1.00  0.00     0.011 C 
HETATM   43  C31 UNL     1       2.240  -0.864 -12.632  1.00  0.00     0.011 C 
ENDBRANCH  40  41
ENDBRANCH   9  40
BRANCH   7  44
HETATM   44  C22 UNL     1       4.222  -1.999  -7.569  1.00  0.00     0.003 C 
HETATM   45  C23 UNL     1       5.698  -1.633  -7.814  1.00  0.00     0.064 C 
BRANCH  44  46
HETATM   46  C24 UNL     1       3.946  -2.620  -6.257  1.00  0.00     0.084 C 
BRANCH  46  47
HETATM   47  C25 UNL     1       2.576  -3.136  -5.954  1.00  0.00     0.122 C 
HETATM   48  C26 UNL     1       2.436  -4.290  -5.042  1.00  0.00     0.040 C 
BRANCH  47  49
HETATM   49  O4  UNL     1       1.752  -2.081  -5.479  1.00  0.00    -0.391 OA
HETATM   50  C27 UNL     1       0.451  -2.186  -5.932  1.00  0.00     0.202 C 
ENDBRANCH  47  49
ENDBRANCH  46  47
ENDBRANCH  44  46
ENDBRANCH   7  44
TORSDOF 17
ENDMDL
