MODEL 1
REMARK VINA RESULT: -9.465187222      0.000      0.000
REMARK  16 active torsions:
REMARK  status: ('A' for Active; 'I' for Inactive)
REMARK    1  A    between atoms: C1_2  and  C2_3 
REMARK       I    between atoms: C1_2  and  N3_26 
REMARK    2  A    between atoms: C2_3  and  N1_4 
REMARK    3  A    between atoms: C18_23  and  O3_24 
REMARK    4  A    between atoms: N3_26  and  C19_28 
REMARK    5  A    between atoms: C19_28  and  C20_29 
REMARK    6  A    between atoms: C20_29  and  C21_30 
REMARK    7  A    between atoms: C21_30  and  N4_31 
REMARK    8  A    between atoms: N4_31  and  C22_34 
REMARK    9  A    between atoms: C22_34  and  C23_35 
REMARK   10  A    between atoms: C23_35  and  C24_36 
REMARK   11  A    between atoms: C24_36  and  C25_37 
REMARK   12  A    between atoms: C25_37  and  N5_38 
REMARK   13  A    between atoms: N5_38  and  C26_41 
REMARK   14  A    between atoms: C26_41  and  C27_42 
REMARK   15  A    between atoms: C27_42  and  C28_43 
REMARK   16  A    between atoms: C28_43  and  N6_44 
ROOT
HETATM    1  O1  UNL     1      -1.802   5.052  -8.377  1.00  0.00    -0.271 OA
HETATM    2  C1  UNL     1      -2.314   5.011  -7.235  1.00  0.00     0.239 C 
HETATM    3  N3  UNL     1      -2.201   6.060  -6.332  1.00  0.00    -0.339 N 
ATOM      4  H3  UNL     1      -2.694   5.932  -5.448  1.00  0.00     0.167 HD
ENDROOT
BRANCH   3   5
HETATM    5  C19 UNL     1      -1.504   7.274  -6.465  1.00  0.00     0.065 C 
BRANCH   5   6
HETATM    6  C20 UNL     1      -1.208   8.081  -5.271  1.00  0.00     0.072 C 
BRANCH   6   7
HETATM    7  C21 UNL     1      -2.116   9.165  -4.832  1.00  0.00     0.237 C 
BRANCH   7   8
HETATM    8  N4  UNL     1      -3.271   8.545  -4.110  1.00  0.00    -0.075 N 
ATOM      9  H42 UNL     1      -4.170   8.772  -4.535  1.00  0.00     0.277 HD
ATOM     10  H41 UNL     1      -3.314   7.533  -4.231  1.00  0.00     0.277 HD
BRANCH   8  11
HETATM   11  C22 UNL     1      -3.192   8.941  -2.718  1.00  0.00     0.232 C 
BRANCH  11  12
HETATM   12  C23 UNL     1      -4.140   8.176  -1.857  1.00  0.00     0.029 C 
BRANCH  12  13
HETATM   13  C24 UNL     1      -3.512   7.061  -1.079  1.00  0.00     0.029 C 
BRANCH  13  14
HETATM   14  C25 UNL     1      -3.655   5.738  -1.826  1.00  0.00     0.232 C 
BRANCH  14  15
HETATM   15  N5  UNL     1      -2.453   5.405  -2.580  1.00  0.00    -0.075 N 
ATOM     16  H52 UNL     1      -2.497   4.467  -2.979  1.00  0.00     0.277 HD
ATOM     17  H51 UNL     1      -2.387   5.931  -3.451  1.00  0.00     0.277 HD
BRANCH  15  18
HETATM   18  C26 UNL     1      -1.297   5.587  -1.745  1.00  0.00     0.234 C 
BRANCH  18  19
HETATM   19  C27 UNL     1      -0.229   6.458  -2.338  1.00  0.00     0.048 C 
BRANCH  19  20
HETATM   20  C28 UNL     1       1.104   5.700  -2.381  1.00  0.00     0.137 C 
BRANCH  20  21
HETATM   21  N6  UNL     1       1.497   5.547  -3.762  1.00  0.00    -0.280 N 
HETATM   22  C29 UNL     1       0.846   4.799  -4.797  1.00  0.00     0.261 A 
HETATM   23  O4  UNL     1      -0.231   4.168  -4.621  1.00  0.00    -0.267 OA
HETATM   24  C30 UNL     1       1.646   4.923  -6.005  1.00  0.00     0.048 A 
HETATM   25  C31 UNL     1       1.478   4.404  -7.273  1.00  0.00     0.018 A 
HETATM   26  C35 UNL     1       2.763   5.715  -5.759  1.00  0.00     0.048 A 
HETATM   27  C32 UNL     1       2.378   4.649  -8.275  1.00  0.00     0.001 A 
HETATM   28  C33 UNL     1       3.496   5.441  -8.024  1.00  0.00     0.001 A 
HETATM   29  C34 UNL     1       3.676   5.973  -6.744  1.00  0.00     0.018 A 
HETATM   30  C36 UNL     1       2.682   6.113  -4.361  1.00  0.00     0.261 A 
HETATM   31  O5  UNL     1       3.514   6.839  -3.760  1.00  0.00    -0.267 OA
ENDBRANCH  20  21
ENDBRANCH  19  20
ENDBRANCH  18  19
ENDBRANCH  15  18
ENDBRANCH  14  15
ENDBRANCH  13  14
ENDBRANCH  12  13
ENDBRANCH  11  12
ENDBRANCH   8  11
ENDBRANCH   7   8
ENDBRANCH   6   7
ENDBRANCH   5   6
ENDBRANCH   3   5
BRANCH   2  32
HETATM   32  C2  UNL     1      -3.031   3.733  -6.940  1.00  0.00     0.229 C 
BRANCH  32  33
HETATM   33  N1  UNL     1      -4.451   3.832  -6.910  1.00  0.00    -0.341 N 
HETATM   34  C3  UNL     1      -5.232   3.439  -8.041  1.00  0.00     0.045 A 
HETATM   35  C4  UNL     1      -4.547   3.064  -9.210  1.00  0.00     0.030 A 
HETATM   36  C8  UNL     1      -6.609   3.371  -8.048  1.00  0.00     0.018 A 
HETATM   37  C5  UNL     1      -5.303   2.648 -10.293  1.00  0.00     0.002 A 
HETATM   38  C6  UNL     1      -6.666   2.585 -10.285  1.00  0.00     0.001 A 
HETATM   39  C7  UNL     1      -7.361   2.960  -9.121  1.00  0.00     0.016 A 
HETATM   40  C9  UNL     1      -7.296   3.766  -6.792  1.00  0.00     0.060 A 
HETATM   41  N2  UNL     1      -8.637   3.730  -6.711  1.00  0.00    -0.354 N 
HETATM   42  C17 UNL     1      -6.564   4.171  -5.706  1.00  0.00     0.069 A 
HETATM   43  C10 UNL     1      -9.227   4.102  -5.542  1.00  0.00     0.046 A 
ATOM     44  H2  UNL     1      -9.199   3.430  -7.507  1.00  0.00     0.166 HD
HETATM   45  C11 UNL     1     -10.614   4.068  -5.453  1.00  0.00     0.030 A 
HETATM   46  C15 UNL     1      -8.536   4.513  -4.436  1.00  0.00     0.041 A 
HETATM   47  C12 UNL     1     -11.277   4.431  -4.299  1.00  0.00     0.002 A 
HETATM   48  C13 UNL     1     -10.581   4.843  -3.190  1.00  0.00     0.001 A 
HETATM   49  C14 UNL     1      -9.204   4.882  -3.266  1.00  0.00     0.018 A 
HETATM   50  C16 UNL     1      -7.165   4.549  -4.519  1.00  0.00     0.197 A 
HETATM   51  O2  UNL     1      -6.492   4.926  -3.511  1.00  0.00    -0.287 OA
HETATM   52  C18 UNL     1      -5.082   4.255  -5.703  1.00  0.00     0.261 A 
BRANCH  52  53
HETATM   53  O3  UNL     1      -4.610   3.752  -4.522  1.00  0.00    -0.372 OA
ATOM     54  H3  UNL     1      -4.445   4.362  -3.812  1.00  0.00     0.212 HD
ENDBRANCH  52  53
ENDBRANCH  32  33
ENDBRANCH   2  32
TORSDOF 16
ENDMDL
MODEL 2
REMARK VINA RESULT: -9.188268707      2.604      5.982
REMARK  16 active torsions:
REMARK  status: ('A' for Active; 'I' for Inactive)
REMARK    1  A    between atoms: C1_2  and  C2_3 
REMARK       I    between atoms: C1_2  and  N3_26 
REMARK    2  A    between atoms: C2_3  and  N1_4 
REMARK    3  A    between atoms: C18_23  and  O3_24 
REMARK    4  A    between atoms: N3_26  and  C19_28 
REMARK    5  A    between atoms: C19_28  and  C20_29 
REMARK    6  A    between atoms: C20_29  and  C21_30 
REMARK    7  A    between atoms: C21_30  and  N4_31 
REMARK    8  A    between atoms: N4_31  and  C22_34 
REMARK    9  A    between atoms: C22_34  and  C23_35 
REMARK   10  A    between atoms: C23_35  and  C24_36 
REMARK   11  A    between atoms: C24_36  and  C25_37 
REMARK   12  A    between atoms: C25_37  and  N5_38 
REMARK   13  A    between atoms: N5_38  and  C26_41 
REMARK   14  A    between atoms: C26_41  and  C27_42 
REMARK   15  A    between atoms: C27_42  and  C28_43 
REMARK   16  A    between atoms: C28_43  and  N6_44 
ROOT
HETATM    1  O1  UNL     1      -4.972   4.137  -3.480  1.00  0.00    -0.271 OA
HETATM    2  C1  UNL     1      -5.434   5.129  -4.089  1.00  0.00     0.239 C 
HETATM    3  N3  UNL     1      -5.410   6.409  -3.549  1.00  0.00    -0.339 N 
ATOM      4  H3  UNL     1      -5.776   7.145  -4.153  1.00  0.00     0.167 HD
ENDROOT
BRANCH   3   5
HETATM    5  C19 UNL     1      -4.952   6.832  -2.289  1.00  0.00     0.065 C 
BRANCH   5   6
HETATM    6  C20 UNL     1      -3.526   7.138  -2.094  1.00  0.00     0.072 C 
BRANCH   6   7
HETATM    7  C21 UNL     1      -2.569   6.095  -1.661  1.00  0.00     0.237 C 
BRANCH   7   8
HETATM    8  N4  UNL     1      -2.071   5.382  -2.878  1.00  0.00    -0.075 N 
ATOM      9  H42 UNL     1      -2.303   4.388  -2.876  1.00  0.00     0.277 HD
ATOM     10  H41 UNL     1      -2.580   5.640  -3.723  1.00  0.00     0.277 HD
BRANCH   8  11
HETATM   11  C22 UNL     1      -0.645   5.624  -2.986  1.00  0.00     0.232 C 
BRANCH  11  12
HETATM   12  C23 UNL     1       0.006   5.782  -1.654  1.00  0.00     0.029 C 
BRANCH  12  13
HETATM   13  C24 UNL     1       1.466   6.110  -1.711  1.00  0.00     0.029 C 
BRANCH  13  14
HETATM   14  C25 UNL     1       2.034   5.797  -3.092  1.00  0.00     0.232 C 
BRANCH  14  15
HETATM   15  N5  UNL     1       3.448   6.133  -3.190  1.00  0.00    -0.075 N 
ATOM     16  H52 UNL     1       3.599   7.133  -3.321  1.00  0.00     0.277 HD
ATOM     17  H51 UNL     1       3.932   6.029  -2.298  1.00  0.00     0.277 HD
BRANCH  15  18
HETATM   18  C26 UNL     1       4.057   5.351  -4.232  1.00  0.00     0.234 C 
BRANCH  18  19
HETATM   19  C27 UNL     1       3.161   4.309  -4.835  1.00  0.00     0.048 C 
BRANCH  19  20
HETATM   20  C28 UNL     1       3.820   2.928  -4.734  1.00  0.00     0.137 C 
BRANCH  20  21
HETATM   21  N6  UNL     1       3.296   2.094  -5.791  1.00  0.00    -0.280 N 
HETATM   22  C29 UNL     1       3.948   1.661  -6.991  1.00  0.00     0.261 A 
HETATM   23  O4  UNL     1       5.142   1.953  -7.274  1.00  0.00    -0.267 OA
HETATM   24  C30 UNL     1       2.996   0.869  -7.753  1.00  0.00     0.048 A 
HETATM   25  C31 UNL     1       3.104   0.226  -8.969  1.00  0.00     0.018 A 
HETATM   26  C35 UNL     1       1.785   0.795  -7.073  1.00  0.00     0.048 A 
HETATM   27  C32 UNL     1       2.057  -0.469  -9.511  1.00  0.00     0.001 A 
HETATM   28  C33 UNL     1       0.844  -0.539  -8.829  1.00  0.00     0.001 A 
HETATM   29  C34 UNL     1       0.723   0.107  -7.595  1.00  0.00     0.018 A 
HETATM   30  C36 UNL     1       1.958   1.555  -5.844  1.00  0.00     0.261 A 
HETATM   31  O5  UNL     1       1.081   1.722  -4.959  1.00  0.00    -0.267 OA
ENDBRANCH  20  21
ENDBRANCH  19  20
ENDBRANCH  18  19
ENDBRANCH  15  18
ENDBRANCH  14  15
ENDBRANCH  13  14
ENDBRANCH  12  13
ENDBRANCH  11  12
ENDBRANCH   8  11
ENDBRANCH   7   8
ENDBRANCH   6   7
ENDBRANCH   5   6
ENDBRANCH   3   5
BRANCH   2  32
HETATM   32  C2  UNL     1      -6.019   4.800  -5.424  1.00  0.00     0.229 C 
BRANCH  32  33
HETATM   33  N1  UNL     1      -5.089   4.317  -6.387  1.00  0.00    -0.341 N 
HETATM   34  C3  UNL     1      -5.544   3.709  -7.598  1.00  0.00     0.045 A 
HETATM   35  C4  UNL     1      -6.927   3.505  -7.748  1.00  0.00     0.030 A 
HETATM   36  C8  UNL     1      -4.719   3.342  -8.641  1.00  0.00     0.018 A 
HETATM   37  C5  UNL     1      -7.370   2.949  -8.936  1.00  0.00     0.002 A 
HETATM   38  C6  UNL     1      -6.542   2.591  -9.959  1.00  0.00     0.001 A 
HETATM   39  C7  UNL     1      -5.156   2.790  -9.820  1.00  0.00     0.016 A 
HETATM   40  C9  UNL     1      -3.266   3.582  -8.449  1.00  0.00     0.060 A 
HETATM   41  N2  UNL     1      -2.391   3.254  -9.415  1.00  0.00    -0.354 N 
HETATM   42  C17 UNL     1      -2.809   4.141  -7.283  1.00  0.00     0.069 A 
HETATM   43  C10 UNL     1      -1.067   3.489  -9.198  1.00  0.00     0.046 A 
ATOM     44  H2  UNL     1      -2.711   2.839 -10.289  1.00  0.00     0.166 HD
HETATM   45  C11 UNL     1      -0.157   3.150 -10.192  1.00  0.00     0.030 A 
HETATM   46  C15 UNL     1      -0.569   4.042  -8.051  1.00  0.00     0.041 A 
HETATM   47  C12 UNL     1       1.198   3.361 -10.040  1.00  0.00     0.002 A 
HETATM   48  C13 UNL     1       1.696   3.918  -8.888  1.00  0.00     0.001 A 
HETATM   49  C14 UNL     1       0.803   4.256  -7.893  1.00  0.00     0.018 A 
HETATM   50  C16 UNL     1      -1.464   4.379  -7.065  1.00  0.00     0.197 A 
HETATM   51  O2  UNL     1      -1.035   4.894  -5.987  1.00  0.00    -0.287 OA
HETATM   52  C18 UNL     1      -3.696   4.524  -6.157  1.00  0.00     0.261 A 
BRANCH  52  53
HETATM   53  O3  UNL     1      -3.300   5.741  -5.674  1.00  0.00    -0.372 OA
ATOM     54  H3  UNL     1      -2.412   5.822  -5.344  1.00  0.00     0.212 HD
ENDBRANCH  52  53
ENDBRANCH  32  33
ENDBRANCH   2  32
TORSDOF 16
ENDMDL
MODEL 3
REMARK VINA RESULT: -9.093379341      2.461      8.700
REMARK  16 active torsions:
REMARK  status: ('A' for Active; 'I' for Inactive)
REMARK    1  A    between atoms: C1_2  and  C2_3 
REMARK       I    between atoms: C1_2  and  N3_26 
REMARK    2  A    between atoms: C2_3  and  N1_4 
REMARK    3  A    between atoms: C18_23  and  O3_24 
REMARK    4  A    between atoms: N3_26  and  C19_28 
REMARK    5  A    between atoms: C19_28  and  C20_29 
REMARK    6  A    between atoms: C20_29  and  C21_30 
REMARK    7  A    between atoms: C21_30  and  N4_31 
REMARK    8  A    between atoms: N4_31  and  C22_34 
REMARK    9  A    between atoms: C22_34  and  C23_35 
REMARK   10  A    between atoms: C23_35  and  C24_36 
REMARK   11  A    between atoms: C24_36  and  C25_37 
REMARK   12  A    between atoms: C25_37  and  N5_38 
REMARK   13  A    between atoms: N5_38  and  C26_41 
REMARK   14  A    between atoms: C26_41  and  C27_42 
REMARK   15  A    between atoms: C27_42  and  C28_43 
REMARK   16  A    between atoms: C28_43  and  N6_44 
ROOT
HETATM    1  O1  UNL     1       1.452   0.482  -5.450  1.00  0.00    -0.271 OA
HETATM    2  C1  UNL     1       2.477   1.039  -5.907  1.00  0.00     0.239 C 
HETATM    3  N3  UNL     1       2.994   0.731  -7.158  1.00  0.00    -0.339 N 
ATOM      4  H3  UNL     1       3.807   1.278  -7.443  1.00  0.00     0.167 HD
ENDROOT
BRANCH   3   5
HETATM    5  C19 UNL     1       2.555  -0.227  -8.088  1.00  0.00     0.065 C 
BRANCH   5   6
HETATM    6  C20 UNL     1       1.634   0.168  -9.166  1.00  0.00     0.072 C 
BRANCH   6   7
HETATM    7  C21 UNL     1       0.941   1.476  -9.143  1.00  0.00     0.237 C 
BRANCH   7   8
HETATM    8  N4  UNL     1      -0.134   1.418  -8.104  1.00  0.00    -0.075 N 
ATOM      9  H42 UNL     1      -0.866   0.745  -8.330  1.00  0.00     0.277 HD
ATOM     10  H41 UNL     1       0.181   0.990  -7.234  1.00  0.00     0.277 HD
BRANCH   8  11
HETATM   11  C22 UNL     1      -0.646   2.761  -7.915  1.00  0.00     0.232 C 
BRANCH  11  12
HETATM   12  C23 UNL     1      -2.026   2.923  -8.456  1.00  0.00     0.029 C 
BRANCH  12  13
HETATM   13  C24 UNL     1      -2.616   4.286  -8.260  1.00  0.00     0.029 C 
BRANCH  13  14
HETATM   14  C25 UNL     1      -3.544   4.300  -7.049  1.00  0.00     0.232 C 
BRANCH  14  15
HETATM   15  N5  UNL     1      -4.185   3.008  -6.837  1.00  0.00    -0.075 N 
ATOM     16  H52 UNL     1      -3.651   2.242  -7.247  1.00  0.00     0.277 HD
ATOM     17  H51 UNL     1      -4.140   2.711  -5.863  1.00  0.00     0.277 HD
BRANCH  15  18
HETATM   18  C26 UNL     1      -5.535   3.056  -7.330  1.00  0.00     0.234 C 
BRANCH  18  19
HETATM   19  C27 UNL     1      -6.248   4.352  -7.075  1.00  0.00     0.048 C 
BRANCH  19  20
HETATM   20  C28 UNL     1      -7.059   4.257  -5.777  1.00  0.00     0.137 C 
BRANCH  20  21
HETATM   21  N6  UNL     1      -6.412   5.073  -4.775  1.00  0.00    -0.280 N 
HETATM   22  C29 UNL     1      -6.616   6.462  -4.488  1.00  0.00     0.261 A 
HETATM   23  O4  UNL     1      -7.457   7.177  -5.096  1.00  0.00    -0.267 OA
HETATM   24  C30 UNL     1      -5.704   6.833  -3.418  1.00  0.00     0.048 A 
HETATM   25  C31 UNL     1      -5.488   8.034  -2.773  1.00  0.00     0.018 A 
HETATM   26  C35 UNL     1      -4.946   5.731  -3.033  1.00  0.00     0.048 A 
HETATM   27  C32 UNL     1      -4.555   8.159  -1.780  1.00  0.00     0.001 A 
HETATM   28  C33 UNL     1      -3.796   7.054  -1.398  1.00  0.00     0.001 A 
HETATM   29  C34 UNL     1      -4.007   5.833  -2.043  1.00  0.00     0.018 A 
HETATM   30  C36 UNL     1      -5.379   4.624  -3.872  1.00  0.00     0.261 A 
HETATM   31  O5  UNL     1      -4.927   3.452  -3.823  1.00  0.00    -0.267 OA
ENDBRANCH  20  21
ENDBRANCH  19  20
ENDBRANCH  18  19
ENDBRANCH  15  18
ENDBRANCH  14  15
ENDBRANCH  13  14
ENDBRANCH  12  13
ENDBRANCH  11  12
ENDBRANCH   8  11
ENDBRANCH   7   8
ENDBRANCH   6   7
ENDBRANCH   5   6
ENDBRANCH   3   5
BRANCH   2  32
HETATM   32  C2  UNL     1       3.086   2.039  -4.978  1.00  0.00     0.229 C 
BRANCH  32  33
HETATM   33  N1  UNL     1       2.722   3.392  -5.225  1.00  0.00    -0.341 N 
HETATM   34  C3  UNL     1       3.507   4.210  -6.097  1.00  0.00     0.045 A 
HETATM   35  C4  UNL     1       4.701   3.668  -6.602  1.00  0.00     0.030 A 
HETATM   36  C8  UNL     1       3.151   5.480  -6.499  1.00  0.00     0.018 A 
HETATM   37  C5  UNL     1       5.442   4.447  -7.475  1.00  0.00     0.002 A 
HETATM   38  C6  UNL     1       5.077   5.703  -7.865  1.00  0.00     0.001 A 
HETATM   39  C7  UNL     1       3.885   6.255  -7.364  1.00  0.00     0.016 A 
HETATM   40  C9  UNL     1       1.878   6.014  -5.951  1.00  0.00     0.060 A 
HETATM   41  N2  UNL     1       1.456   7.244  -6.291  1.00  0.00    -0.354 N 
HETATM   42  C17 UNL     1       1.126   5.254  -5.094  1.00  0.00     0.069 A 
HETATM   43  C10 UNL     1       0.284   7.696  -5.764  1.00  0.00     0.046 A 
ATOM     44  H2  UNL     1       2.000   7.824  -6.929  1.00  0.00     0.166 HD
HETATM   45  C11 UNL     1      -0.157   8.968  -6.111  1.00  0.00     0.030 A 
HETATM   46  C15 UNL     1      -0.495   6.972  -4.906  1.00  0.00     0.041 A 
HETATM   47  C12 UNL     1      -1.334   9.489  -5.616  1.00  0.00     0.002 A 
HETATM   48  C13 UNL     1      -2.116   8.760  -4.755  1.00  0.00     0.001 A 
HETATM   49  C14 UNL     1      -1.688   7.497  -4.402  1.00  0.00     0.018 A 
HETATM   50  C16 UNL     1      -0.064   5.715  -4.560  1.00  0.00     0.197 A 
HETATM   51  O2  UNL     1      -0.764   5.016  -3.764  1.00  0.00    -0.287 OA
HETATM   52  C18 UNL     1       1.515   3.891  -4.652  1.00  0.00     0.261 A 
BRANCH  52  53
HETATM   53  O3  UNL     1       0.412   3.084  -4.675  1.00  0.00    -0.372 OA
ATOM     54  H3  UNL     1      -0.265   3.272  -5.315  1.00  0.00     0.212 HD
ENDBRANCH  52  53
ENDBRANCH  32  33
ENDBRANCH   2  32
TORSDOF 16
ENDMDL
MODEL 4
REMARK VINA RESULT: -8.926531934      2.120      5.547
REMARK  16 active torsions:
REMARK  status: ('A' for Active; 'I' for Inactive)
REMARK    1  A    between atoms: C1_2  and  C2_3 
REMARK       I    between atoms: C1_2  and  N3_26 
REMARK    2  A    between atoms: C2_3  and  N1_4 
REMARK    3  A    between atoms: C18_23  and  O3_24 
REMARK    4  A    between atoms: N3_26  and  C19_28 
REMARK    5  A    between atoms: C19_28  and  C20_29 
REMARK    6  A    between atoms: C20_29  and  C21_30 
REMARK    7  A    between atoms: C21_30  and  N4_31 
REMARK    8  A    between atoms: N4_31  and  C22_34 
REMARK    9  A    between atoms: C22_34  and  C23_35 
REMARK   10  A    between atoms: C23_35  and  C24_36 
REMARK   11  A    between atoms: C24_36  and  C25_37 
REMARK   12  A    between atoms: C25_37  and  N5_38 
REMARK   13  A    between atoms: N5_38  and  C26_41 
REMARK   14  A    between atoms: C26_41  and  C27_42 
REMARK   15  A    between atoms: C27_42  and  C28_43 
REMARK   16  A    between atoms: C28_43  and  N6_44 
ROOT
HETATM    1  O1  UNL     1      -5.373   3.728  -3.489  1.00  0.00    -0.271 OA
HETATM    2  C1  UNL     1      -5.485   4.823  -4.086  1.00  0.00     0.239 C 
HETATM    3  N3  UNL     1      -5.117   6.029  -3.502  1.00  0.00    -0.339 N 
ATOM      4  H3  UNL     1      -5.213   6.851  -4.098  1.00  0.00     0.167 HD
ENDROOT
BRANCH   3   5
HETATM    5  C19 UNL     1      -4.632   6.275  -2.206  1.00  0.00     0.065 C 
BRANCH   5   6
HETATM    6  C20 UNL     1      -3.226   5.985  -1.885  1.00  0.00     0.072 C 
BRANCH   6   7
HETATM    7  C21 UNL     1      -2.181   7.027  -1.996  1.00  0.00     0.237 C 
BRANCH   7   8
HETATM    8  N4  UNL     1      -1.994   7.351  -3.444  1.00  0.00    -0.075 N 
ATOM      9  H42 UNL     1      -1.047   7.160  -3.773  1.00  0.00     0.277 HD
ATOM     10  H41 UNL     1      -2.484   6.702  -4.060  1.00  0.00     0.277 HD
BRANCH   8  11
HETATM   11  C22 UNL     1      -2.392   8.730  -3.650  1.00  0.00     0.232 C 
BRANCH  11  12
HETATM   12  C23 UNL     1      -2.127   9.194  -5.043  1.00  0.00     0.029 C 
BRANCH  12  13
HETATM   13  C24 UNL     1      -1.234   8.294  -5.839  1.00  0.00     0.029 C 
BRANCH  13  14
HETATM   14  C25 UNL     1       0.089   8.989  -6.149  1.00  0.00     0.232 C 
BRANCH  14  15
HETATM   15  N5  UNL     1       1.137   8.037  -6.497  1.00  0.00    -0.075 N 
ATOM     16  H52 UNL     1       0.988   7.619  -7.416  1.00  0.00     0.277 HD
ATOM     17  H51 UNL     1       2.027   8.497  -6.688  1.00  0.00     0.277 HD
BRANCH  15  18
HETATM   18  C26 UNL     1       1.248   7.046  -5.461  1.00  0.00     0.234 C 
BRANCH  18  19
HETATM   19  C27 UNL     1       2.478   7.167  -4.610  1.00  0.00     0.048 C 
BRANCH  19  20
HETATM   20  C28 UNL     1       2.530   6.018  -3.596  1.00  0.00     0.137 C 
BRANCH  20  21
HETATM   21  N6  UNL     1       2.546   4.769  -4.323  1.00  0.00    -0.280 N 
HETATM   22  C29 UNL     1       3.601   4.215  -5.119  1.00  0.00     0.261 A 
HETATM   23  O4  UNL     1       4.722   4.773  -5.268  1.00  0.00    -0.267 OA
HETATM   24  C30 UNL     1       3.125   2.958  -5.674  1.00  0.00     0.048 A 
HETATM   25  C31 UNL     1       3.729   2.035  -6.503  1.00  0.00     0.018 A 
HETATM   26  C35 UNL     1       1.821   2.714  -5.254  1.00  0.00     0.048 A 
HETATM   27  C32 UNL     1       3.077   0.904  -6.915  1.00  0.00     0.001 A 
HETATM   28  C33 UNL     1       1.771   0.664  -6.495  1.00  0.00     0.001 A 
HETATM   29  C34 UNL     1       1.150   1.591  -5.653  1.00  0.00     0.018 A 
HETATM   30  C36 UNL     1       1.447   3.838  -4.408  1.00  0.00     0.261 A 
HETATM   31  O5  UNL     1       0.338   3.981  -3.835  1.00  0.00    -0.267 OA
ENDBRANCH  20  21
ENDBRANCH  19  20
ENDBRANCH  18  19
ENDBRANCH  15  18
ENDBRANCH  14  15
ENDBRANCH  13  14
ENDBRANCH  12  13
ENDBRANCH  11  12
ENDBRANCH   8  11
ENDBRANCH   7   8
ENDBRANCH   6   7
ENDBRANCH   5   6
ENDBRANCH   3   5
BRANCH   2  32
HETATM   32  C2  UNL     1      -6.059   4.706  -5.461  1.00  0.00     0.229 C 
BRANCH  32  33
HETATM   33  N1  UNL     1      -5.152   4.245  -6.456  1.00  0.00    -0.341 N 
HETATM   34  C3  UNL     1      -5.635   3.660  -7.668  1.00  0.00     0.045 A 
HETATM   35  C4  UNL     1      -7.021   3.456  -7.787  1.00  0.00     0.030 A 
HETATM   36  C8  UNL     1      -4.835   3.318  -8.738  1.00  0.00     0.018 A 
HETATM   37  C5  UNL     1      -7.492   2.924  -8.976  1.00  0.00     0.002 A 
HETATM   38  C6  UNL     1      -6.688   2.589 -10.026  1.00  0.00     0.001 A 
HETATM   39  C7  UNL     1      -5.300   2.788  -9.916  1.00  0.00     0.016 A 
HETATM   40  C9  UNL     1      -3.378   3.558  -8.576  1.00  0.00     0.060 A 
HETATM   41  N2  UNL     1      -2.527   3.252  -9.569  1.00  0.00    -0.354 N 
HETATM   42  C17 UNL     1      -2.894   4.093  -7.411  1.00  0.00     0.069 A 
HETATM   43  C10 UNL     1      -1.198   3.486  -9.380  1.00  0.00     0.046 A 
ATOM     44  H2  UNL     1      -2.867   2.854 -10.444  1.00  0.00     0.166 HD
HETATM   45  C11 UNL     1      -0.312   3.170 -10.403  1.00  0.00     0.030 A 
HETATM   46  C15 UNL     1      -0.674   4.017  -8.235  1.00  0.00     0.041 A 
HETATM   47  C12 UNL     1       1.045   3.381 -10.280  1.00  0.00     0.002 A 
HETATM   48  C13 UNL     1       1.570   3.916  -9.129  1.00  0.00     0.001 A 
HETATM   49  C14 UNL     1       0.701   4.231  -8.106  1.00  0.00     0.018 A 
HETATM   50  C16 UNL     1      -1.545   4.330  -7.221  1.00  0.00     0.197 A 
HETATM   51  O2  UNL     1      -1.091   4.824  -6.143  1.00  0.00    -0.287 OA
HETATM   52  C18 UNL     1      -3.755   4.451  -6.255  1.00  0.00     0.261 A 
BRANCH  52  53
HETATM   53  O3  UNL     1      -3.349   5.658  -5.757  1.00  0.00    -0.372 OA
ATOM     54  H3  UNL     1      -3.195   6.366  -6.372  1.00  0.00     0.212 HD
ENDBRANCH  52  53
ENDBRANCH  32  33
ENDBRANCH   2  32
TORSDOF 16
ENDMDL
MODEL 5
REMARK VINA RESULT: -8.921239512      2.987      9.218
REMARK  16 active torsions:
REMARK  status: ('A' for Active; 'I' for Inactive)
REMARK    1  A    between atoms: C1_2  and  C2_3 
REMARK       I    between atoms: C1_2  and  N3_26 
REMARK    2  A    between atoms: C2_3  and  N1_4 
REMARK    3  A    between atoms: C18_23  and  O3_24 
REMARK    4  A    between atoms: N3_26  and  C19_28 
REMARK    5  A    between atoms: C19_28  and  C20_29 
REMARK    6  A    between atoms: C20_29  and  C21_30 
REMARK    7  A    between atoms: C21_30  and  N4_31 
REMARK    8  A    between atoms: N4_31  and  C22_34 
REMARK    9  A    between atoms: C22_34  and  C23_35 
REMARK   10  A    between atoms: C23_35  and  C24_36 
REMARK   11  A    between atoms: C24_36  and  C25_37 
REMARK   12  A    between atoms: C25_37  and  N5_38 
REMARK   13  A    between atoms: N5_38  and  C26_41 
REMARK   14  A    between atoms: C26_41  and  C27_42 
REMARK   15  A    between atoms: C27_42  and  C28_43 
REMARK   16  A    between atoms: C28_43  and  N6_44 
ROOT
HETATM    1  O1  UNL     1       1.362   0.716  -5.545  1.00  0.00    -0.271 OA
HETATM    2  C1  UNL     1       2.581   0.916  -5.754  1.00  0.00     0.239 C 
HETATM    3  N3  UNL     1       3.293   0.221  -6.723  1.00  0.00    -0.339 N 
ATOM      4  H3  UNL     1       4.268   0.498  -6.832  1.00  0.00     0.167 HD
ENDROOT
BRANCH   3   5
HETATM    5  C19 UNL     1       2.858  -0.809  -7.575  1.00  0.00     0.065 C 
BRANCH   5   6
HETATM    6  C20 UNL     1       2.433  -0.492  -8.947  1.00  0.00     0.072 C 
BRANCH   6   7
HETATM    7  C21 UNL     1       3.255  -0.881 -10.115  1.00  0.00     0.237 C 
BRANCH   7   8
HETATM    8  N4  UNL     1       3.851   0.359 -10.703  1.00  0.00    -0.075 N 
ATOM      9  H42 UNL     1       4.737   0.617 -10.267  1.00  0.00     0.277 HD
ATOM     10  H41 UNL     1       4.201   0.218 -11.650  1.00  0.00     0.277 HD
BRANCH   8  11
HETATM   11  C22 UNL     1       2.859   1.414 -10.623  1.00  0.00     0.232 C 
BRANCH  11  12
HETATM   12  C23 UNL     1       3.473   2.754 -10.401  1.00  0.00     0.029 C 
BRANCH  12  13
HETATM   13  C24 UNL     1       2.488   3.870 -10.238  1.00  0.00     0.029 C 
BRANCH  13  14
HETATM   14  C25 UNL     1       1.072   3.383 -10.528  1.00  0.00     0.232 C 
BRANCH  14  15
HETATM   15  N5  UNL     1       0.107   3.911  -9.572  1.00  0.00    -0.075 N 
ATOM     16  H52 UNL     1       0.049   4.928  -9.605  1.00  0.00     0.277 HD
ATOM     17  H51 UNL     1      -0.855   3.702  -9.840  1.00  0.00     0.277 HD
BRANCH  15  18
HETATM   18  C26 UNL     1       0.422   3.427  -8.255  1.00  0.00     0.234 C 
BRANCH  18  19
HETATM   19  C27 UNL     1      -0.766   3.236  -7.358  1.00  0.00     0.048 C 
BRANCH  19  20
HETATM   20  C28 UNL     1      -1.705   4.444  -7.469  1.00  0.00     0.137 C 
BRANCH  20  21
HETATM   21  N6  UNL     1      -3.002   3.976  -7.900  1.00  0.00    -0.280 N 
HETATM   22  C29 UNL     1      -3.445   3.676  -9.230  1.00  0.00     0.261 A 
HETATM   23  O4  UNL     1      -2.701   3.766 -10.243  1.00  0.00    -0.267 OA
HETATM   24  C30 UNL     1      -4.841   3.276  -9.153  1.00  0.00     0.048 A 
HETATM   25  C31 UNL     1      -5.740   2.893 -10.128  1.00  0.00     0.018 A 
HETATM   26  C35 UNL     1      -5.277   3.315  -7.832  1.00  0.00     0.048 A 
HETATM   27  C32 UNL     1      -7.032   2.559  -9.824  1.00  0.00     0.001 A 
HETATM   28  C33 UNL     1      -7.466   2.602  -8.501  1.00  0.00     0.001 A 
HETATM   29  C34 UNL     1      -6.564   2.987  -7.504  1.00  0.00     0.018 A 
HETATM   30  C36 UNL     1      -4.138   3.750  -7.038  1.00  0.00     0.261 A 
HETATM   31  O5  UNL     1      -4.136   3.907  -5.791  1.00  0.00    -0.267 OA
ENDBRANCH  20  21
ENDBRANCH  19  20
ENDBRANCH  18  19
ENDBRANCH  15  18
ENDBRANCH  14  15
ENDBRANCH  13  14
ENDBRANCH  12  13
ENDBRANCH  11  12
ENDBRANCH   8  11
ENDBRANCH   7   8
ENDBRANCH   6   7
ENDBRANCH   5   6
ENDBRANCH   3   5
BRANCH   2  32
HETATM   32  C2  UNL     1       3.186   1.949  -4.858  1.00  0.00     0.229 C 
BRANCH  32  33
HETATM   33  N1  UNL     1       2.832   3.293  -5.163  1.00  0.00    -0.341 N 
HETATM   34  C3  UNL     1       3.588   4.047  -6.114  1.00  0.00     0.045 A 
HETATM   35  C4  UNL     1       4.748   3.455  -6.644  1.00  0.00     0.030 A 
HETATM   36  C8  UNL     1       3.234   5.300  -6.569  1.00  0.00     0.018 A 
HETATM   37  C5  UNL     1       5.459   4.171  -7.593  1.00  0.00     0.002 A 
HETATM   38  C6  UNL     1       5.096   5.410  -8.034  1.00  0.00     0.001 A 
HETATM   39  C7  UNL     1       3.938   6.012  -7.509  1.00  0.00     0.016 A 
HETATM   40  C9  UNL     1       1.998   5.887  -5.992  1.00  0.00     0.060 A 
HETATM   41  N2  UNL     1       1.580   7.104  -6.380  1.00  0.00    -0.354 N 
HETATM   42  C17 UNL     1       1.275   5.189  -5.059  1.00  0.00     0.069 A 
HETATM   43  C10 UNL     1       0.443   7.607  -5.824  1.00  0.00     0.046 A 
ATOM     44  H2  UNL     1       2.103   7.638  -7.073  1.00  0.00     0.166 HD
HETATM   45  C11 UNL     1       0.007   8.866  -6.220  1.00  0.00     0.030 A 
HETATM   46  C15 UNL     1      -0.307   6.946  -4.891  1.00  0.00     0.041 A 
HETATM   47  C12 UNL     1      -1.137   9.436  -5.700  1.00  0.00     0.002 A 
HETATM   48  C13 UNL     1      -1.888   8.770  -4.763  1.00  0.00     0.001 A 
HETATM   49  C14 UNL     1      -1.465   7.520  -4.362  1.00  0.00     0.018 A 
HETATM   50  C16 UNL     1       0.120   5.702  -4.497  1.00  0.00     0.197 A 
HETATM   51  O2  UNL     1      -0.552   5.060  -3.632  1.00  0.00    -0.287 OA
HETATM   52  C18 UNL     1       1.663   3.846  -4.561  1.00  0.00     0.261 A 
BRANCH  52  53
HETATM   53  O3  UNL     1       0.546   3.060  -4.488  1.00  0.00    -0.372 OA
ATOM     54  H3  UNL     1       0.321   2.683  -3.645  1.00  0.00     0.212 HD
ENDBRANCH  52  53
ENDBRANCH  32  33
ENDBRANCH   2  32
TORSDOF 16
ENDMDL
