MODEL 1
REMARK VINA RESULT: -6.891580311      0.000      0.000
REMARK  2 active torsions:
REMARK  status: ('A' for Active; 'I' for Inactive)
REMARK    1  A    between atoms: C2_2  and  N2_6 
REMARK    2  A    between atoms: N2_6  and  N4_9 
ROOT
HETATM    1  C1  UNL     1      -3.565   1.997  16.279  1.00  0.00     0.057 C 
HETATM    2  C2  UNL     1      -4.708   1.551  15.394  1.00  0.00     0.140 C 
HETATM    3  C3  UNL     1      -5.988   2.031  16.070  1.00  0.00     0.057 C 
HETATM    4  C4  UNL     1      -4.736   0.108  15.353  1.00  0.00     0.092 C 
HETATM    5  N1  UNL     1      -4.777  -1.046  15.328  1.00  0.00    -0.195 NA
ENDROOT
BRANCH   2   6
HETATM    6  N2  UNL     1      -4.615   2.119  14.064  1.00  0.00    -0.224 N 
HETATM    7  C5  UNL     1      -5.700   2.883  13.592  1.00  0.00     0.197 C 
HETATM    8  N3  UNL     1      -6.599   3.495  13.195  1.00  0.00    -0.171 NA
BRANCH   6   9
HETATM    9  N4  UNL     1      -3.476   1.884  13.329  1.00  0.00    -0.217 NA
HETATM   10  C6  UNL     1      -3.582   0.818  12.391  1.00  0.00     0.115 C 
HETATM   11  C7  UNL     1      -3.742   1.553  11.064  1.00  0.00     0.030 C 
HETATM   12  C8  UNL     1      -3.033   2.852  11.207  1.00  0.00     0.011 C 
HETATM   13  C9  UNL     1      -3.886   3.974  10.665  1.00  0.00     0.080 C 
HETATM   14  C11 UNL     1      -1.761   2.976  10.463  1.00  0.00     0.131 C 
HETATM   15  C14 UNL     1      -2.909   3.025  12.696  1.00  0.00     0.126 C 
HETATM   16  C10 UNL     1      -3.038   4.710   9.669  1.00  0.00     0.369 C 
HETATM   17  F1  UNL     1      -3.789   5.076   8.570  1.00  0.00    -0.219 F 
HETATM   18  N5  UNL     1      -2.058   3.736   9.243  1.00  0.00    -0.035 N 
ATOM     19  H52 UNL     1      -2.352   3.162   8.453  1.00  0.00     0.281 HD
ATOM     20  H51 UNL     1      -1.237   4.136   8.789  1.00  0.00     0.281 HD
HETATM   21  C12 UNL     1      -0.681   3.721  11.207  1.00  0.00     0.047 C 
HETATM   22  C13 UNL     1      -1.172   1.660  10.010  1.00  0.00     0.047 C 
ENDBRANCH   6   9
ENDBRANCH   2   6
TORSDOF 2
ENDMDL
MODEL 2
REMARK VINA RESULT: -6.780287559      3.117      5.293
REMARK  2 active torsions:
REMARK  status: ('A' for Active; 'I' for Inactive)
REMARK    1  A    between atoms: C2_2  and  N2_6 
REMARK    2  A    between atoms: N2_6  and  N4_9 
ROOT
HETATM    1  C1  UNL     1      -3.784  -1.772  12.082  1.00  0.00     0.057 C 
HETATM    2  C2  UNL     1      -3.806  -0.289  11.787  1.00  0.00     0.140 C 
HETATM    3  C3  UNL     1      -4.840  -0.084  10.684  1.00  0.00     0.057 C 
HETATM    4  C4  UNL     1      -2.517   0.108  11.270  1.00  0.00     0.092 C 
HETATM    5  N1  UNL     1      -1.494   0.430  10.840  1.00  0.00    -0.195 NA
ENDROOT
BRANCH   2   6
HETATM    6  N2  UNL     1      -4.174   0.490  12.952  1.00  0.00    -0.224 N 
HETATM    7  C5  UNL     1      -4.453  -0.199  14.148  1.00  0.00     0.197 C 
HETATM    8  N3  UNL     1      -4.703  -0.765  15.128  1.00  0.00    -0.171 NA
BRANCH   6   9
HETATM    9  N4  UNL     1      -4.231   1.859  12.835  1.00  0.00    -0.217 NA
HETATM   10  C6  UNL     1      -5.309   2.344  12.040  1.00  0.00     0.115 C 
HETATM   11  C7  UNL     1      -6.298   2.845  13.087  1.00  0.00     0.030 C 
HETATM   12  C8  UNL     1      -5.495   3.270  14.264  1.00  0.00     0.011 C 
HETATM   13  C9  UNL     1      -6.115   2.743  15.536  1.00  0.00     0.080 C 
HETATM   14  C11 UNL     1      -5.404   4.730  14.486  1.00  0.00     0.131 C 
HETATM   15  C14 UNL     1      -4.173   2.583  14.058  1.00  0.00     0.126 C 
HETATM   16  C10 UNL     1      -6.304   3.927  16.439  1.00  0.00     0.369 C 
HETATM   17  F1  UNL     1      -7.508   3.837  17.110  1.00  0.00    -0.219 F 
HETATM   18  N5  UNL     1      -6.371   5.057  15.540  1.00  0.00    -0.035 N 
ATOM     19  H52 UNL     1      -7.309   5.266  15.198  1.00  0.00     0.281 HD
ATOM     20  H51 UNL     1      -6.214   5.960  15.987  1.00  0.00     0.281 HD
HETATM   21  C12 UNL     1      -4.050   5.199  14.957  1.00  0.00     0.047 C 
HETATM   22  C13 UNL     1      -5.781   5.569  13.288  1.00  0.00     0.047 C 
ENDBRANCH   6   9
ENDBRANCH   2   6
TORSDOF 2
ENDMDL
MODEL 3
REMARK VINA RESULT: -6.757250627      2.849      3.929
REMARK  2 active torsions:
REMARK  status: ('A' for Active; 'I' for Inactive)
REMARK    1  A    between atoms: C2_2  and  N2_6 
REMARK    2  A    between atoms: N2_6  and  N4_9 
ROOT
HETATM    1  C1  UNL     1      -4.542   0.335  14.287  1.00  0.00     0.057 C 
HETATM    2  C2  UNL     1      -4.882   1.052  15.575  1.00  0.00     0.140 C 
HETATM    3  C3  UNL     1      -3.556   1.499  16.182  1.00  0.00     0.057 C 
HETATM    4  C4  UNL     1      -5.500   0.117  16.486  1.00  0.00     0.092 C 
HETATM    5  N1  UNL     1      -5.978  -0.628  17.228  1.00  0.00    -0.195 NA
ENDROOT
BRANCH   2   6
HETATM    6  N2  UNL     1      -5.728   2.206  15.345  1.00  0.00    -0.224 N 
HETATM    7  C5  UNL     1      -6.597   2.608  16.377  1.00  0.00     0.197 C 
HETATM    8  N3  UNL     1      -7.328   2.928  17.217  1.00  0.00    -0.171 NA
BRANCH   6   9
HETATM    9  N4  UNL     1      -5.640   2.852  14.133  1.00  0.00    -0.217 NA
HETATM   10  C6  UNL     1      -6.727   3.725  13.843  1.00  0.00     0.115 C 
HETATM   11  C7  UNL     1      -6.130   5.103  14.109  1.00  0.00     0.030 C 
HETATM   12  C8  UNL     1      -4.673   4.998  13.829  1.00  0.00     0.011 C 
HETATM   13  C9  UNL     1      -3.882   5.663  14.931  1.00  0.00     0.080 C 
HETATM   14  C11 UNL     1      -4.205   5.667  12.596  1.00  0.00     0.131 C 
HETATM   15  C14 UNL     1      -4.409   3.518  13.880  1.00  0.00     0.126 C 
HETATM   16  C10 UNL     1      -2.968   6.648  14.262  1.00  0.00     0.369 C 
HETATM   17  F1  UNL     1      -2.890   7.813  14.999  1.00  0.00    -0.219 F 
HETATM   18  N5  UNL     1      -3.620   6.948  13.007  1.00  0.00    -0.035 N 
ATOM     19  H52 UNL     1      -4.288   7.718  13.055  1.00  0.00     0.281 HD
ATOM     20  H51 UNL     1      -3.011   7.374  12.309  1.00  0.00     0.281 HD
HETATM   21  C12 UNL     1      -3.140   4.905  11.847  1.00  0.00     0.047 C 
HETATM   22  C13 UNL     1      -5.301   5.997  11.610  1.00  0.00     0.047 C 
ENDBRANCH   6   9
ENDBRANCH   2   6
TORSDOF 2
ENDMDL
MODEL 4
REMARK VINA RESULT: -6.657559748      3.090      4.265
REMARK  2 active torsions:
REMARK  status: ('A' for Active; 'I' for Inactive)
REMARK    1  A    between atoms: C2_2  and  N2_6 
REMARK    2  A    between atoms: N2_6  and  N4_9 
ROOT
HETATM    1  C1  UNL     1      -6.451   2.137  18.408  1.00  0.00     0.057 C 
HETATM    2  C2  UNL     1      -6.478   1.401  17.086  1.00  0.00     0.140 C 
HETATM    3  C3  UNL     1      -7.905   1.514  16.559  1.00  0.00     0.057 C 
HETATM    4  C4  UNL     1      -6.195   0.004  17.319  1.00  0.00     0.092 C 
HETATM    5  N1  UNL     1      -5.987  -1.118  17.498  1.00  0.00    -0.195 NA
ENDROOT
BRANCH   2   6
HETATM    6  N2  UNL     1      -5.556   1.977  16.128  1.00  0.00    -0.224 N 
HETATM    7  C5  UNL     1      -4.185   1.688  16.270  1.00  0.00     0.197 C 
HETATM    8  N3  UNL     1      -3.055   1.468  16.397  1.00  0.00    -0.171 NA
BRANCH   6   9
HETATM    9  N4  UNL     1      -6.063   2.775  15.129  1.00  0.00    -0.217 NA
HETATM   10  C6  UNL     1      -6.768   3.926  15.585  1.00  0.00     0.115 C 
HETATM   11  C7  UNL     1      -5.763   5.049  15.352  1.00  0.00     0.030 C 
HETATM   12  C8  UNL     1      -4.922   4.636  14.197  1.00  0.00     0.011 C 
HETATM   13  C9  UNL     1      -3.463   4.891  14.497  1.00  0.00     0.080 C 
HETATM   14  C11 UNL     1      -5.162   5.366  12.933  1.00  0.00     0.131 C 
HETATM   15  C14 UNL     1      -5.139   3.150  14.114  1.00  0.00     0.126 C 
HETATM   16  C10 UNL     1      -2.934   5.717  13.362  1.00  0.00     0.369 C 
HETATM   17  F1  UNL     1      -2.070   6.687  13.831  1.00  0.00    -0.219 F 
HETATM   18  N5  UNL     1      -4.103   6.376  12.822  1.00  0.00    -0.035 N 
ATOM     19  H52 UNL     1      -4.325   7.267  13.266  1.00  0.00     0.281 HD
ATOM     20  H51 UNL     1      -3.977   6.750  11.881  1.00  0.00     0.281 HD
HETATM   21  C12 UNL     1      -5.092   4.503  11.699  1.00  0.00     0.047 C 
HETATM   22  C13 UNL     1      -6.471   6.118  12.885  1.00  0.00     0.047 C 
ENDBRANCH   6   9
ENDBRANCH   2   6
TORSDOF 2
ENDMDL
MODEL 5
REMARK VINA RESULT: -6.632587312      2.918      4.570
REMARK  2 active torsions:
REMARK  status: ('A' for Active; 'I' for Inactive)
REMARK    1  A    between atoms: C2_2  and  N2_6 
REMARK    2  A    between atoms: N2_6  and  N4_9 
ROOT
HETATM    1  C1  UNL     1      -5.287   1.224  11.285  1.00  0.00     0.057 C 
HETATM    2  C2  UNL     1      -4.209   1.527  12.303  1.00  0.00     0.140 C 
HETATM    3  C3  UNL     1      -2.883   1.143  11.653  1.00  0.00     0.057 C 
HETATM    4  C4  UNL     1      -4.403   0.683  13.459  1.00  0.00     0.092 C 
HETATM    5  N1  UNL     1      -4.541  -0.000  14.380  1.00  0.00    -0.195 NA
ENDROOT
BRANCH   2   6
HETATM    6  N2  UNL     1      -4.187   2.929  12.666  1.00  0.00    -0.224 N 
HETATM    7  C5  UNL     1      -3.079   3.409  13.391  1.00  0.00     0.197 C 
HETATM    8  N3  UNL     1      -2.177   3.801  14.004  1.00  0.00    -0.171 NA
BRANCH   6   9
HETATM    9  N4  UNL     1      -5.246   3.722  12.288  1.00  0.00    -0.217 NA
HETATM   10  C6  UNL     1      -5.982   4.288  13.367  1.00  0.00     0.115 C 
HETATM   11  C7  UNL     1      -5.493   5.732  13.385  1.00  0.00     0.030 C 
HETATM   12  C8  UNL     1      -5.114   6.072  11.988  1.00  0.00     0.011 C 
HETATM   13  C9  UNL     1      -3.783   6.786  11.968  1.00  0.00     0.080 C 
HETATM   14  C11 UNL     1      -6.028   6.996  11.281  1.00  0.00     0.131 C 
HETATM   15  C14 UNL     1      -4.946   4.730  11.330  1.00  0.00     0.126 C 
HETATM   16  C10 UNL     1      -3.997   8.063  11.209  1.00  0.00     0.369 C 
HETATM   17  F1  UNL     1      -3.307   9.101  11.802  1.00  0.00    -0.219 F 
HETATM   18  N5  UNL     1      -5.413   8.327  11.341  1.00  0.00    -0.035 N 
ATOM     19  H52 UNL     1      -5.663   8.868  12.168  1.00  0.00     0.281 HD
ATOM     20  H51 UNL     1      -5.782   8.990  10.660  1.00  0.00     0.281 HD
HETATM   21  C12 UNL     1      -6.238   6.662   9.825  1.00  0.00     0.047 C 
HETATM   22  C13 UNL     1      -7.393   7.131  11.915  1.00  0.00     0.047 C 
ENDBRANCH   6   9
ENDBRANCH   2   6
TORSDOF 2
ENDMDL
