MODEL 1
REMARK VINA RESULT: -6.551228397      0.000      0.000
REMARK  4 active torsions:
REMARK  status: ('A' for Active; 'I' for Inactive)
REMARK    1  A    between atoms: N1_4  and  C4_5 
REMARK    2  A    between atoms: C4_5  and  C5_6 
REMARK    3  A    between atoms: C5_6  and  C6_8 
REMARK    4  A    between atoms: C6_8  and  O2_9 
ROOT
HETATM    1  C5  UNL     1      -5.135   2.835  12.428  1.00  0.00     0.199 C 
HETATM    2  O1  UNL     1      -5.163   4.031  12.171  1.00  0.00    -0.292 OA
ENDROOT
BRANCH   1   3
HETATM    3  C4  UNL     1      -5.784   2.297  13.656  1.00  0.00     0.354 C 
BRANCH   3   4
HETATM    4  N1  UNL     1      -5.437   2.965  14.863  1.00  0.00     0.100 N 
HETATM    5  C3  UNL     1      -6.285   2.717  15.978  1.00  0.00     0.304 C 
HETATM    6  C2  UNL     1      -6.011   1.413  16.692  1.00  0.00     0.145 C 
HETATM    7  C1  UNL     1      -6.719   1.462  18.047  1.00  0.00     0.041 C 
HETATM    8  O3  UNL     1      -4.665   1.240  16.968  1.00  0.00    -0.383 OA
HETATM    9  C12 UNL     1      -4.004   1.260  15.727  1.00  0.00     0.198 C 
HETATM   10  C11 UNL     1      -4.065   2.659  15.202  1.00  0.00     0.299 C 
ENDBRANCH   3   4
ENDBRANCH   1   3
BRANCH   1  11
HETATM   11  C6  UNL     1      -4.457   1.854  11.538  1.00  0.00     0.168 C 
HETATM   12  C7  UNL     1      -4.763   0.472  12.036  1.00  0.00     0.057 C 
HETATM   13  C8  UNL     1      -3.706  -0.537  11.721  1.00  0.00     0.005 C 
HETATM   14  C9  UNL     1      -2.866  -0.185  10.522  1.00  0.00     0.010 C 
HETATM   15  C10 UNL     1      -1.819   0.862  10.807  1.00  0.00     0.077 C 
HETATM   16  S1  UNL     1      -2.685   2.236  11.613  1.00  0.00    -0.124 SA
BRANCH  11  17
HETATM   17  O2  UNL     1      -4.963   1.973  10.260  1.00  0.00    -0.372 OA
ATOM     18  H2  UNL     1      -5.073   1.106   9.885  1.00  0.00     0.212 HD
ENDBRANCH  11  17
ENDBRANCH   1  11
TORSDOF 4
ENDMDL
MODEL 2
REMARK VINA RESULT: -6.368847454      1.145      1.512
REMARK  4 active torsions:
REMARK  status: ('A' for Active; 'I' for Inactive)
REMARK    1  A    between atoms: N1_4  and  C4_5 
REMARK    2  A    between atoms: C4_5  and  C5_6 
REMARK    3  A    between atoms: C5_6  and  C6_8 
REMARK    4  A    between atoms: C6_8  and  O2_9 
ROOT
HETATM    1  C5  UNL     1      -4.863   1.730  12.249  1.00  0.00     0.199 C 
HETATM    2  O1  UNL     1      -6.004   1.956  11.872  1.00  0.00    -0.292 OA
ENDROOT
BRANCH   1   3
HETATM    3  C4  UNL     1      -4.585   1.314  13.652  1.00  0.00     0.354 C 
BRANCH   3   4
HETATM    4  N1  UNL     1      -4.998   2.241  14.649  1.00  0.00     0.100 N 
HETATM    5  C3  UNL     1      -6.213   1.931  15.323  1.00  0.00     0.304 C 
HETATM    6  C2  UNL     1      -6.071   0.904  16.423  1.00  0.00     0.145 C 
HETATM    7  C1  UNL     1      -7.338   0.954  17.277  1.00  0.00     0.041 C 
HETATM    8  O3  UNL     1      -5.020   1.193  17.277  1.00  0.00    -0.383 OA
HETATM    9  C12 UNL     1      -3.861   1.212  16.481  1.00  0.00     0.198 C 
HETATM   10  C11 UNL     1      -3.930   2.423  15.605  1.00  0.00     0.299 C 
ENDBRANCH   3   4
ENDBRANCH   1   3
BRANCH   1  11
HETATM   11  C6  UNL     1      -3.693   1.856  11.339  1.00  0.00     0.168 C 
HETATM   12  C7  UNL     1      -3.002   0.526  11.267  1.00  0.00     0.057 C 
HETATM   13  C8  UNL     1      -1.538   0.615  10.977  1.00  0.00     0.005 C 
HETATM   14  C9  UNL     1      -1.136   1.870  10.250  1.00  0.00     0.010 C 
HETATM   15  C10 UNL     1      -1.060   3.084  11.143  1.00  0.00     0.077 C 
HETATM   16  S1  UNL     1      -2.632   3.146  12.045  1.00  0.00    -0.124 SA
BRANCH  11  17
HETATM   17  O2  UNL     1      -4.135   2.180  10.072  1.00  0.00    -0.372 OA
ATOM     18  H2  UNL     1      -4.435   3.082  10.065  1.00  0.00     0.212 HD
ENDBRANCH  11  17
ENDBRANCH   1  11
TORSDOF 4
ENDMDL
MODEL 3
REMARK VINA RESULT: -5.925789839      2.111      5.846
REMARK  4 active torsions:
REMARK  status: ('A' for Active; 'I' for Inactive)
REMARK    1  A    between atoms: N1_4  and  C4_5 
REMARK    2  A    between atoms: C4_5  and  C5_6 
REMARK    3  A    between atoms: C5_6  and  C6_8 
REMARK    4  A    between atoms: C6_8  and  O2_9 
ROOT
HETATM    1  C5  UNL     1      -4.604   0.237  14.792  1.00  0.00     0.199 C 
HETATM    2  O1  UNL     1      -4.713  -0.962  14.575  1.00  0.00    -0.292 OA
ENDROOT
BRANCH   1   3
HETATM    3  C4  UNL     1      -3.957   1.142  13.802  1.00  0.00     0.354 C 
BRANCH   3   4
HETATM    4  N1  UNL     1      -4.475   1.057  12.479  1.00  0.00     0.100 N 
HETATM    5  C3  UNL     1      -4.860   2.290  11.881  1.00  0.00     0.304 C 
HETATM    6  C2  UNL     1      -3.711   3.094  11.315  1.00  0.00     0.145 C 
HETATM    7  C1  UNL     1      -4.298   4.170  10.401  1.00  0.00     0.041 C 
HETATM    8  O3  UNL     1      -2.877   2.327  10.520  1.00  0.00    -0.383 OA
HETATM    9  C12 UNL     1      -2.387   1.297  11.343  1.00  0.00     0.198 C 
HETATM   10  C11 UNL     1      -3.523   0.370  11.636  1.00  0.00     0.299 C 
ENDBRANCH   3   4
ENDBRANCH   1   3
BRANCH   1  11
HETATM   11  C6  UNL     1      -5.106   0.858  16.047  1.00  0.00     0.168 C 
HETATM   12  C7  UNL     1      -6.014  -0.121  16.731  1.00  0.00     0.057 C 
HETATM   13  C8  UNL     1      -7.069   0.515  17.578  1.00  0.00     0.005 C 
HETATM   14  C9  UNL     1      -6.708   1.891  18.069  1.00  0.00     0.010 C 
HETATM   15  C10 UNL     1      -6.864   2.965  17.021  1.00  0.00     0.077 C 
HETATM   16  S1  UNL     1      -5.972   2.374  15.557  1.00  0.00    -0.124 SA
BRANCH  11  17
HETATM   17  O2  UNL     1      -4.040   1.113  16.886  1.00  0.00    -0.372 OA
ATOM     18  H2  UNL     1      -3.237   1.129  16.377  1.00  0.00     0.212 HD
ENDBRANCH  11  17
ENDBRANCH   1  11
TORSDOF 4
ENDMDL
MODEL 4
REMARK VINA RESULT: -5.841085768      2.643      3.100
REMARK  4 active torsions:
REMARK  status: ('A' for Active; 'I' for Inactive)
REMARK    1  A    between atoms: N1_4  and  C4_5 
REMARK    2  A    between atoms: C4_5  and  C5_6 
REMARK    3  A    between atoms: C5_6  and  C6_8 
REMARK    4  A    between atoms: C6_8  and  O2_9 
ROOT
HETATM    1  C5  UNL     1      -4.315   2.872  11.036  1.00  0.00     0.199 C 
HETATM    2  O1  UNL     1      -4.863   3.427  10.093  1.00  0.00    -0.292 OA
ENDROOT
BRANCH   1   3
HETATM    3  C4  UNL     1      -3.360   3.607  11.911  1.00  0.00     0.354 C 
BRANCH   3   4
HETATM    4  N1  UNL     1      -3.774   4.914  12.292  1.00  0.00     0.100 N 
HETATM    5  C3  UNL     1      -4.989   4.992  13.028  1.00  0.00     0.304 C 
HETATM    6  C2  UNL     1      -4.849   4.674  14.499  1.00  0.00     0.145 C 
HETATM    7  C1  UNL     1      -6.117   5.154  15.206  1.00  0.00     0.041 C 
HETATM    8  O3  UNL     1      -3.798   5.359  15.086  1.00  0.00    -0.383 OA
HETATM    9  C12 UNL     1      -2.639   4.968  14.393  1.00  0.00     0.198 C 
HETATM   10  C11 UNL     1      -2.707   5.560  13.021  1.00  0.00     0.299 C 
ENDBRANCH   3   4
ENDBRANCH   1   3
BRANCH   1  11
HETATM   11  C6  UNL     1      -4.567   1.443  11.363  1.00  0.00     0.168 C 
HETATM   12  C7  UNL     1      -4.652   1.305  12.854  1.00  0.00     0.057 C 
HETATM   13  C8  UNL     1      -4.246  -0.039  13.367  1.00  0.00     0.005 C 
HETATM   14  C9  UNL     1      -4.398  -1.146  12.357  1.00  0.00     0.010 C 
HETATM   15  C10 UNL     1      -3.296  -1.177  11.328  1.00  0.00     0.077 C 
HETATM   16  S1  UNL     1      -3.180   0.506  10.663  1.00  0.00    -0.124 SA
BRANCH  11  17
HETATM   17  O2  UNL     1      -5.780   1.060  10.826  1.00  0.00    -0.372 OA
ATOM     18  H2  UNL     1      -6.475   1.277  11.437  1.00  0.00     0.212 HD
ENDBRANCH  11  17
ENDBRANCH   1  11
TORSDOF 4
ENDMDL
MODEL 5
REMARK VINA RESULT: -5.770794486      1.298      1.955
REMARK  4 active torsions:
REMARK  status: ('A' for Active; 'I' for Inactive)
REMARK    1  A    between atoms: N1_4  and  C4_5 
REMARK    2  A    between atoms: C4_5  and  C5_6 
REMARK    3  A    between atoms: C5_6  and  C6_8 
REMARK    4  A    between atoms: C6_8  and  O2_9 
ROOT
HETATM    1  C5  UNL     1      -4.832   1.562  12.297  1.00  0.00     0.199 C 
HETATM    2  O1  UNL     1      -5.921   2.078  12.082  1.00  0.00    -0.292 OA
ENDROOT
BRANCH   1   3
HETATM    3  C4  UNL     1      -4.580   0.792  13.546  1.00  0.00     0.354 C 
BRANCH   3   4
HETATM    4  N1  UNL     1      -4.156   1.571  14.659  1.00  0.00     0.100 N 
HETATM    5  C3  UNL     1      -4.855   2.792  14.868  1.00  0.00     0.304 C 
HETATM    6  C2  UNL     1      -6.188   2.636  15.563  1.00  0.00     0.145 C 
HETATM    7  C1  UNL     1      -6.632   4.019  16.042  1.00  0.00     0.041 C 
HETATM    8  O3  UNL     1      -6.099   1.846  16.696  1.00  0.00    -0.383 OA
HETATM    9  C12 UNL     1      -5.628   0.593  16.265  1.00  0.00     0.198 C 
HETATM   10  C11 UNL     1      -4.200   0.760  15.855  1.00  0.00     0.299 C 
ENDBRANCH   3   4
ENDBRANCH   1   3
BRANCH   1  11
HETATM   11  C6  UNL     1      -3.704   1.674  11.333  1.00  0.00     0.168 C 
HETATM   12  C7  UNL     1      -2.899   0.410  11.397  1.00  0.00     0.057 C 
HETATM   13  C8  UNL     1      -1.457   0.586  11.043  1.00  0.00     0.005 C 
HETATM   14  C9  UNL     1      -1.190   1.771  10.153  1.00  0.00     0.010 C 
HETATM   15  C10 UNL     1      -1.199   3.089  10.887  1.00  0.00     0.077 C 
HETATM   16  S1  UNL     1      -2.744   3.128  11.835  1.00  0.00    -0.124 SA
BRANCH  11  17
HETATM   17  O2  UNL     1      -4.209   1.797  10.054  1.00  0.00    -0.372 OA
ATOM     18  H2  UNL     1      -5.085   2.162  10.097  1.00  0.00     0.212 HD
ENDBRANCH  11  17
ENDBRANCH   1  11
TORSDOF 4
ENDMDL
