MODEL 1
REMARK VINA RESULT: -7.783726928      0.000      0.000
REMARK  2 active torsions:
REMARK  status: ('A' for Active; 'I' for Inactive)
REMARK    1  A    between atoms: C2_8  and  C3_9 
REMARK    2  A    between atoms: C11_18  and  C12_19 
ROOT
HETATM    1  C3  UNL     1      -5.722   2.889  15.438  1.00  0.00     0.166 C 
HETATM    2  F1  UNL     1      -6.340   3.943  16.156  1.00  0.00    -0.234 F 
HETATM    3  C4  UNL     1      -4.288   2.965  15.676  1.00  0.00     0.076 C 
HETATM    4  C5  UNL     1      -3.411   3.747  14.789  1.00  0.00     0.080 C 
HETATM    5  C6  UNL     1      -3.731   5.202  14.679  1.00  0.00     0.025 C 
HETATM    6  C7  UNL     1      -4.241   5.616  13.324  1.00  0.00     0.002 C 
HETATM    7  C8  UNL     1      -5.612   5.032  13.179  1.00  0.00     0.007 C 
HETATM    8  C9  UNL     1      -5.577   3.533  12.994  1.00  0.00     0.012 C 
HETATM    9  C10 UNL     1      -6.248   2.756  14.099  1.00  0.00     0.058 C 
HETATM   10  C11 UNL     1      -4.252   3.006  12.617  1.00  0.00     0.085 C 
HETATM   11  N5  UNL     1      -3.197   3.077  13.540  1.00  0.00    -0.412 N 
ATOM     12  H5  UNL     1      -2.293   2.657  13.325  1.00  0.00     0.154 HD
ENDROOT
BRANCH   1  13
HETATM   13  C2  UNL     1      -6.160   1.658  16.173  1.00  0.00     0.152 A 
HETATM   14  N1  UNL     1      -5.631   0.429  16.231  1.00  0.00    -0.263 N 
HETATM   15  C1  UNL     1      -4.528  -0.029  15.443  1.00  0.00     0.176 C 
HETATM   16  N2  UNL     1      -6.411  -0.261  17.075  1.00  0.00    -0.003 NA
HETATM   17  N3  UNL     1      -7.401   0.525  17.522  1.00  0.00    -0.225 N 
HETATM   18  N4  UNL     1      -7.236   1.696  16.963  1.00  0.00    -0.272 N 
ATOM     19  H3  UNL     1      -8.141   0.262  18.173  1.00  0.00     0.205 HD
ATOM     20  H4  UNL     1      -7.834   2.510  17.108  1.00  0.00     0.189 HD
ENDBRANCH   1  13
BRANCH  10  21
HETATM   21  C12 UNL     1      -4.417   1.590  12.095  1.00  0.00     0.008 A 
HETATM   22  C13 UNL     1      -4.169   1.346  10.626  1.00  0.00     0.007 A 
HETATM   23  C14 UNL     1      -3.208   0.816  11.652  1.00  0.00     0.007 A 
ENDBRANCH  10  21
TORSDOF 2
ENDMDL
MODEL 2
REMARK VINA RESULT: -7.543782961      1.377      1.910
REMARK  2 active torsions:
REMARK  status: ('A' for Active; 'I' for Inactive)
REMARK    1  A    between atoms: C2_8  and  C3_9 
REMARK    2  A    between atoms: C11_18  and  C12_19 
ROOT
HETATM    1  C3  UNL     1      -4.934   2.811  14.747  1.00  0.00     0.166 C 
HETATM    2  F1  UNL     1      -6.026   3.452  15.383  1.00  0.00    -0.234 F 
HETATM    3  C4  UNL     1      -3.706   3.379  15.285  1.00  0.00     0.076 C 
HETATM    4  C5  UNL     1      -3.065   4.543  14.652  1.00  0.00     0.080 C 
HETATM    5  C6  UNL     1      -3.903   5.777  14.568  1.00  0.00     0.025 C 
HETATM    6  C7  UNL     1      -4.296   6.156  13.164  1.00  0.00     0.002 C 
HETATM    7  C8  UNL     1      -5.284   5.132  12.699  1.00  0.00     0.007 C 
HETATM    8  C9  UNL     1      -4.638   3.794  12.433  1.00  0.00     0.012 C 
HETATM    9  C10 UNL     1      -5.130   2.679  13.322  1.00  0.00     0.058 C 
HETATM   10  C11 UNL     1      -3.169   3.851  12.311  1.00  0.00     0.085 C 
HETATM   11  N5  UNL     1      -2.399   4.178  13.436  1.00  0.00    -0.412 N 
ATOM     12  H5  UNL     1      -1.380   4.157  13.391  1.00  0.00     0.154 HD
ENDROOT
BRANCH   1  13
HETATM   13  C2  UNL     1      -4.976   1.417  15.296  1.00  0.00     0.152 A 
HETATM   14  N1  UNL     1      -5.818   0.831  16.157  1.00  0.00    -0.263 N 
HETATM   15  C1  UNL     1      -6.852   1.505  16.881  1.00  0.00     0.176 C 
HETATM   16  N2  UNL     1      -5.408  -0.440  16.255  1.00  0.00    -0.003 NA
HETATM   17  N3  UNL     1      -4.335  -0.632  15.475  1.00  0.00    -0.225 N 
HETATM   18  N4  UNL     1      -4.080   0.511  14.894  1.00  0.00    -0.272 N 
ATOM     19  H3  UNL     1      -3.815  -1.503  15.358  1.00  0.00     0.205 HD
ATOM     20  H4  UNL     1      -3.319   0.684  14.237  1.00  0.00     0.189 HD
ENDBRANCH   1  13
BRANCH  10  21
HETATM   21  C12 UNL     1      -2.678   2.560  11.678  1.00  0.00     0.008 A 
HETATM   22  C13 UNL     1      -1.985   2.648  10.340  1.00  0.00     0.007 A 
HETATM   23  C14 UNL     1      -1.202   2.299  11.574  1.00  0.00     0.007 A 
ENDBRANCH  10  21
TORSDOF 2
ENDMDL
MODEL 3
REMARK VINA RESULT: -7.337244695      2.506      4.636
REMARK  2 active torsions:
REMARK  status: ('A' for Active; 'I' for Inactive)
REMARK    1  A    between atoms: C2_8  and  C3_9 
REMARK    2  A    between atoms: C11_18  and  C12_19 
ROOT
HETATM    1  C3  UNL     1      -4.007   2.029  12.898  1.00  0.00     0.166 C 
HETATM    2  F1  UNL     1      -3.161   2.896  12.162  1.00  0.00    -0.234 F 
HETATM    3  C4  UNL     1      -5.386   2.370  12.578  1.00  0.00     0.076 C 
HETATM    4  C5  UNL     1      -6.129   3.361  13.372  1.00  0.00     0.080 C 
HETATM    5  C6  UNL     1      -5.533   4.729  13.423  1.00  0.00     0.025 C 
HETATM    6  C7  UNL     1      -5.011   5.120  14.781  1.00  0.00     0.002 C 
HETATM    7  C8  UNL     1      -3.791   4.289  15.033  1.00  0.00     0.007 C 
HETATM    8  C9  UNL     1      -4.131   2.841  15.294  1.00  0.00     0.012 C 
HETATM    9  C10 UNL     1      -3.578   1.880  14.270  1.00  0.00     0.058 C 
HETATM   10  C11 UNL     1      -5.549   2.607  15.623  1.00  0.00     0.085 C 
HETATM   11  N5  UNL     1      -6.527   2.825  14.640  1.00  0.00    -0.412 N 
ATOM     12  H5  UNL     1      -7.505   2.604  14.826  1.00  0.00     0.154 HD
ENDROOT
BRANCH   1  13
HETATM   13  C2  UNL     1      -3.790   0.693  12.255  1.00  0.00     0.152 A 
HETATM   14  N1  UNL     1      -2.790   0.233  11.492  1.00  0.00    -0.263 N 
HETATM   15  C1  UNL     1      -1.706   1.022  10.993  1.00  0.00     0.176 C 
HETATM   16  N2  UNL     1      -3.094  -1.046  11.231  1.00  0.00    -0.003 NA
HETATM   17  N3  UNL     1      -4.257  -1.364  11.817  1.00  0.00    -0.225 N 
HETATM   18  N4  UNL     1      -4.673  -0.291  12.440  1.00  0.00    -0.272 N 
ATOM     19  H3  UNL     1      -4.729  -2.268  11.784  1.00  0.00     0.205 HD
ATOM     20  H4  UNL     1      -5.534  -0.219  12.982  1.00  0.00     0.189 HD
ENDBRANCH   1  13
BRANCH  10  21
HETATM   21  C12 UNL     1      -5.692   1.222  16.227  1.00  0.00     0.008 A 
HETATM   22  C13 UNL     1      -5.819   1.115  17.727  1.00  0.00     0.007 A 
HETATM   23  C14 UNL     1      -6.998   0.812  16.846  1.00  0.00     0.007 A 
ENDBRANCH  10  21
TORSDOF 2
ENDMDL
MODEL 4
REMARK VINA RESULT: -7.178363255      1.523      1.853
REMARK  2 active torsions:
REMARK  status: ('A' for Active; 'I' for Inactive)
REMARK    1  A    between atoms: C2_8  and  C3_9 
REMARK    2  A    between atoms: C11_18  and  C12_19 
ROOT
HETATM    1  C3  UNL     1      -4.791   2.761  14.620  1.00  0.00     0.166 C 
HETATM    2  F1  UNL     1      -5.889   3.334  15.310  1.00  0.00    -0.234 F 
HETATM    3  C4  UNL     1      -3.568   3.309  15.189  1.00  0.00     0.076 C 
HETATM    4  C5  UNL     1      -2.953   4.528  14.640  1.00  0.00     0.080 C 
HETATM    5  C6  UNL     1      -3.812   5.750  14.654  1.00  0.00     0.025 C 
HETATM    6  C7  UNL     1      -4.223   6.225  13.285  1.00  0.00     0.002 C 
HETATM    7  C8  UNL     1      -5.199   5.222  12.752  1.00  0.00     0.007 C 
HETATM    8  C9  UNL     1      -4.532   3.918  12.383  1.00  0.00     0.012 C 
HETATM    9  C10 UNL     1      -4.998   2.732  13.190  1.00  0.00     0.058 C 
HETATM   10  C11 UNL     1      -3.065   4.010  12.255  1.00  0.00     0.085 C 
HETATM   11  N5  UNL     1      -2.291   4.266  13.396  1.00  0.00    -0.412 N 
ATOM     12  H5  UNL     1      -1.273   4.266  13.341  1.00  0.00     0.154 HD
ENDROOT
BRANCH   1  13
HETATM   13  C2  UNL     1      -4.805   1.330  15.064  1.00  0.00     0.152 A 
HETATM   14  N1  UNL     1      -4.522   0.198  14.406  1.00  0.00    -0.263 N 
HETATM   15  C1  UNL     1      -4.250   0.109  13.004  1.00  0.00     0.176 C 
HETATM   16  N2  UNL     1      -4.657  -0.786  15.305  1.00  0.00    -0.003 NA
HETATM   17  N3  UNL     1      -5.020  -0.272  16.489  1.00  0.00    -0.225 N 
HETATM   18  N4  UNL     1      -5.107   1.023  16.328  1.00  0.00    -0.272 N 
ATOM     19  H3  UNL     1      -5.195  -0.790  17.350  1.00  0.00     0.205 HD
ATOM     20  H4  UNL     1      -5.365   1.693  17.054  1.00  0.00     0.189 HD
ENDBRANCH   1  13
BRANCH  10  21
HETATM   21  C12 UNL     1      -2.558   2.779  11.525  1.00  0.00     0.008 A 
HETATM   22  C13 UNL     1      -1.729   2.987  10.280  1.00  0.00     0.007 A 
HETATM   23  C14 UNL     1      -1.090   2.462  11.534  1.00  0.00     0.007 A 
ENDBRANCH  10  21
TORSDOF 2
ENDMDL
MODEL 5
REMARK VINA RESULT: -7.152931026      2.285      4.983
REMARK  2 active torsions:
REMARK  status: ('A' for Active; 'I' for Inactive)
REMARK    1  A    between atoms: C2_8  and  C3_9 
REMARK    2  A    between atoms: C11_18  and  C12_19 
ROOT
HETATM    1  C3  UNL     1      -3.578   3.391  12.686  1.00  0.00     0.166 C 
HETATM    2  F1  UNL     1      -3.498   4.603  11.954  1.00  0.00    -0.234 F 
HETATM    3  C4  UNL     1      -4.902   2.825  12.471  1.00  0.00     0.076 C 
HETATM    4  C5  UNL     1      -6.022   3.149  13.369  1.00  0.00     0.080 C 
HETATM    5  C6  UNL     1      -6.375   4.596  13.469  1.00  0.00     0.025 C 
HETATM    6  C7  UNL     1      -6.083   5.207  14.814  1.00  0.00     0.002 C 
HETATM    7  C8  UNL     1      -4.593   5.289  14.939  1.00  0.00     0.007 C 
HETATM    8  C9  UNL     1      -3.961   3.931  15.130  1.00  0.00     0.012 C 
HETATM    9  C10 UNL     1      -3.030   3.518  14.016  1.00  0.00     0.058 C 
HETATM   10  C11 UNL     1      -4.913   2.877  15.529  1.00  0.00     0.085 C 
HETATM   11  N5  UNL     1      -5.902   2.466  14.624  1.00  0.00    -0.412 N 
ATOM     12  H5  UNL     1      -6.525   1.693  14.855  1.00  0.00     0.154 HD
ENDROOT
BRANCH   1  13
HETATM   13  C2  UNL     1      -2.652   2.472  11.948  1.00  0.00     0.152 A 
HETATM   14  N1  UNL     1      -1.551   2.720  11.226  1.00  0.00    -0.263 N 
HETATM   15  C1  UNL     1      -1.072   4.023  10.879  1.00  0.00     0.176 C 
HETATM   16  N2  UNL     1      -1.098   1.522  10.835  1.00  0.00    -0.003 NA
HETATM   17  N3  UNL     1      -1.904   0.558  11.302  1.00  0.00    -0.225 N 
HETATM   18  N4  UNL     1      -2.850   1.152  11.982  1.00  0.00    -0.272 N 
ATOM     19  H3  UNL     1      -1.800  -0.447  11.156  1.00  0.00     0.205 HD
ATOM     20  H4  UNL     1      -3.618   0.682  12.461  1.00  0.00     0.189 HD
ENDBRANCH   1  13
BRANCH  10  21
HETATM   21  C12 UNL     1      -4.133   1.684  16.054  1.00  0.00     0.008 A 
HETATM   22  C13 UNL     1      -4.869   0.677  16.904  1.00  0.00     0.007 A 
HETATM   23  C14 UNL     1      -4.423   0.312  15.516  1.00  0.00     0.007 A 
ENDBRANCH  10  21
TORSDOF 2
ENDMDL
