MODEL 1
REMARK VINA RESULT: -7.162929291      0.000      0.000
REMARK  2 active torsions:
REMARK  status: ('A' for Active; 'I' for Inactive)
REMARK    1  A    between atoms: C1_2  and  C2_4 
REMARK    2  A    between atoms: C2_4  and  N1_5 
ROOT
HETATM    1  N1  UNL     1      -4.548   1.360  16.484  1.00  0.00    -0.355 N 
ATOM      2  H1  UNL     1      -3.740   0.759  16.639  1.00  0.00     0.162 HD
HETATM    3  C3  UNL     1      -4.564   2.143  15.458  1.00  0.00     0.181 C 
HETATM    4  O3  UNL     1      -3.562   2.237  14.537  1.00  0.00    -0.292 OA
HETATM    5  C4  UNL     1      -3.725   2.518  13.168  1.00  0.00     0.172 C 
HETATM    6  C5  UNL     1      -3.208   3.888  12.797  1.00  0.00     0.069 C 
HETATM    7  C6  UNL     1      -1.716   3.967  12.744  1.00  0.00     0.005 C 
HETATM    8  C7  UNL     1      -1.210   3.722  11.337  1.00  0.00     0.002 C 
HETATM    9  C8  UNL     1      -1.250   2.210  11.135  1.00  0.00     0.026 C 
HETATM   10  C9  UNL     1      -2.728   1.825  11.194  1.00  0.00     0.171 C 
HETATM   11  O4  UNL     1      -3.056   1.498  12.480  1.00  0.00    -0.355 OA
HETATM   12  C10 UNL     1      -5.170   2.461  12.724  1.00  0.00     0.079 C 
HETATM   13  C11 UNL     1      -6.017   3.519  13.393  1.00  0.00     0.088 C 
HETATM   14  S1  UNL     1      -6.001   3.200  15.198  1.00  0.00    -0.087 SA
ENDROOT
BRANCH   1  15
HETATM   15  C2  UNL     1      -5.638   1.317  17.408  1.00  0.00     0.235 C 
BRANCH  15  16
HETATM   16  C1  UNL     1      -6.463   0.091  17.270  1.00  0.00     0.191 C 
HETATM   17  O1  UNL     1      -7.622   0.202  16.829  1.00  0.00    -0.647 OA
HETATM   18  O2  UNL     1      -5.988  -1.173  17.617  1.00  0.00    -0.647 OA
ENDBRANCH  15  16
ENDBRANCH   1  15
TORSDOF 2
ENDMDL
MODEL 2
REMARK VINA RESULT: -6.740704236      1.653      2.240
REMARK  2 active torsions:
REMARK  status: ('A' for Active; 'I' for Inactive)
REMARK    1  A    between atoms: C1_2  and  C2_4 
REMARK    2  A    between atoms: C2_4  and  N1_5 
ROOT
HETATM    1  N1  UNL     1      -3.838   2.218  14.996  1.00  0.00    -0.355 N 
ATOM      2  H1  UNL     1      -2.944   2.355  15.467  1.00  0.00     0.162 HD
HETATM    3  C3  UNL     1      -3.904   2.363  13.714  1.00  0.00     0.181 C 
HETATM    4  O3  UNL     1      -2.849   2.694  12.915  1.00  0.00    -0.292 OA
HETATM    5  C4  UNL     1      -2.657   2.271  11.586  1.00  0.00     0.172 C 
HETATM    6  C5  UNL     1      -2.826   3.397  10.595  1.00  0.00     0.069 C 
HETATM    7  C6  UNL     1      -1.672   4.347  10.571  1.00  0.00     0.005 C 
HETATM    8  C7  UNL     1      -0.670   3.955   9.503  1.00  0.00     0.002 C 
HETATM    9  C8  UNL     1       0.142   2.805  10.094  1.00  0.00     0.026 C 
HETATM   10  C9  UNL     1      -0.847   1.654  10.279  1.00  0.00     0.171 C 
HETATM   11  O4  UNL     1      -1.374   1.713  11.539  1.00  0.00    -0.355 OA
HETATM   12  C10 UNL     1      -3.618   1.177  11.174  1.00  0.00     0.079 C 
HETATM   13  C11 UNL     1      -5.056   1.644  11.180  1.00  0.00     0.088 C 
HETATM   14  S1  UNL     1      -5.491   2.116  12.897  1.00  0.00    -0.087 SA
ENDROOT
BRANCH   1  15
HETATM   15  C2  UNL     1      -4.988   1.870  15.768  1.00  0.00     0.235 C 
BRANCH  15  16
HETATM   16  C1  UNL     1      -4.984   0.450  16.202  1.00  0.00     0.191 C 
HETATM   17  O1  UNL     1      -3.888  -0.124  16.341  1.00  0.00    -0.647 OA
HETATM   18  O2  UNL     1      -6.158  -0.258  16.456  1.00  0.00    -0.647 OA
ENDBRANCH  15  16
ENDBRANCH   1  15
TORSDOF 2
ENDMDL
MODEL 3
REMARK VINA RESULT: -6.654374422      1.153      1.316
REMARK  2 active torsions:
REMARK  status: ('A' for Active; 'I' for Inactive)
REMARK    1  A    between atoms: C1_2  and  C2_4 
REMARK    2  A    between atoms: C2_4  and  N1_5 
ROOT
HETATM    1  N1  UNL     1      -3.954   1.715  16.110  1.00  0.00    -0.355 N 
ATOM      2  H1  UNL     1      -3.066   1.239  16.268  1.00  0.00     0.162 HD
HETATM    3  C3  UNL     1      -4.023   2.640  15.212  1.00  0.00     0.181 C 
HETATM    4  O3  UNL     1      -2.979   3.046  14.434  1.00  0.00    -0.292 OA
HETATM    5  C4  UNL     1      -3.071   3.514  13.110  1.00  0.00     0.172 C 
HETATM    6  C5  UNL     1      -2.782   4.991  13.001  1.00  0.00     0.069 C 
HETATM    7  C6  UNL     1      -1.330   5.326  13.129  1.00  0.00     0.005 C 
HETATM    8  C7  UNL     1      -0.668   5.398  11.768  1.00  0.00     0.002 C 
HETATM    9  C8  UNL     1      -0.415   3.953  11.347  1.00  0.00     0.026 C 
HETATM   10  C9  UNL     1      -1.798   3.323  11.183  1.00  0.00     0.171 C 
HETATM   11  O4  UNL     1      -2.171   2.743  12.363  1.00  0.00    -0.355 OA
HETATM   12  C10 UNL     1      -4.437   3.290  12.501  1.00  0.00     0.079 C 
HETATM   13  C11 UNL     1      -5.518   4.070  13.215  1.00  0.00     0.088 C 
HETATM   14  S1  UNL     1      -5.600   3.471  14.946  1.00  0.00    -0.087 SA
ENDROOT
BRANCH   1  15
HETATM   15  C2  UNL     1      -5.093   1.343  16.889  1.00  0.00     0.235 C 
BRANCH  15  16
HETATM   16  C1  UNL     1      -5.677   0.043  16.473  1.00  0.00     0.191 C 
HETATM   17  O1  UNL     1      -6.826  -0.241  16.857  1.00  0.00    -0.647 OA
HETATM   18  O2  UNL     1      -4.985  -0.865  15.672  1.00  0.00    -0.647 OA
ENDBRANCH  15  16
ENDBRANCH   1  15
TORSDOF 2
ENDMDL
MODEL 4
REMARK VINA RESULT: -6.635405904      2.777      3.524
REMARK  2 active torsions:
REMARK  status: ('A' for Active; 'I' for Inactive)
REMARK    1  A    between atoms: C1_2  and  C2_4 
REMARK    2  A    between atoms: C2_4  and  N1_5 
ROOT
HETATM    1  N1  UNL     1      -3.780   1.904  13.935  1.00  0.00    -0.355 N 
ATOM      2  H1  UNL     1      -2.845   1.719  13.573  1.00  0.00     0.162 HD
HETATM    3  C3  UNL     1      -4.140   3.123  14.159  1.00  0.00     0.181 C 
HETATM    4  O3  UNL     1      -3.353   4.217  13.947  1.00  0.00    -0.292 OA
HETATM    5  C4  UNL     1      -3.801   5.492  13.555  1.00  0.00     0.172 C 
HETATM    6  C5  UNL     1      -3.668   6.513  14.659  1.00  0.00     0.069 C 
HETATM    7  C6  UNL     1      -2.261   6.963  14.888  1.00  0.00     0.005 C 
HETATM    8  C7  UNL     1      -1.958   8.218  14.096  1.00  0.00     0.002 C 
HETATM    9  C8  UNL     1      -1.698   7.758  12.664  1.00  0.00     0.026 C 
HETATM   10  C9  UNL     1      -3.024   7.178  12.170  1.00  0.00     0.171 C 
HETATM   11  O4  UNL     1      -3.050   5.836  12.424  1.00  0.00    -0.355 OA
HETATM   12  C10 UNL     1      -5.252   5.498  13.126  1.00  0.00     0.079 C 
HETATM   13  C11 UNL     1      -6.186   5.140  14.260  1.00  0.00     0.088 C 
HETATM   14  S1  UNL     1      -5.796   3.432  14.798  1.00  0.00    -0.087 SA
ENDROOT
BRANCH   1  15
HETATM   15  C2  UNL     1      -4.662   0.807  14.182  1.00  0.00     0.235 C 
BRANCH  15  16
HETATM   16  C1  UNL     1      -4.378   0.117  15.466  1.00  0.00     0.191 C 
HETATM   17  O1  UNL     1      -4.960  -0.958  15.702  1.00  0.00    -0.647 OA
HETATM   18  O2  UNL     1      -3.491   0.630  16.411  1.00  0.00    -0.647 OA
ENDBRANCH  15  16
ENDBRANCH   1  15
TORSDOF 2
ENDMDL
MODEL 5
REMARK VINA RESULT: -6.414286263      2.114      3.032
REMARK  2 active torsions:
REMARK  status: ('A' for Active; 'I' for Inactive)
REMARK    1  A    between atoms: C1_2  and  C2_4 
REMARK    2  A    between atoms: C2_4  and  N1_5 
ROOT
HETATM    1  N1  UNL     1      -4.089   2.259  14.429  1.00  0.00    -0.355 N 
ATOM      2  H1  UNL     1      -3.653   2.940  15.050  1.00  0.00     0.162 HD
HETATM    3  C3  UNL     1      -3.737   2.220  13.188  1.00  0.00     0.181 C 
HETATM    4  O3  UNL     1      -2.804   3.038  12.620  1.00  0.00    -0.292 OA
HETATM    5  C4  UNL     1      -1.939   2.693  11.564  1.00  0.00     0.172 C 
HETATM    6  C5  UNL     1      -2.287   3.405  10.280  1.00  0.00     0.069 C 
HETATM    7  C6  UNL     1      -1.893   4.847  10.272  1.00  0.00     0.005 C 
HETATM    8  C7  UNL     1      -0.522   5.030   9.653  1.00  0.00     0.002 C 
HETATM    9  C8  UNL     1       0.482   4.644  10.737  1.00  0.00     0.026 C 
HETATM   10  C9  UNL     1       0.259   3.154  10.993  1.00  0.00     0.171 C 
HETATM   11  O4  UNL     1      -0.646   3.003  12.006  1.00  0.00    -0.355 OA
HETATM   12  C10 UNL     1      -1.946   1.212  11.259  1.00  0.00     0.079 C 
HETATM   13  C11 UNL     1      -3.294   0.734  10.766  1.00  0.00     0.088 C 
HETATM   14  S1  UNL     1      -4.516   1.009  12.105  1.00  0.00    -0.087 SA
ENDROOT
BRANCH   1  15
HETATM   15  C2  UNL     1      -5.076   1.368  14.954  1.00  0.00     0.235 C 
BRANCH  15  16
HETATM   16  C1  UNL     1      -4.489   0.260  15.749  1.00  0.00     0.191 C 
HETATM   17  O1  UNL     1      -3.556   0.522  16.531  1.00  0.00    -0.647 OA
HETATM   18  O2  UNL     1      -4.943  -1.054  15.650  1.00  0.00    -0.647 OA
ENDBRANCH  15  16
ENDBRANCH   1  15
TORSDOF 2
ENDMDL
