MODEL 1
REMARK VINA RESULT: -7.342060390      0.000      0.000
REMARK  3 active torsions:
REMARK  status: ('A' for Active; 'I' for Inactive)
REMARK    1  A    between atoms: C3_4  and  S1_5 
REMARK    2  A    between atoms: S1_5  and  C4_6 
REMARK    3  A    between atoms: C12_18  and  O3_19 
ROOT
HETATM    1  C1  UNL     1      -1.083   1.205  10.312  1.00  0.00     0.042 C 
HETATM    2  C2  UNL     1      -2.142   0.640  11.200  1.00  0.00     0.157 C 
HETATM    3  O1  UNL     1      -3.207   1.510  11.447  1.00  0.00    -0.363 OA
HETATM    4  C3  UNL     1      -3.677   1.345  12.764  1.00  0.00     0.237 C 
HETATM    5  C10 UNL     1      -4.780   0.315  12.801  1.00  0.00     0.311 C 
HETATM    6  F1  UNL     1      -5.512   0.433  11.605  1.00  0.00    -0.223 F 
HETATM    7  N1  UNL     1      -4.194  -1.028  12.680  1.00  0.00    -0.326 N 
ATOM      8  H1  UNL     1      -4.422  -1.711  13.403  1.00  0.00     0.165 HD
HETATM    9  C11 UNL     1      -3.341  -1.441  11.637  1.00  0.00     0.251 C 
HETATM   10  O2  UNL     1      -3.055  -2.680  11.559  1.00  0.00    -0.270 OA
HETATM   11  C12 UNL     1      -2.697  -0.616  10.568  1.00  0.00     0.238 C 
ENDROOT
BRANCH   4  12
HETATM   12  S1  UNL     1      -4.086   2.848  13.553  1.00  0.00    -0.128 SA
BRANCH  12  13
HETATM   13  C4  UNL     1      -4.805   2.832  15.164  1.00  0.00     0.050 C 
HETATM   14  C5  UNL     1      -6.284   2.666  15.188  1.00  0.00     0.015 C 
HETATM   15  C6  UNL     1      -6.698   2.764  16.667  1.00  0.00     0.001 C 
HETATM   16  C7  UNL     1      -6.425   1.411  17.260  1.00  0.00     0.000 C 
HETATM   17  C8  UNL     1      -5.262   0.785  16.574  1.00  0.00     0.001 C 
HETATM   18  C9  UNL     1      -4.220   1.743  16.070  1.00  0.00     0.015 C 
ENDBRANCH  12  13
ENDBRANCH   4  12
BRANCH  11  19
HETATM   19  O3  UNL     1      -3.591  -0.223   9.577  1.00  0.00    -0.384 OA
ATOM     20  H3  UNL     1      -4.238  -0.913   9.487  1.00  0.00     0.210 HD
ENDBRANCH  11  19
TORSDOF 3
ENDMDL
MODEL 2
REMARK VINA RESULT: -7.009325220      3.934      5.604
REMARK  3 active torsions:
REMARK  status: ('A' for Active; 'I' for Inactive)
REMARK    1  A    between atoms: C3_4  and  S1_5 
REMARK    2  A    between atoms: S1_5  and  C4_6 
REMARK    3  A    between atoms: C12_18  and  O3_19 
ROOT
HETATM    1  C1  UNL     1      -6.151   1.352  17.389  1.00  0.00     0.042 C 
HETATM    2  C2  UNL     1      -5.713   1.560  15.977  1.00  0.00     0.157 C 
HETATM    3  O1  UNL     1      -5.238   2.847  15.709  1.00  0.00    -0.363 OA
HETATM    4  C3  UNL     1      -5.602   3.239  14.406  1.00  0.00     0.237 C 
HETATM    5  C10 UNL     1      -4.522   2.859  13.423  1.00  0.00     0.311 C 
HETATM    6  F1  UNL     1      -3.284   2.996  14.079  1.00  0.00    -0.223 F 
HETATM    7  N1  UNL     1      -4.584   1.413  13.168  1.00  0.00    -0.326 N 
ATOM      8  H1  UNL     1      -4.666   1.106  12.199  1.00  0.00     0.165 HD
HETATM    9  C11 UNL     1      -4.539   0.419  14.166  1.00  0.00     0.251 C 
HETATM   10  O2  UNL     1      -4.419  -0.794  13.793  1.00  0.00    -0.270 OA
HETATM   11  C12 UNL     1      -4.612   0.576  15.653  1.00  0.00     0.238 C 
ENDROOT
BRANCH   4  12
HETATM   12  S1  UNL     1      -6.105   4.908  14.294  1.00  0.00    -0.128 SA
BRANCH  12  13
HETATM   13  C4  UNL     1      -6.431   5.628  12.717  1.00  0.00     0.050 C 
HETATM   14  C5  UNL     1      -7.412   6.747  12.731  1.00  0.00     0.015 C 
HETATM   15  C6  UNL     1      -7.605   7.161  11.261  1.00  0.00     0.001 C 
HETATM   16  C7  UNL     1      -6.435   8.042  10.926  1.00  0.00     0.000 C 
HETATM   17  C8  UNL     1      -5.244   7.618  11.710  1.00  0.00     0.001 C 
HETATM   18  C9  UNL     1      -5.169   6.151  12.025  1.00  0.00     0.015 C 
ENDBRANCH  12  13
ENDBRANCH   4  12
BRANCH  11  19
HETATM   19  O3  UNL     1      -3.435   1.072  16.202  1.00  0.00    -0.384 OA
ATOM     20  H3  UNL     1      -3.186   1.838  15.699  1.00  0.00     0.210 HD
ENDBRANCH  11  19
TORSDOF 3
ENDMDL
MODEL 3
REMARK VINA RESULT: -6.975142803      3.274      5.164
REMARK  3 active torsions:
REMARK  status: ('A' for Active; 'I' for Inactive)
REMARK    1  A    between atoms: C3_4  and  S1_5 
REMARK    2  A    between atoms: S1_5  and  C4_6 
REMARK    3  A    between atoms: C12_18  and  O3_19 
ROOT
HETATM    1  C1  UNL     1      -6.068   1.232  17.666  1.00  0.00     0.042 C 
HETATM    2  C2  UNL     1      -5.711   1.307  16.219  1.00  0.00     0.157 C 
HETATM    3  O1  UNL     1      -5.277   2.568  15.801  1.00  0.00    -0.363 OA
HETATM    4  C3  UNL     1      -5.719   2.826  14.489  1.00  0.00     0.237 C 
HETATM    5  C10 UNL     1      -4.686   2.367  13.488  1.00  0.00     0.311 C 
HETATM    6  F1  UNL     1      -3.417   2.585  14.057  1.00  0.00    -0.223 F 
HETATM    7  N1  UNL     1      -4.734   0.902  13.378  1.00  0.00    -0.326 N 
ATOM      8  H1  UNL     1      -4.863   0.501  12.450  1.00  0.00     0.165 HD
HETATM    9  C11 UNL     1      -4.616   0.011  14.464  1.00  0.00     0.251 C 
HETATM   10  O2  UNL     1      -4.493  -1.230  14.204  1.00  0.00    -0.270 OA
HETATM   11  C12 UNL     1      -4.611   0.312  15.930  1.00  0.00     0.238 C 
ENDROOT
BRANCH   4  12
HETATM   12  S1  UNL     1      -6.259   4.469  14.244  1.00  0.00    -0.128 SA
BRANCH  12  13
HETATM   13  C4  UNL     1      -5.080   5.767  14.055  1.00  0.00     0.050 C 
HETATM   14  C5  UNL     1      -3.891   5.668  14.947  1.00  0.00     0.015 C 
HETATM   15  C6  UNL     1      -3.051   6.928  14.675  1.00  0.00     0.001 C 
HETATM   16  C7  UNL     1      -2.274   6.641  13.422  1.00  0.00     0.000 C 
HETATM   17  C8  UNL     1      -3.059   5.739  12.537  1.00  0.00     0.001 C 
HETATM   18  C9  UNL     1      -4.552   5.892  12.623  1.00  0.00     0.015 C 
ENDBRANCH  12  13
ENDBRANCH   4  12
BRANCH  11  19
HETATM   19  O3  UNL     1      -3.415   0.875  16.362  1.00  0.00    -0.384 OA
ATOM     20  H3  UNL     1      -2.740   0.620  15.743  1.00  0.00     0.210 HD
ENDBRANCH  11  19
TORSDOF 3
ENDMDL
MODEL 4
REMARK VINA RESULT: -6.857094979      2.062      2.688
REMARK  3 active torsions:
REMARK  status: ('A' for Active; 'I' for Inactive)
REMARK    1  A    between atoms: C3_4  and  S1_5 
REMARK    2  A    between atoms: S1_5  and  C4_6 
REMARK    3  A    between atoms: C12_18  and  O3_19 
ROOT
HETATM    1  C1  UNL     1      -3.475   5.501  11.162  1.00  0.00     0.042 C 
HETATM    2  C2  UNL     1      -3.578   4.094  11.651  1.00  0.00     0.157 C 
HETATM    3  O1  UNL     1      -4.868   3.711  12.028  1.00  0.00    -0.363 OA
HETATM    4  C3  UNL     1      -4.815   2.839  13.132  1.00  0.00     0.237 C 
HETATM    5  C10 UNL     1      -4.749   1.406  12.665  1.00  0.00     0.311 C 
HETATM    6  F1  UNL     1      -5.518   1.306  11.490  1.00  0.00    -0.223 F 
HETATM    7  N1  UNL     1      -3.393   1.115  12.178  1.00  0.00    -0.326 N 
ATOM      8  H1  UNL     1      -2.903   0.320  12.588  1.00  0.00     0.165 HD
HETATM    9  C11 UNL     1      -2.720   1.856  11.186  1.00  0.00     0.251 C 
HETATM   10  O2  UNL     1      -1.625   1.387  10.733  1.00  0.00    -0.270 OA
HETATM   11  C12 UNL     1      -3.110   3.158  10.560  1.00  0.00     0.238 C 
ENDROOT
BRANCH   4  12
HETATM   12  S1  UNL     1      -6.061   3.140  14.319  1.00  0.00    -0.128 SA
BRANCH  12  13
HETATM   13  C4  UNL     1      -5.892   2.505  15.956  1.00  0.00     0.050 C 
HETATM   14  C5  UNL     1      -7.087   1.787  16.476  1.00  0.00     0.015 C 
HETATM   15  C6  UNL     1      -6.752   1.398  17.926  1.00  0.00     0.001 C 
HETATM   16  C7  UNL     1      -5.909   0.158  17.835  1.00  0.00     0.000 C 
HETATM   17  C8  UNL     1      -5.105   0.186  16.584  1.00  0.00     0.001 C 
HETATM   18  C9  UNL     1      -4.700   1.554  16.109  1.00  0.00     0.015 C 
ENDBRANCH  12  13
ENDBRANCH   4  12
BRANCH  11  19
HETATM   19  O3  UNL     1      -4.151   3.028   9.647  1.00  0.00    -0.384 OA
ATOM     20  H3  UNL     1      -4.108   3.773   9.059  1.00  0.00     0.210 HD
ENDBRANCH  11  19
TORSDOF 3
ENDMDL
MODEL 5
REMARK VINA RESULT: -6.721692371      2.412      3.111
REMARK  3 active torsions:
REMARK  status: ('A' for Active; 'I' for Inactive)
REMARK    1  A    between atoms: C3_4  and  S1_5 
REMARK    2  A    between atoms: S1_5  and  C4_6 
REMARK    3  A    between atoms: C12_18  and  O3_19 
ROOT
HETATM    1  C1  UNL     1      -1.462   1.393  10.152  1.00  0.00     0.042 C 
HETATM    2  C2  UNL     1      -2.446   1.277  11.269  1.00  0.00     0.157 C 
HETATM    3  O1  UNL     1      -3.108   2.470  11.575  1.00  0.00    -0.363 OA
HETATM    4  C3  UNL     1      -3.334   2.560  12.961  1.00  0.00     0.237 C 
HETATM    5  C10 UNL     1      -4.675   1.966  13.314  1.00  0.00     0.311 C 
HETATM    6  F1  UNL     1      -5.555   2.243  12.251  1.00  0.00    -0.223 F 
HETATM    7  N1  UNL     1      -4.583   0.499  13.273  1.00  0.00    -0.326 N 
ATOM      8  H1  UNL     1      -4.867  -0.017  14.105  1.00  0.00     0.165 HD
HETATM    9  C11 UNL     1      -4.131  -0.245  12.165  1.00  0.00     0.251 C 
HETATM   10  O2  UNL     1      -4.274  -1.511  12.201  1.00  0.00    -0.270 OA
HETATM   11  C12 UNL     1      -3.486   0.242  10.906  1.00  0.00     0.238 C 
ENDROOT
BRANCH   4  12
HETATM   12  S1  UNL     1      -3.079   4.163  13.607  1.00  0.00    -0.128 SA
BRANCH  12  13
HETATM   13  C4  UNL     1      -4.337   5.389  13.449  1.00  0.00     0.050 C 
HETATM   14  C5  UNL     1      -5.006   5.433  12.119  1.00  0.00     0.015 C 
HETATM   15  C6  UNL     1      -5.993   6.612  12.178  1.00  0.00     0.001 C 
HETATM   16  C7  UNL     1      -7.207   6.094  12.896  1.00  0.00     0.000 C 
HETATM   17  C8  UNL     1      -6.804   5.060  13.888  1.00  0.00     0.001 C 
HETATM   18  C9  UNL     1      -5.444   5.249  14.498  1.00  0.00     0.015 C 
ENDBRANCH  12  13
ENDBRANCH   4  12
BRANCH  11  19
HETATM   19  O3  UNL     1      -4.387   0.844  10.035  1.00  0.00    -0.384 OA
ATOM     20  H3  UNL     1      -4.257   0.456   9.177  1.00  0.00     0.210 HD
ENDBRANCH  11  19
TORSDOF 3
ENDMDL
