MODEL 1
REMARK VINA RESULT: -6.235850216      0.000      0.000
REMARK  9 active torsions:
REMARK  status: ('A' for Active; 'I' for Inactive)
REMARK    1  A    between atoms: C3_3  and  C4_4 
REMARK    2  A    between atoms: C5_5  and  C6_6 
REMARK    3  A    between atoms: N3_20  and  C16_21 
REMARK    4  A    between atoms: C16_21  and  C17_22 
REMARK    5  A    between atoms: C17_22  and  C18_23 
REMARK    6  A    between atoms: C18_23  and  C19_24 
REMARK    7  A    between atoms: C19_24  and  C20_25 
REMARK    8  A    between atoms: C20_25  and  C21_26 
REMARK    9  A    between atoms: C21_26  and  C22_27 
ROOT
HETATM    1  C1  UNL     1       9.740 -20.189  15.359  1.00  0.00     0.113 C 
HETATM    2  C2  UNL     1      10.494 -19.372  16.325  1.00  0.00    -0.097 C 
HETATM    3  C3  UNL     1      11.113 -18.693  17.108  1.00  0.00    -0.015 C 
ENDROOT
BRANCH   3   4
HETATM    4  C4  UNL     1      11.850 -17.891  18.009  1.00  0.00    -0.011 C 
HETATM    5  C5  UNL     1      12.490 -17.199  18.762  1.00  0.00    -0.064 C 
BRANCH   5   6
HETATM    6  C6  UNL     1      13.273 -16.354  19.650  1.00  0.00     0.069 C 
HETATM    7  C7  UNL     1      13.997 -15.357  19.206  1.00  0.00    -0.054 A 
HETATM    8  C8  UNL     1      14.239 -14.813  17.847  1.00  0.00     0.073 A 
HETATM    9  C24 UNL     1      14.859 -14.350  19.735  1.00  0.00     0.052 A 
HETATM   10  C9  UNL     1      15.259 -13.806  18.404  1.00  0.00     0.244 A 
HETATM   11  N1  UNL     1      14.772 -12.446  18.467  1.00  0.00     0.091 N 
HETATM   12  C10 UNL     1      15.451 -11.575  17.532  1.00  0.00     0.310 C 
HETATM   13  C11 UNL     1      15.042 -12.029  19.854  1.00  0.00     0.283 C 
HETATM   14  C12 UNL     1      14.568 -13.259  20.606  1.00  0.00     0.067 A 
HETATM   15  C13 UNL     1      15.622 -14.316  20.920  1.00  0.00    -0.011 A 
HETATM   16  C14 UNL     1      16.506 -14.636  21.862  1.00  0.00     0.128 A 
HETATM   17  N2  UNL     1      17.392 -15.773  21.826  1.00  0.00    -0.292 N 
HETATM   18  N4  UNL     1      16.800 -13.979  23.090  1.00  0.00    -0.279 N 
HETATM   19  C15 UNL     1      18.169 -15.762  23.005  1.00  0.00     0.342 A 
ATOM     20  H2  UNL     1      17.447 -16.465  21.078  1.00  0.00     0.172 HD
HETATM   21  O1  UNL     1      19.060 -16.617  23.316  1.00  0.00    -0.245 OA
HETATM   22  N3  UNL     1      17.795 -14.623  23.809  1.00  0.00    -0.241 N 
ATOM     23  H4  UNL     1      16.331 -13.130  23.406  1.00  0.00     0.189 HD
BRANCH  22  24
HETATM   24  C16 UNL     1      18.428 -14.342  25.074  1.00  0.00     0.154 C 
BRANCH  24  25
HETATM   25  C17 UNL     1      19.392 -13.162  24.903  1.00  0.00     0.022 C 
BRANCH  25  26
HETATM   26  C18 UNL     1      20.750 -13.666  24.654  1.00  0.00     0.002 C 
BRANCH  26  27
HETATM   27  C19 UNL     1      21.243 -13.604  23.273  1.00  0.00     0.000 C 
BRANCH  27  28
HETATM   28  C20 UNL     1      20.460 -12.925  22.254  1.00  0.00     0.000 C 
BRANCH  28  29
HETATM   29  C21 UNL     1      20.153 -13.519  20.936  1.00  0.00    -0.000 C 
BRANCH  29  30
HETATM   30  C22 UNL     1      19.965 -12.307  19.949  1.00  0.00    -0.005 C 
HETATM   31  C23 UNL     1      18.554 -11.789  20.116  1.00  0.00     0.005 C 
ENDBRANCH  29  30
ENDBRANCH  28  29
ENDBRANCH  27  28
ENDBRANCH  26  27
ENDBRANCH  25  26
ENDBRANCH  24  25
ENDBRANCH  22  24
ENDBRANCH   5   6
ENDBRANCH   3   4
TORSDOF 9
ENDMDL
MODEL 2
REMARK VINA RESULT: -6.219091369      2.847      8.212
REMARK  9 active torsions:
REMARK  status: ('A' for Active; 'I' for Inactive)
REMARK    1  A    between atoms: C3_3  and  C4_4 
REMARK    2  A    between atoms: C5_5  and  C6_6 
REMARK    3  A    between atoms: N3_20  and  C16_21 
REMARK    4  A    between atoms: C16_21  and  C17_22 
REMARK    5  A    between atoms: C17_22  and  C18_23 
REMARK    6  A    between atoms: C18_23  and  C19_24 
REMARK    7  A    between atoms: C19_24  and  C20_25 
REMARK    8  A    between atoms: C20_25  and  C21_26 
REMARK    9  A    between atoms: C21_26  and  C22_27 
ROOT
HETATM    1  C1  UNL     1      22.843 -13.235  24.326  1.00  0.00     0.113 C 
HETATM    2  C2  UNL     1      21.591 -13.379  23.563  1.00  0.00    -0.097 C 
HETATM    3  C3  UNL     1      20.559 -13.498  22.948  1.00  0.00    -0.015 C 
ENDROOT
BRANCH   3   4
HETATM    4  C4  UNL     1      19.344 -13.652  22.242  1.00  0.00    -0.011 C 
HETATM    5  C5  UNL     1      18.297 -13.783  21.658  1.00  0.00    -0.064 C 
BRANCH   5   6
HETATM    6  C6  UNL     1      17.022 -13.939  20.976  1.00  0.00     0.069 C 
HETATM    7  C7  UNL     1      16.025 -13.109  21.161  1.00  0.00    -0.054 A 
HETATM    8  C8  UNL     1      15.864 -11.897  22.002  1.00  0.00     0.073 A 
HETATM    9  C24 UNL     1      14.686 -12.935  20.699  1.00  0.00     0.052 A 
HETATM   10  C9  UNL     1      14.386 -11.780  21.595  1.00  0.00     0.244 A 
HETATM   11  N1  UNL     1      14.115 -10.719  20.651  1.00  0.00     0.091 N 
HETATM   12  C10 UNL     1      13.330  -9.653  21.234  1.00  0.00     0.310 C 
HETATM   13  C11 UNL     1      13.368 -11.380  19.567  1.00  0.00     0.283 C 
HETATM   14  C12 UNL     1      14.199 -12.638  19.391  1.00  0.00     0.067 A 
HETATM   15  C13 UNL     1      13.758 -13.864  20.185  1.00  0.00    -0.011 A 
HETATM   16  C14 UNL     1      12.957 -14.921  20.079  1.00  0.00     0.128 A 
HETATM   17  N2  UNL     1      12.776 -15.937  21.087  1.00  0.00    -0.292 N 
HETATM   18  N4  UNL     1      12.108 -15.312  19.006  1.00  0.00    -0.279 N 
HETATM   19  C15 UNL     1      11.848 -16.882  20.595  1.00  0.00     0.342 A 
ATOM     20  H2  UNL     1      13.238 -15.968  21.996  1.00  0.00     0.172 HD
HETATM   21  O1  UNL     1      11.446 -17.920  21.215  1.00  0.00    -0.245 OA
HETATM   22  N3  UNL     1      11.422 -16.487  19.274  1.00  0.00    -0.241 N 
ATOM     23  H4  UNL     1      12.015 -14.787  18.136  1.00  0.00     0.189 HD
BRANCH  22  24
HETATM   24  C16 UNL     1      10.464 -17.257  18.520  1.00  0.00     0.154 C 
BRANCH  24  25
HETATM   25  C17 UNL     1      11.124 -17.752  17.227  1.00  0.00     0.022 C 
BRANCH  25  26
HETATM   26  C18 UNL     1      11.948 -18.936  17.516  1.00  0.00     0.002 C 
BRANCH  26  27
HETATM   27  C19 UNL     1      13.404 -18.761  17.477  1.00  0.00     0.000 C 
BRANCH  27  28
HETATM   28  C20 UNL     1      13.977 -17.589  16.836  1.00  0.00     0.000 C 
BRANCH  28  29
HETATM   29  C21 UNL     1      14.988 -16.724  17.480  1.00  0.00    -0.000 C 
BRANCH  29  30
HETATM   30  C22 UNL     1      14.919 -15.345  16.725  1.00  0.00    -0.005 C 
HETATM   31  C23 UNL     1      15.606 -15.514  15.389  1.00  0.00     0.005 C 
ENDBRANCH  29  30
ENDBRANCH  28  29
ENDBRANCH  27  28
ENDBRANCH  26  27
ENDBRANCH  25  26
ENDBRANCH  24  25
ENDBRANCH  22  24
ENDBRANCH   5   6
ENDBRANCH   3   4
TORSDOF 9
ENDMDL
MODEL 3
REMARK VINA RESULT: -6.127993443      2.778      8.197
REMARK  9 active torsions:
REMARK  status: ('A' for Active; 'I' for Inactive)
REMARK    1  A    between atoms: C3_3  and  C4_4 
REMARK    2  A    between atoms: C5_5  and  C6_6 
REMARK    3  A    between atoms: N3_20  and  C16_21 
REMARK    4  A    between atoms: C16_21  and  C17_22 
REMARK    5  A    between atoms: C17_22  and  C18_23 
REMARK    6  A    between atoms: C18_23  and  C19_24 
REMARK    7  A    between atoms: C19_24  and  C20_25 
REMARK    8  A    between atoms: C20_25  and  C21_26 
REMARK    9  A    between atoms: C21_26  and  C22_27 
ROOT
HETATM    1  C1  UNL     1      22.999 -13.234  24.354  1.00  0.00     0.113 C 
HETATM    2  C2  UNL     1      21.747 -13.431  23.603  1.00  0.00    -0.097 C 
HETATM    3  C3  UNL     1      20.717 -13.600  22.995  1.00  0.00    -0.015 C 
ENDROOT
BRANCH   3   4
HETATM    4  C4  UNL     1      19.514 -13.820  22.287  1.00  0.00    -0.011 C 
HETATM    5  C5  UNL     1      18.476 -14.001  21.699  1.00  0.00    -0.064 C 
BRANCH   5   6
HETATM    6  C6  UNL     1      17.212 -14.209  21.011  1.00  0.00     0.069 C 
HETATM    7  C7  UNL     1      16.195 -13.397  21.156  1.00  0.00    -0.054 A 
HETATM    8  C8  UNL     1      15.998 -12.160  21.953  1.00  0.00     0.073 A 
HETATM    9  C24 UNL     1      14.858 -13.270  20.676  1.00  0.00     0.052 A 
HETATM   10  C9  UNL     1      14.523 -12.091  21.528  1.00  0.00     0.244 A 
HETATM   11  N1  UNL     1      14.237 -11.070  20.545  1.00  0.00     0.091 N 
HETATM   12  C10 UNL     1      13.422 -10.002  21.083  1.00  0.00     0.310 C 
HETATM   13  C11 UNL     1      13.517 -11.785  19.478  1.00  0.00     0.283 C 
HETATM   14  C12 UNL     1      14.377 -13.030  19.354  1.00  0.00     0.067 A 
HETATM   15  C13 UNL     1      13.956 -14.237  20.186  1.00  0.00    -0.011 A 
HETATM   16  C14 UNL     1      13.180 -15.315  20.110  1.00  0.00     0.128 A 
HETATM   17  N2  UNL     1      13.011 -16.299  21.150  1.00  0.00    -0.292 N 
HETATM   18  N4  UNL     1      12.352 -15.762  19.042  1.00  0.00    -0.279 N 
HETATM   19  C15 UNL     1      12.110 -17.281  20.683  1.00  0.00     0.342 A 
ATOM     20  H2  UNL     1      13.465 -16.288  22.064  1.00  0.00     0.172 HD
HETATM   21  O1  UNL     1      11.725 -18.306  21.335  1.00  0.00    -0.245 OA
HETATM   22  N3  UNL     1      11.690 -16.943  19.345  1.00  0.00    -0.241 N 
ATOM     23  H4  UNL     1      12.256 -15.270  18.154  1.00  0.00     0.189 HD
BRANCH  22  24
HETATM   24  C16 UNL     1      10.757 -17.760  18.609  1.00  0.00     0.154 C 
BRANCH  24  25
HETATM   25  C17 UNL     1      11.518 -18.909  17.937  1.00  0.00     0.022 C 
BRANCH  25  26
HETATM   26  C18 UNL     1      12.079 -18.449  16.658  1.00  0.00     0.002 C 
BRANCH  26  27
HETATM   27  C19 UNL     1      13.541 -18.463  16.526  1.00  0.00     0.000 C 
BRANCH  27  28
HETATM   28  C20 UNL     1      14.273 -17.211  16.438  1.00  0.00     0.000 C 
BRANCH  28  29
HETATM   29  C21 UNL     1      15.320 -16.813  17.403  1.00  0.00    -0.000 C 
BRANCH  29  30
HETATM   30  C22 UNL     1      15.316 -17.920  18.523  1.00  0.00    -0.005 C 
HETATM   31  C23 UNL     1      16.189 -17.432  19.658  1.00  0.00     0.005 C 
ENDBRANCH  29  30
ENDBRANCH  28  29
ENDBRANCH  27  28
ENDBRANCH  26  27
ENDBRANCH  25  26
ENDBRANCH  24  25
ENDBRANCH  22  24
ENDBRANCH   5   6
ENDBRANCH   3   4
TORSDOF 9
ENDMDL
MODEL 4
REMARK VINA RESULT: -6.059080895      2.280      4.069
REMARK  9 active torsions:
REMARK  status: ('A' for Active; 'I' for Inactive)
REMARK    1  A    between atoms: C3_3  and  C4_4 
REMARK    2  A    between atoms: C5_5  and  C6_6 
REMARK    3  A    between atoms: N3_20  and  C16_21 
REMARK    4  A    between atoms: C16_21  and  C17_22 
REMARK    5  A    between atoms: C17_22  and  C18_23 
REMARK    6  A    between atoms: C18_23  and  C19_24 
REMARK    7  A    between atoms: C19_24  and  C20_25 
REMARK    8  A    between atoms: C20_25  and  C21_26 
REMARK    9  A    between atoms: C21_26  and  C22_27 
ROOT
HETATM    1  C1  UNL     1      10.109 -19.851  15.674  1.00  0.00     0.113 C 
HETATM    2  C2  UNL     1      10.825 -19.018  16.655  1.00  0.00    -0.097 C 
HETATM    3  C3  UNL     1      11.422 -18.335  17.452  1.00  0.00    -0.015 C 
ENDROOT
BRANCH   3   4
HETATM    4  C4  UNL     1      12.138 -17.546  18.380  1.00  0.00    -0.011 C 
HETATM    5  C5  UNL     1      12.765 -16.887  19.173  1.00  0.00    -0.064 C 
BRANCH   5   6
HETATM    6  C6  UNL     1      13.539 -16.109  20.127  1.00  0.00     0.069 C 
HETATM    7  C7  UNL     1      13.657 -14.808  20.036  1.00  0.00    -0.054 A 
HETATM    8  C8  UNL     1      13.123 -13.812  19.074  1.00  0.00     0.073 A 
HETATM    9  C24 UNL     1      14.298 -13.746  20.741  1.00  0.00     0.052 A 
HETATM   10  C9  UNL     1      13.909 -12.686  19.765  1.00  0.00     0.244 A 
HETATM   11  N1  UNL     1      13.094 -11.805  20.572  1.00  0.00     0.091 N 
HETATM   12  C10 UNL     1      13.008 -10.473  20.015  1.00  0.00     0.310 C 
HETATM   13  C11 UNL     1      13.775 -11.778  21.878  1.00  0.00     0.283 C 
HETATM   14  C12 UNL     1      14.072 -13.256  22.062  1.00  0.00     0.067 A 
HETATM   15  C13 UNL     1      15.433 -13.744  21.577  1.00  0.00    -0.011 A 
HETATM   16  C14 UNL     1      16.681 -13.901  22.011  1.00  0.00     0.128 A 
HETATM   17  N2  UNL     1      17.778 -14.422  21.232  1.00  0.00    -0.292 N 
HETATM   18  N4  UNL     1      17.240 -13.614  23.288  1.00  0.00    -0.279 N 
HETATM   19  C15 UNL     1      18.931 -14.430  22.048  1.00  0.00     0.342 A 
ATOM     20  H2  UNL     1      17.729 -14.730  20.261  1.00  0.00     0.172 HD
HETATM   21  O1  UNL     1      20.089 -14.825  21.695  1.00  0.00    -0.245 OA
HETATM   22  N3  UNL     1      18.592 -13.917  23.354  1.00  0.00    -0.241 N 
ATOM     23  H4  UNL     1      16.707 -13.228  24.067  1.00  0.00     0.189 HD
BRANCH  22  24
HETATM   24  C16 UNL     1      19.573 -13.796  24.404  1.00  0.00     0.154 C 
BRANCH  24  25
HETATM   25  C17 UNL     1      19.019 -14.432  25.685  1.00  0.00     0.022 C 
BRANCH  25  26
HETATM   26  C18 UNL     1      18.893 -15.886  25.500  1.00  0.00     0.002 C 
BRANCH  26  27
HETATM   27  C19 UNL     1      17.906 -16.582  26.333  1.00  0.00     0.000 C 
BRANCH  27  28
HETATM   28  C20 UNL     1      17.159 -15.846  27.340  1.00  0.00     0.000 C 
BRANCH  28  29
HETATM   29  C21 UNL     1      17.126 -16.231  28.767  1.00  0.00    -0.000 C 
BRANCH  29  30
HETATM   30  C22 UNL     1      17.839 -17.631  28.853  1.00  0.00    -0.005 C 
HETATM   31  C23 UNL     1      17.831 -18.066  30.301  1.00  0.00     0.005 C 
ENDBRANCH  29  30
ENDBRANCH  28  29
ENDBRANCH  27  28
ENDBRANCH  26  27
ENDBRANCH  25  26
ENDBRANCH  24  25
ENDBRANCH  22  24
ENDBRANCH   5   6
ENDBRANCH   3   4
TORSDOF 9
ENDMDL
MODEL 5
REMARK VINA RESULT: -5.965357284      1.762      2.549
REMARK  9 active torsions:
REMARK  status: ('A' for Active; 'I' for Inactive)
REMARK    1  A    between atoms: C3_3  and  C4_4 
REMARK    2  A    between atoms: C5_5  and  C6_6 
REMARK    3  A    between atoms: N3_20  and  C16_21 
REMARK    4  A    between atoms: C16_21  and  C17_22 
REMARK    5  A    between atoms: C17_22  and  C18_23 
REMARK    6  A    between atoms: C18_23  and  C19_24 
REMARK    7  A    between atoms: C19_24  and  C20_25 
REMARK    8  A    between atoms: C20_25  and  C21_26 
REMARK    9  A    between atoms: C21_26  and  C22_27 
ROOT
HETATM    1  C1  UNL     1       9.815 -19.694  15.005  1.00  0.00     0.113 C 
HETATM    2  C2  UNL     1      10.590 -19.011  16.054  1.00  0.00    -0.097 C 
HETATM    3  C3  UNL     1      11.226 -18.461  16.921  1.00  0.00    -0.015 C 
ENDROOT
BRANCH   3   4
HETATM    4  C4  UNL     1      11.960 -17.828  17.950  1.00  0.00    -0.011 C 
HETATM    5  C5  UNL     1      12.596 -17.278  18.814  1.00  0.00    -0.064 C 
BRANCH   5   6
HETATM    6  C6  UNL     1      13.375 -16.599  19.839  1.00  0.00     0.069 C 
HETATM    7  C7  UNL     1      13.577 -15.305  19.819  1.00  0.00    -0.054 A 
HETATM    8  C8  UNL     1      13.149 -14.231  18.888  1.00  0.00     0.073 A 
HETATM    9  C24 UNL     1      14.251 -14.322  20.604  1.00  0.00     0.052 A 
HETATM   10  C9  UNL     1      13.973 -13.193  19.668  1.00  0.00     0.244 A 
HETATM   11  N1  UNL     1      13.180 -12.302  20.485  1.00  0.00     0.091 N 
HETATM   12  C10 UNL     1      13.202 -10.941  19.994  1.00  0.00     0.310 C 
HETATM   13  C11 UNL     1      13.802 -12.383  21.818  1.00  0.00     0.283 C 
HETATM   14  C12 UNL     1      13.998 -13.883  21.938  1.00  0.00     0.067 A 
HETATM   15  C13 UNL     1      15.346 -14.434  21.485  1.00  0.00    -0.011 A 
HETATM   16  C14 UNL     1      16.562 -14.693  21.960  1.00  0.00     0.128 A 
HETATM   17  N2  UNL     1      17.657 -15.244  21.202  1.00  0.00    -0.292 N 
HETATM   18  N4  UNL     1      17.080 -14.505  23.272  1.00  0.00    -0.279 N 
HETATM   19  C15 UNL     1      18.770 -15.367  22.063  1.00  0.00     0.342 A 
ATOM     20  H2  UNL     1      17.633 -15.502  20.215  1.00  0.00     0.172 HD
HETATM   21  O1  UNL     1      19.915 -15.819  21.738  1.00  0.00    -0.245 OA
HETATM   22  N3  UNL     1      18.406 -14.897  23.379  1.00  0.00    -0.241 N 
ATOM     23  H4  UNL     1      16.538 -14.124  24.048  1.00  0.00     0.189 HD
BRANCH  22  24
HETATM   24  C16 UNL     1      19.346 -14.891  24.473  1.00  0.00     0.154 C 
BRANCH  24  25
HETATM   25  C17 UNL     1      18.823 -13.966  25.578  1.00  0.00     0.022 C 
BRANCH  25  26
HETATM   26  C18 UNL     1      19.956 -13.321  26.259  1.00  0.00     0.002 C 
BRANCH  26  27
HETATM   27  C19 UNL     1      20.881 -12.544  25.426  1.00  0.00     0.000 C 
BRANCH  27  28
HETATM   28  C20 UNL     1      22.289 -12.903  25.377  1.00  0.00     0.000 C 
BRANCH  28  29
HETATM   29  C21 UNL     1      22.955 -13.410  24.159  1.00  0.00    -0.000 C 
BRANCH  29  30
HETATM   30  C22 UNL     1      23.242 -14.935  24.427  1.00  0.00    -0.005 C 
HETATM   31  C23 UNL     1      24.689 -15.202  24.075  1.00  0.00     0.005 C 
ENDBRANCH  29  30
ENDBRANCH  28  29
ENDBRANCH  27  28
ENDBRANCH  26  27
ENDBRANCH  25  26
ENDBRANCH  24  25
ENDBRANCH  22  24
ENDBRANCH   5   6
ENDBRANCH   3   4
TORSDOF 9
ENDMDL
