MODEL 1
REMARK VINA RESULT: -6.554916657      0.000      0.000
REMARK  6 active torsions:
REMARK  status: ('A' for Active; 'I' for Inactive)
REMARK    1  A    between atoms: N1_2  and  C3_4 
REMARK    2  A    between atoms: C3_4  and  C4_5 
REMARK    3  A    between atoms: C8_10  and  C9_11 
REMARK    4  A    between atoms: C12_16  and  C13_17 
REMARK    5  A    between atoms: C13_17  and  O3_18 
REMARK    6  A    between atoms: C13_17  and  O4_20 
ROOT
HETATM    1  C4  UNL     1      -2.916   5.320  12.312  1.00  0.00     0.070 C 
HETATM    2  C5  UNL     1      -3.093   6.798  12.498  1.00  0.00     0.041 C 
HETATM    3  C6  UNL     1      -4.207   6.798  13.566  1.00  0.00     0.277 C 
HETATM    4  N2  UNL     1      -3.931   5.664  14.371  1.00  0.00     0.126 N 
HETATM    5  C7  UNL     1      -5.078   4.821  14.634  1.00  0.00     0.309 C 
HETATM    6  C8  UNL     1      -4.359   3.510  14.861  1.00  0.00     0.167 C 
HETATM    7  O5  UNL     1      -3.503   3.494  13.779  1.00  0.00    -0.344 OA
HETATM    8  C14 UNL     1      -3.008   4.808  13.735  1.00  0.00     0.263 C 
HETATM    9  C15 UNL     1      -1.665   4.783  14.428  1.00  0.00     0.082 C 
ENDROOT
BRANCH   6  10
HETATM   10  C9  UNL     1      -5.267   2.335  14.956  1.00  0.00     0.127 C 
HETATM   11  C10 UNL     1      -4.453   1.112  14.632  1.00  0.00     0.266 C 
HETATM   12  O1  UNL     1      -4.515   0.448  13.568  1.00  0.00    -0.265 OA
HETATM   13  O2  UNL     1      -3.620   0.856  15.737  1.00  0.00    -0.321 OA
HETATM   14  C11 UNL     1      -4.288   1.289  16.912  1.00  0.00     0.189 C 
HETATM   15  C12 UNL     1      -5.497   2.073  16.449  1.00  0.00     0.081 C 
BRANCH  15  16
HETATM   16  C13 UNL     1      -6.763   1.312  16.698  1.00  0.00     0.260 C 
BRANCH  16  17
HETATM   17  O3  UNL     1      -7.342   1.848  17.849  1.00  0.00    -0.371 OA
ATOM     18  H3  UNL     1      -7.418   2.785  17.712  1.00  0.00     0.212 HD
ENDBRANCH  16  17
BRANCH  16  19
HETATM   19  O4  UNL     1      -6.543  -0.041  16.884  1.00  0.00    -0.371 OA
ATOM     20  H4  UNL     1      -7.153  -0.581  16.396  1.00  0.00     0.212 HD
ENDBRANCH  16  19
ENDBRANCH  15  16
ENDBRANCH   6  10
BRANCH   1  21
HETATM   21  C3  UNL     1      -1.682   4.874  11.625  1.00  0.00     0.125 C 
BRANCH  21  22
HETATM   22  N1  UNL     1      -1.890   4.603  10.255  1.00  0.00    -0.420 N 
HETATM   23  C1  UNL     1      -0.889   4.844   9.313  1.00  0.00     0.142 C 
HETATM   24  C2  UNL     1      -3.161   4.164   9.836  1.00  0.00     0.142 C 
ENDBRANCH  21  22
ENDBRANCH   1  21
TORSDOF 6
ENDMDL
MODEL 2
REMARK VINA RESULT: -6.428050723      1.306      1.746
REMARK  6 active torsions:
REMARK  status: ('A' for Active; 'I' for Inactive)
REMARK    1  A    between atoms: N1_2  and  C3_4 
REMARK    2  A    between atoms: C3_4  and  C4_5 
REMARK    3  A    between atoms: C8_10  and  C9_11 
REMARK    4  A    between atoms: C12_16  and  C13_17 
REMARK    5  A    between atoms: C13_17  and  O3_18 
REMARK    6  A    between atoms: C13_17  and  O4_20 
ROOT
HETATM    1  C4  UNL     1      -4.623   5.662  12.307  1.00  0.00     0.070 C 
HETATM    2  C5  UNL     1      -5.464   6.902  12.227  1.00  0.00     0.041 C 
HETATM    3  C6  UNL     1      -6.618   6.499  13.168  1.00  0.00     0.277 C 
HETATM    4  N2  UNL     1      -6.003   5.711  14.173  1.00  0.00     0.126 N 
HETATM    5  C7  UNL     1      -6.683   4.467  14.462  1.00  0.00     0.309 C 
HETATM    6  C8  UNL     1      -5.505   3.667  14.971  1.00  0.00     0.167 C 
HETATM    7  O5  UNL     1      -4.568   3.936  13.995  1.00  0.00    -0.344 OA
HETATM    8  C14 UNL     1      -4.707   5.317  13.780  1.00  0.00     0.263 C 
HETATM    9  C15 UNL     1      -3.623   5.987  14.593  1.00  0.00     0.082 C 
ENDROOT
BRANCH   6  10
HETATM   10  C9  UNL     1      -5.801   2.223  15.173  1.00  0.00     0.127 C 
HETATM   11  C10 UNL     1      -4.709   1.442  14.493  1.00  0.00     0.266 C 
HETATM   12  O1  UNL     1      -4.821   0.806  13.416  1.00  0.00    -0.265 OA
HETATM   13  O2  UNL     1      -3.552   1.559  15.285  1.00  0.00    -0.321 OA
HETATM   14  C11 UNL     1      -3.948   1.685  16.642  1.00  0.00     0.189 C 
HETATM   15  C12 UNL     1      -5.447   1.898  16.629  1.00  0.00     0.081 C 
BRANCH  15  16
HETATM   16  C13 UNL     1      -6.170   0.684  17.126  1.00  0.00     0.260 C 
BRANCH  16  17
HETATM   17  O3  UNL     1      -5.443  -0.428  16.701  1.00  0.00    -0.371 OA
ATOM     18  H3  UNL     1      -5.179  -0.902  17.481  1.00  0.00     0.212 HD
ENDBRANCH  16  17
BRANCH  16  19
HETATM   19  O4  UNL     1      -7.463   0.599  16.639  1.00  0.00    -0.371 OA
ATOM     20  H4  UNL     1      -8.088   0.340  17.307  1.00  0.00     0.212 HD
ENDBRANCH  16  19
ENDBRANCH  15  16
ENDBRANCH   6  10
BRANCH   1  21
HETATM   21  C3  UNL     1      -3.226   5.767  11.825  1.00  0.00     0.125 C 
BRANCH  21  22
HETATM   22  N1  UNL     1      -2.753   4.563  11.262  1.00  0.00    -0.420 N 
HETATM   23  C1  UNL     1      -3.473   3.899  10.268  1.00  0.00     0.142 C 
HETATM   24  C2  UNL     1      -1.577   3.987  11.782  1.00  0.00     0.142 C 
ENDBRANCH  21  22
ENDBRANCH   1  21
TORSDOF 6
ENDMDL
MODEL 3
REMARK VINA RESULT: -6.388480570      0.844      1.094
REMARK  6 active torsions:
REMARK  status: ('A' for Active; 'I' for Inactive)
REMARK    1  A    between atoms: N1_2  and  C3_4 
REMARK    2  A    between atoms: C3_4  and  C4_5 
REMARK    3  A    between atoms: C8_10  and  C9_11 
REMARK    4  A    between atoms: C12_16  and  C13_17 
REMARK    5  A    between atoms: C13_17  and  O3_18 
REMARK    6  A    between atoms: C13_17  and  O4_20 
ROOT
HETATM    1  C4  UNL     1      -3.473   5.978  12.365  1.00  0.00     0.070 C 
HETATM    2  C5  UNL     1      -3.303   7.309  13.034  1.00  0.00     0.041 C 
HETATM    3  C6  UNL     1      -3.920   6.993  14.412  1.00  0.00     0.277 C 
HETATM    4  N2  UNL     1      -3.570   5.642  14.659  1.00  0.00     0.126 N 
HETATM    5  C7  UNL     1      -4.667   4.810  15.108  1.00  0.00     0.309 C 
HETATM    6  C8  UNL     1      -4.160   3.470  14.623  1.00  0.00     0.167 C 
HETATM    7  O5  UNL     1      -3.785   3.788  13.333  1.00  0.00    -0.344 OA
HETATM    8  C14 UNL     1      -3.117   5.015  13.480  1.00  0.00     0.263 C 
HETATM    9  C15 UNL     1      -1.640   4.697  13.520  1.00  0.00     0.082 C 
ENDROOT
BRANCH   6  10
HETATM   10  C9  UNL     1      -5.160   2.374  14.730  1.00  0.00     0.127 C 
HETATM   11  C10 UNL     1      -4.454   1.088  14.395  1.00  0.00     0.266 C 
HETATM   12  O1  UNL     1      -4.585   0.433  13.331  1.00  0.00    -0.265 OA
HETATM   13  O2  UNL     1      -3.629   0.764  15.488  1.00  0.00    -0.321 OA
HETATM   14  C11 UNL     1      -4.242   1.249  16.672  1.00  0.00     0.189 C 
HETATM   15  C12 UNL     1      -5.389   2.130  16.226  1.00  0.00     0.081 C 
BRANCH  15  16
HETATM   16  C13 UNL     1      -6.711   1.476  16.493  1.00  0.00     0.260 C 
BRANCH  16  17
HETATM   17  O3  UNL     1      -7.284   2.140  17.578  1.00  0.00    -0.371 OA
ATOM     18  H3  UNL     1      -8.039   2.612  17.247  1.00  0.00     0.212 HD
ENDBRANCH  16  17
BRANCH  16  19
HETATM   19  O4  UNL     1      -6.587   0.131  16.793  1.00  0.00    -0.371 OA
ATOM     20  H4  UNL     1      -6.948  -0.088  17.645  1.00  0.00     0.212 HD
ENDBRANCH  16  19
ENDBRANCH  15  16
ENDBRANCH   6  10
BRANCH   1  21
HETATM   21  C3  UNL     1      -2.683   5.740  11.134  1.00  0.00     0.125 C 
BRANCH  21  22
HETATM   22  N1  UNL     1      -3.485   5.354  10.039  1.00  0.00    -0.420 N 
HETATM   23  C1  UNL     1      -4.694   5.997   9.768  1.00  0.00     0.142 C 
HETATM   24  C2  UNL     1      -3.089   4.245   9.266  1.00  0.00     0.142 C 
ENDBRANCH  21  22
ENDBRANCH   1  21
TORSDOF 6
ENDMDL
MODEL 4
REMARK VINA RESULT: -6.175377226      2.007      3.355
REMARK  6 active torsions:
REMARK  status: ('A' for Active; 'I' for Inactive)
REMARK    1  A    between atoms: N1_2  and  C3_4 
REMARK    2  A    between atoms: C3_4  and  C4_5 
REMARK    3  A    between atoms: C8_10  and  C9_11 
REMARK    4  A    between atoms: C12_16  and  C13_17 
REMARK    5  A    between atoms: C13_17  and  O3_18 
REMARK    6  A    between atoms: C13_17  and  O4_20 
ROOT
HETATM    1  C4  UNL     1      -3.483   7.204  12.436  1.00  0.00     0.070 C 
HETATM    2  C5  UNL     1      -2.262   7.994  12.805  1.00  0.00     0.041 C 
HETATM    3  C6  UNL     1      -1.744   7.145  13.985  1.00  0.00     0.277 C 
HETATM    4  N2  UNL     1      -2.064   5.810  13.632  1.00  0.00     0.126 N 
HETATM    5  C7  UNL     1      -2.702   5.047  14.683  1.00  0.00     0.309 C 
HETATM    6  C8  UNL     1      -3.459   4.055  13.829  1.00  0.00     0.167 C 
HETATM    7  O5  UNL     1      -4.033   4.899  12.900  1.00  0.00    -0.344 OA
HETATM    8  C14 UNL     1      -2.989   5.778  12.567  1.00  0.00     0.263 C 
HETATM    9  C15 UNL     1      -2.383   5.255  11.285  1.00  0.00     0.082 C 
ENDROOT
BRANCH   6  10
HETATM   10  C9  UNL     1      -4.423   3.217  14.591  1.00  0.00     0.127 C 
HETATM   11  C10 UNL     1      -5.723   3.228  13.834  1.00  0.00     0.266 C 
HETATM   12  O1  UNL     1      -6.763   3.849  14.167  1.00  0.00    -0.265 OA
HETATM   13  O2  UNL     1      -5.555   2.418  12.696  1.00  0.00    -0.321 OA
HETATM   14  C11 UNL     1      -4.628   1.390  13.010  1.00  0.00     0.189 C 
HETATM   15  C12 UNL     1      -4.026   1.756  14.350  1.00  0.00     0.081 C 
BRANCH  15  16
HETATM   16  C13 UNL     1      -4.526   0.851  15.434  1.00  0.00     0.260 C 
BRANCH  16  17
HETATM   17  O3  UNL     1      -3.524   0.780  16.402  1.00  0.00    -0.371 OA
ATOM     18  H3  UNL     1      -3.325  -0.140  16.531  1.00  0.00     0.212 HD
ENDBRANCH  16  17
BRANCH  16  19
HETATM   19  O4  UNL     1      -4.809  -0.423  14.974  1.00  0.00    -0.371 OA
ATOM     20  H4  UNL     1      -5.550  -0.440  14.379  1.00  0.00     0.212 HD
ENDBRANCH  16  19
ENDBRANCH  15  16
ENDBRANCH   6  10
BRANCH   1  21
HETATM   21  C3  UNL     1      -4.083   7.479  11.110  1.00  0.00     0.125 C 
BRANCH  21  22
HETATM   22  N1  UNL     1      -5.388   8.009  11.203  1.00  0.00    -0.420 N 
HETATM   23  C1  UNL     1      -6.428   7.271  11.769  1.00  0.00     0.142 C 
HETATM   24  C2  UNL     1      -5.649   9.271  10.634  1.00  0.00     0.142 C 
ENDBRANCH  21  22
ENDBRANCH   1  21
TORSDOF 6
ENDMDL
MODEL 5
REMARK VINA RESULT: -5.872860305      2.471      4.214
REMARK  6 active torsions:
REMARK  status: ('A' for Active; 'I' for Inactive)
REMARK    1  A    between atoms: N1_2  and  C3_4 
REMARK    2  A    between atoms: C3_4  and  C4_5 
REMARK    3  A    between atoms: C8_10  and  C9_11 
REMARK    4  A    between atoms: C12_16  and  C13_17 
REMARK    5  A    between atoms: C13_17  and  O3_18 
REMARK    6  A    between atoms: C13_17  and  O4_20 
ROOT
HETATM    1  C4  UNL     1      -1.688   7.578  13.588  1.00  0.00     0.070 C 
HETATM    2  C5  UNL     1      -0.505   7.302  12.707  1.00  0.00     0.041 C 
HETATM    3  C6  UNL     1      -0.557   5.761  12.670  1.00  0.00     0.277 C 
HETATM    4  N2  UNL     1      -1.939   5.448  12.700  1.00  0.00     0.126 N 
HETATM    5  C7  UNL     1      -2.304   4.426  13.658  1.00  0.00     0.309 C 
HETATM    6  C8  UNL     1      -3.741   4.831  13.898  1.00  0.00     0.167 C 
HETATM    7  O5  UNL     1      -3.598   6.190  14.092  1.00  0.00    -0.344 OA
HETATM    8  C14 UNL     1      -2.701   6.572  13.081  1.00  0.00     0.263 C 
HETATM    9  C15 UNL     1      -3.541   7.118  11.949  1.00  0.00     0.082 C 
ENDROOT
BRANCH   6  10
HETATM   10  C9  UNL     1      -4.391   4.105  15.022  1.00  0.00     0.127 C 
HETATM   11  C10 UNL     1      -5.868   4.381  14.941  1.00  0.00     0.266 C 
HETATM   12  O1  UNL     1      -6.518   5.134  15.707  1.00  0.00    -0.265 OA
HETATM   13  O2  UNL     1      -6.375   3.641  13.857  1.00  0.00    -0.321 OA
HETATM   14  C11 UNL     1      -5.605   2.457  13.722  1.00  0.00     0.189 C 
HETATM   15  C12 UNL     1      -4.411   2.620  14.637  1.00  0.00     0.081 C 
BRANCH  15  16
HETATM   16  C13 UNL     1      -4.520   1.729  15.836  1.00  0.00     0.260 C 
BRANCH  16  17
HETATM   17  O3  UNL     1      -3.222   1.477  16.278  1.00  0.00    -0.371 OA
ATOM     18  H3  UNL     1      -3.133   0.534  16.357  1.00  0.00     0.212 HD
ENDBRANCH  16  17
BRANCH  16  19
HETATM   19  O4  UNL     1      -5.149   0.530  15.551  1.00  0.00    -0.371 OA
ATOM     20  H4  UNL     1      -4.956   0.216  14.675  1.00  0.00     0.212 HD
ENDBRANCH  16  19
ENDBRANCH  15  16
ENDBRANCH   6  10
BRANCH   1  21
HETATM   21  C3  UNL     1      -2.213   8.963  13.592  1.00  0.00     0.125 C 
BRANCH  21  22
HETATM   22  N1  UNL     1      -1.716   9.730  14.667  1.00  0.00    -0.420 N 
HETATM   23  C1  UNL     1      -1.473   9.152  15.914  1.00  0.00     0.142 C 
HETATM   24  C2  UNL     1      -1.551  11.117  14.490  1.00  0.00     0.142 C 
ENDBRANCH  21  22
ENDBRANCH   1  21
TORSDOF 6
ENDMDL
