MODEL 1
REMARK VINA RESULT: -6.664237828      0.000      0.000
REMARK  6 active torsions:
REMARK  status: ('A' for Active; 'I' for Inactive)
REMARK    1  A    between atoms: C4_5  and  N1_6 
REMARK    2  A    between atoms: N2_9  and  C7_10 
REMARK    3  A    between atoms: C7_10  and  C8_11 
REMARK    4  A    between atoms: C8_11  and  C9_12 
REMARK    5  A    between atoms: C9_12  and  O2_13 
REMARK    6  A    between atoms: N3_15  and  O3_17 
ROOT
HETATM    1  N1  UNL     1      -5.210   5.843  12.830  1.00  0.00     0.102 N 
HETATM    2  C5  UNL     1      -6.261   5.681  13.823  1.00  0.00     0.303 C 
HETATM    3  C6  UNL     1      -5.526   5.213  15.063  1.00  0.00     0.302 C 
HETATM    4  N2  UNL     1      -5.161   3.798  14.869  1.00  0.00     0.092 N 
HETATM    5  C10 UNL     1      -4.981   3.463  13.498  1.00  0.00     0.302 C 
HETATM    6  C11 UNL     1      -4.687   4.551  12.549  1.00  0.00     0.303 C 
ENDROOT
BRANCH   1   7
HETATM    7  C4  UNL     1      -5.682   6.571  11.673  1.00  0.00     0.293 C 
HETATM    8  C3  UNL     1      -6.912   7.360  12.072  1.00  0.00     0.049 C 
HETATM    9  C2  UNL     1      -6.978   8.412  10.986  1.00  0.00     0.087 C 
HETATM   10  C1  UNL     1      -5.570   8.796  10.794  1.00  0.00     0.191 C 
HETATM   11  O1  UNL     1      -5.181   9.831  10.327  1.00  0.00    -0.292 OA
HETATM   12  C12 UNL     1      -4.730   7.651  11.291  1.00  0.00     0.258 C 
HETATM   13  O4  UNL     1      -3.845   7.230  10.297  1.00  0.00    -0.345 OA
HETATM   14  O5  UNL     1      -3.963   8.141  12.337  1.00  0.00    -0.345 OA
HETATM   15  C13 UNL     1      -2.745   8.071  10.411  1.00  0.00     0.198 C 
HETATM   16  C14 UNL     1      -2.871   8.773  11.744  1.00  0.00     0.198 C 
ENDBRANCH   1   7
BRANCH   4  17
HETATM   17  C7  UNL     1      -6.218   3.070  15.513  1.00  0.00     0.280 C 
BRANCH  17  18
HETATM   18  C8  UNL     1      -5.845   2.418  16.799  1.00  0.00     0.116 C 
BRANCH  18  19
HETATM   19  C9  UNL     1      -5.840   0.935  16.676  1.00  0.00     0.136 C 
HETATM   20  N3  UNL     1      -4.776   0.245  16.445  1.00  0.00    -0.251 N 
ATOM     21  H3  UNL     1      -4.877  -0.768  16.377  1.00  0.00     0.196 HD
BRANCH  19  22
HETATM   22  O2  UNL     1      -7.023   0.212  16.812  1.00  0.00    -0.348 OA
ATOM     23  H2  UNL     1      -7.011  -0.669  17.169  1.00  0.00     0.219 HD
ENDBRANCH  19  22
BRANCH  20  24
HETATM   24  O3  UNL     1      -3.535   0.763  16.284  1.00  0.00    -0.288 OA
ATOM     25  H3  UNL     1      -3.034   1.199  16.964  1.00  0.00     0.244 HD
ENDBRANCH  20  24
ENDBRANCH  18  19
ENDBRANCH  17  18
ENDBRANCH   4  17
TORSDOF 6
ENDMDL
MODEL 2
REMARK VINA RESULT: -6.508189737      2.481      3.012
REMARK  6 active torsions:
REMARK  status: ('A' for Active; 'I' for Inactive)
REMARK    1  A    between atoms: C4_5  and  N1_6 
REMARK    2  A    between atoms: N2_9  and  C7_10 
REMARK    3  A    between atoms: C7_10  and  C8_11 
REMARK    4  A    between atoms: C8_11  and  C9_12 
REMARK    5  A    between atoms: C9_12  and  O2_13 
REMARK    6  A    between atoms: N3_15  and  O3_17 
ROOT
HETATM    1  N1  UNL     1      -3.283   5.260  13.454  1.00  0.00     0.102 N 
HETATM    2  C5  UNL     1      -3.947   5.152  14.745  1.00  0.00     0.303 C 
HETATM    3  C6  UNL     1      -3.849   3.679  15.087  1.00  0.00     0.302 C 
HETATM    4  N2  UNL     1      -4.825   2.952  14.255  1.00  0.00     0.092 N 
HETATM    5  C10 UNL     1      -5.081   3.605  13.017  1.00  0.00     0.302 C 
HETATM    6  C11 UNL     1      -4.073   4.552  12.508  1.00  0.00     0.303 C 
ENDROOT
BRANCH   1   7
HETATM    7  C4  UNL     1      -3.013   6.638  13.110  1.00  0.00     0.293 C 
HETATM    8  C3  UNL     1      -2.906   7.439  14.391  1.00  0.00     0.049 C 
HETATM    9  C2  UNL     1      -2.148   8.667  13.932  1.00  0.00     0.087 C 
HETATM   10  C1  UNL     1      -1.137   8.121  13.013  1.00  0.00     0.191 C 
HETATM   11  O1  UNL     1      -0.101   8.650  12.713  1.00  0.00    -0.292 OA
HETATM   12  C12 UNL     1      -1.650   6.792  12.531  1.00  0.00     0.258 C 
HETATM   13  O4  UNL     1      -1.676   6.758  11.135  1.00  0.00    -0.345 OA
HETATM   14  O5  UNL     1      -0.736   5.835  12.943  1.00  0.00    -0.345 OA
HETATM   15  C13 UNL     1      -0.392   6.385  10.758  1.00  0.00     0.198 C 
HETATM   16  C14 UNL     1       0.289   5.857  11.999  1.00  0.00     0.198 C 
ENDBRANCH   1   7
BRANCH   4  17
HETATM   17  C7  UNL     1      -5.980   2.825  15.097  1.00  0.00     0.280 C 
BRANCH  17  18
HETATM   18  C8  UNL     1      -5.702   2.379  16.491  1.00  0.00     0.116 C 
BRANCH  18  19
HETATM   19  C9  UNL     1      -5.819   0.902  16.624  1.00  0.00     0.136 C 
HETATM   20  N3  UNL     1      -4.819   0.098  16.509  1.00  0.00    -0.251 N 
ATOM     21  H3  UNL     1      -5.002  -0.900  16.617  1.00  0.00     0.196 HD
BRANCH  19  22
HETATM   22  O2  UNL     1      -7.054   0.312  16.886  1.00  0.00    -0.348 OA
ATOM     23  H2  UNL     1      -7.275   0.030  17.766  1.00  0.00     0.219 HD
ENDBRANCH  19  22
BRANCH  20  24
HETATM   24  O3  UNL     1      -3.542   0.476  16.257  1.00  0.00    -0.288 OA
ATOM     25  H3  UNL     1      -2.769   0.055  16.613  1.00  0.00     0.244 HD
ENDBRANCH  20  24
ENDBRANCH  18  19
ENDBRANCH  17  18
ENDBRANCH   4  17
TORSDOF 6
ENDMDL
MODEL 3
REMARK VINA RESULT: -6.504407944      1.958      3.131
REMARK  6 active torsions:
REMARK  status: ('A' for Active; 'I' for Inactive)
REMARK    1  A    between atoms: C4_5  and  N1_6 
REMARK    2  A    between atoms: N2_9  and  C7_10 
REMARK    3  A    between atoms: C7_10  and  C8_11 
REMARK    4  A    between atoms: C8_11  and  C9_12 
REMARK    5  A    between atoms: C9_12  and  O2_13 
REMARK    6  A    between atoms: N3_15  and  O3_17 
ROOT
HETATM    1  N1  UNL     1      -4.144   5.182  11.901  1.00  0.00     0.102 N 
HETATM    2  C5  UNL     1      -4.151   3.775  12.271  1.00  0.00     0.303 C 
HETATM    3  C6  UNL     1      -5.273   3.666  13.283  1.00  0.00     0.302 C 
HETATM    4  N2  UNL     1      -4.800   4.244  14.553  1.00  0.00     0.092 N 
HETATM    5  C10 UNL     1      -3.815   5.253  14.360  1.00  0.00     0.302 C 
HETATM    6  C11 UNL     1      -3.752   5.923  13.050  1.00  0.00     0.303 C 
ENDROOT
BRANCH   1   7
HETATM    7  C4  UNL     1      -3.338   5.417  10.723  1.00  0.00     0.293 C 
HETATM    8  C3  UNL     1      -3.216   4.114   9.960  1.00  0.00     0.049 C 
HETATM    9  C2  UNL     1      -2.825   4.594   8.578  1.00  0.00     0.087 C 
HETATM   10  C1  UNL     1      -3.664   5.787   8.380  1.00  0.00     0.191 C 
HETATM   11  O1  UNL     1      -3.971   6.263   7.322  1.00  0.00    -0.292 OA
HETATM   12  C12 UNL     1      -4.052   6.284   9.746  1.00  0.00     0.258 C 
HETATM   13  O4  UNL     1      -3.698   7.627   9.894  1.00  0.00    -0.345 OA
HETATM   14  O5  UNL     1      -5.435   6.219   9.818  1.00  0.00    -0.345 OA
HETATM   15  C13 UNL     1      -4.755   8.343   9.346  1.00  0.00     0.198 C 
HETATM   16  C14 UNL     1      -5.903   7.372   9.192  1.00  0.00     0.198 C 
ENDBRANCH   1   7
BRANCH   4  17
HETATM   17  C7  UNL     1      -4.335   3.113  15.304  1.00  0.00     0.280 C 
BRANCH  17  18
HETATM   18  C8  UNL     1      -5.406   2.227  15.842  1.00  0.00     0.116 C 
BRANCH  18  19
HETATM   19  C9  UNL     1      -4.838   0.999  16.459  1.00  0.00     0.136 C 
HETATM   20  N3  UNL     1      -5.551   0.114  17.067  1.00  0.00    -0.251 N 
ATOM     21  H3  UNL     1      -5.066  -0.694  17.458  1.00  0.00     0.196 HD
BRANCH  19  22
HETATM   22  O2  UNL     1      -3.468   0.749  16.401  1.00  0.00    -0.348 OA
ATOM     23  H2  UNL     1      -2.956   0.683  17.200  1.00  0.00     0.219 HD
ENDBRANCH  19  22
BRANCH  20  24
HETATM   24  O3  UNL     1      -6.895   0.176  17.227  1.00  0.00    -0.288 OA
ATOM     25  H3  UNL     1      -7.456  -0.567  17.413  1.00  0.00     0.244 HD
ENDBRANCH  20  24
ENDBRANCH  18  19
ENDBRANCH  17  18
ENDBRANCH   4  17
TORSDOF 6
ENDMDL
MODEL 4
REMARK VINA RESULT: -6.479073668      0.973      1.451
REMARK  6 active torsions:
REMARK  status: ('A' for Active; 'I' for Inactive)
REMARK    1  A    between atoms: C4_5  and  N1_6 
REMARK    2  A    between atoms: N2_9  and  C7_10 
REMARK    3  A    between atoms: C7_10  and  C8_11 
REMARK    4  A    between atoms: C8_11  and  C9_12 
REMARK    5  A    between atoms: C9_12  and  O2_13 
REMARK    6  A    between atoms: N3_15  and  O3_17 
ROOT
HETATM    1  N1  UNL     1      -4.833   6.080  12.242  1.00  0.00     0.102 N 
HETATM    2  C5  UNL     1      -5.463   6.005  13.551  1.00  0.00     0.303 C 
HETATM    3  C6  UNL     1      -4.349   5.546  14.470  1.00  0.00     0.302 C 
HETATM    4  N2  UNL     1      -4.123   4.109  14.230  1.00  0.00     0.092 N 
HETATM    5  C10 UNL     1      -4.457   3.718  12.903  1.00  0.00     0.302 C 
HETATM    6  C11 UNL     1      -4.486   4.756  11.858  1.00  0.00     0.303 C 
ENDROOT
BRANCH   1   7
HETATM    7  C4  UNL     1      -5.663   6.790  11.294  1.00  0.00     0.293 C 
HETATM    8  C3  UNL     1      -6.870   7.334  12.028  1.00  0.00     0.049 C 
HETATM    9  C2  UNL     1      -7.343   8.426  11.092  1.00  0.00     0.087 C 
HETATM   10  C1  UNL     1      -6.092   9.051  10.635  1.00  0.00     0.191 C 
HETATM   11  O1  UNL     1      -5.980  10.164  10.197  1.00  0.00    -0.292 OA
HETATM   12  C12 UNL     1      -4.998   8.035  10.821  1.00  0.00     0.258 C 
HETATM   13  O4  UNL     1      -4.316   7.830   9.620  1.00  0.00    -0.345 OA
HETATM   14  O5  UNL     1      -4.091   8.581  11.715  1.00  0.00    -0.345 OA
HETATM   15  C13 UNL     1      -3.357   8.835   9.572  1.00  0.00     0.198 C 
HETATM   16  C14 UNL     1      -3.273   9.422  10.962  1.00  0.00     0.198 C 
ENDBRANCH   1   7
BRANCH   4  17
HETATM   17  C7  UNL     1      -4.903   3.455  15.243  1.00  0.00     0.280 C 
BRANCH  17  18
HETATM   18  C8  UNL     1      -5.145   2.003  15.018  1.00  0.00     0.116 C 
BRANCH  18  19
HETATM   19  C9  UNL     1      -4.590   1.180  16.125  1.00  0.00     0.136 C 
HETATM   20  N3  UNL     1      -5.306   0.395  16.855  1.00  0.00    -0.251 N 
ATOM     21  H3  UNL     1      -4.831  -0.127  17.591  1.00  0.00     0.196 HD
BRANCH  19  22
HETATM   22  O2  UNL     1      -3.230   1.227  16.426  1.00  0.00    -0.348 OA
ATOM     23  H2  UNL     1      -2.927   1.647  17.223  1.00  0.00     0.219 HD
ENDBRANCH  19  22
BRANCH  20  24
HETATM   24  O3  UNL     1      -6.642   0.212  16.718  1.00  0.00    -0.288 OA
ATOM     25  H3  UNL     1      -7.154   0.481  15.965  1.00  0.00     0.244 HD
ENDBRANCH  20  24
ENDBRANCH  18  19
ENDBRANCH  17  18
ENDBRANCH   4  17
TORSDOF 6
ENDMDL
MODEL 5
REMARK VINA RESULT: -6.449467382      1.880      2.366
REMARK  6 active torsions:
REMARK  status: ('A' for Active; 'I' for Inactive)
REMARK    1  A    between atoms: C4_5  and  N1_6 
REMARK    2  A    between atoms: N2_9  and  C7_10 
REMARK    3  A    between atoms: C7_10  and  C8_11 
REMARK    4  A    between atoms: C8_11  and  C9_12 
REMARK    5  A    between atoms: C9_12  and  O2_13 
REMARK    6  A    between atoms: N3_15  and  O3_17 
ROOT
HETATM    1  N1  UNL     1      -4.371   4.647  11.943  1.00  0.00     0.102 N 
HETATM    2  C5  UNL     1      -5.174   5.120  13.061  1.00  0.00     0.303 C 
HETATM    3  C6  UNL     1      -4.490   4.534  14.279  1.00  0.00     0.302 C 
HETATM    4  N2  UNL     1      -4.818   3.098  14.339  1.00  0.00     0.092 N 
HETATM    5  C10 UNL     1      -5.070   2.541  13.054  1.00  0.00     0.302 C 
HETATM    6  C11 UNL     1      -4.524   3.235  11.875  1.00  0.00     0.303 C 
ENDROOT
BRANCH   1   7
HETATM    7  C4  UNL     1      -4.695   5.352  10.722  1.00  0.00     0.293 C 
HETATM    8  C3  UNL     1      -4.985   6.798  11.067  1.00  0.00     0.049 C 
HETATM    9  C2  UNL     1      -4.799   7.484   9.731  1.00  0.00     0.087 C 
HETATM   10  C1  UNL     1      -3.617   6.815   9.163  1.00  0.00     0.191 C 
HETATM   11  O1  UNL     1      -2.890   7.265   8.321  1.00  0.00    -0.292 OA
HETATM   12  C12 UNL     1      -3.503   5.476   9.839  1.00  0.00     0.258 C 
HETATM   13  O4  UNL     1      -3.459   4.454   8.888  1.00  0.00    -0.345 OA
HETATM   14  O5  UNL     1      -2.287   5.463  10.504  1.00  0.00    -0.345 OA
HETATM   15  C13 UNL     1      -2.124   4.365   8.514  1.00  0.00     0.198 C 
HETATM   16  C14 UNL     1      -1.331   5.136   9.544  1.00  0.00     0.198 C 
ENDBRANCH   1   7
BRANCH   4  17
HETATM   17  C7  UNL     1      -5.939   3.030  15.234  1.00  0.00     0.280 C 
BRANCH  17  18
HETATM   18  C8  UNL     1      -5.643   2.459  16.577  1.00  0.00     0.116 C 
BRANCH  18  19
HETATM   19  C9  UNL     1      -5.779   0.978  16.581  1.00  0.00     0.136 C 
HETATM   20  N3  UNL     1      -4.787   0.173  16.414  1.00  0.00    -0.251 N 
ATOM     21  H3  UNL     1      -4.984  -0.828  16.433  1.00  0.00     0.196 HD
BRANCH  19  22
HETATM   22  O2  UNL     1      -7.025   0.384  16.774  1.00  0.00    -0.348 OA
ATOM     23  H2  UNL     1      -7.279   0.065  17.632  1.00  0.00     0.219 HD
ENDBRANCH  19  22
BRANCH  20  24
HETATM   24  O3  UNL     1      -3.502   0.555  16.214  1.00  0.00    -0.288 OA
ATOM     25  H3  UNL     1      -2.744  -0.005  16.329  1.00  0.00     0.244 HD
ENDBRANCH  20  24
ENDBRANCH  18  19
ENDBRANCH  17  18
ENDBRANCH   4  17
TORSDOF 6
ENDMDL
