MODEL 1
REMARK VINA RESULT: -6.683249280      0.000      0.000
REMARK  6 active torsions:
REMARK  status: ('A' for Active; 'I' for Inactive)
REMARK    1  A    between atoms: C4_6  and  S1_7 
REMARK    2  A    between atoms: S1_7  and  C5_8 
REMARK    3  A    between atoms: C5_8  and  C6_9 
REMARK    4  A    between atoms: C6_9  and  C7_10 
REMARK    5  A    between atoms: C8_11  and  O2_12 
REMARK    6  A    between atoms: C9_14  and  O3_15 
ROOT
HETATM    1  C7  UNL     1      -4.848   3.316  14.541  1.00  0.00     0.049 C 
HETATM    2  C8  UNL     1      -5.110   1.972  13.944  1.00  0.00     0.156 C 
HETATM    3  C9  UNL     1      -4.255   1.068  14.825  1.00  0.00     0.178 C 
HETATM    4  C10 UNL     1      -4.317   1.716  16.202  1.00  0.00     0.185 C 
HETATM    5  O4  UNL     1      -5.132   0.981  17.061  1.00  0.00    -0.345 OA
HETATM    6  C11 UNL     1      -6.275   1.701  17.285  1.00  0.00     0.158 C 
HETATM    7  C12 UNL     1      -7.451   0.721  17.246  1.00  0.00     0.078 C 
HETATM    8  C13 UNL     1      -6.274   2.404  18.623  1.00  0.00     0.078 C 
HETATM    9  O5  UNL     1      -6.383   2.642  16.266  1.00  0.00    -0.347 OA
HETATM   10  C14 UNL     1      -5.081   2.992  16.025  1.00  0.00     0.163 C 
ENDROOT
BRANCH   1  11
HETATM   11  C6  UNL     1      -3.429   3.752  14.442  1.00  0.00     0.020 C 
BRANCH  11  12
HETATM   12  C5  UNL     1      -3.150   5.192  14.676  1.00  0.00     0.076 C 
BRANCH  12  13
HETATM   13  S1  UNL     1      -2.494   5.877  13.093  1.00  0.00    -0.143 SA
BRANCH  13  14
HETATM   14  C4  UNL     1      -2.827   4.666  11.821  1.00  0.00     0.157 C 
HETATM   15  N1  UNL     1      -2.077   4.755  10.606  1.00  0.00    -0.343 N 
HETATM   16  C1  UNL     1      -0.768   5.149  10.170  1.00  0.00     0.154 C 
HETATM   17  C2  UNL     1      -3.211   4.267   9.914  1.00  0.00     0.223 C 
HETATM   18  O1  UNL     1      -3.332   3.554   8.908  1.00  0.00    -0.273 OA
HETATM   19  C3  UNL     1      -4.033   4.987  10.925  1.00  0.00     0.139 C 
ENDBRANCH  13  14
ENDBRANCH  12  13
ENDBRANCH  11  12
ENDBRANCH   1  11
BRANCH   2  20
HETATM   20  O2  UNL     1      -4.823   1.856  12.607  1.00  0.00    -0.392 OA
ATOM     21  H2  UNL     1      -3.926   1.618  12.403  1.00  0.00     0.210 HD
ENDBRANCH   2  20
BRANCH   3  22
HETATM   22  O3  UNL     1      -4.758  -0.212  14.818  1.00  0.00    -0.390 OA
ATOM     23  H3  UNL     1      -4.841  -0.536  15.707  1.00  0.00     0.210 HD
ENDBRANCH   3  22
TORSDOF 6
ENDMDL
MODEL 2
REMARK VINA RESULT: -6.449088954      2.596      6.840
REMARK  6 active torsions:
REMARK  status: ('A' for Active; 'I' for Inactive)
REMARK    1  A    between atoms: C4_6  and  S1_7 
REMARK    2  A    between atoms: S1_7  and  C5_8 
REMARK    3  A    between atoms: C5_8  and  C6_9 
REMARK    4  A    between atoms: C6_9  and  C7_10 
REMARK    5  A    between atoms: C8_11  and  O2_12 
REMARK    6  A    between atoms: C9_14  and  O3_15 
ROOT
HETATM    1  C7  UNL     1      -2.965   4.964  12.579  1.00  0.00     0.049 C 
HETATM    2  C8  UNL     1      -2.341   4.405  11.342  1.00  0.00     0.156 C 
HETATM    3  C9  UNL     1      -3.541   3.770  10.649  1.00  0.00     0.178 C 
HETATM    4  C10 UNL     1      -4.708   4.682  11.003  1.00  0.00     0.185 C 
HETATM    5  O4  UNL     1      -5.086   5.455   9.907  1.00  0.00    -0.345 OA
HETATM    6  C11 UNL     1      -4.722   6.751  10.152  1.00  0.00     0.158 C 
HETATM    7  C12 UNL     1      -4.144   7.321   8.853  1.00  0.00     0.078 C 
HETATM    8  C13 UNL     1      -5.883   7.616  10.586  1.00  0.00     0.078 C 
HETATM    9  O5  UNL     1      -3.758   6.733  11.155  1.00  0.00    -0.347 OA
HETATM   10  C14 UNL     1      -4.162   5.699  11.957  1.00  0.00     0.163 C 
ENDROOT
BRANCH   1  11
HETATM   11  C6  UNL     1      -3.547   3.933  13.478  1.00  0.00     0.020 C 
BRANCH  11  12
HETATM   12  C5  UNL     1      -4.069   4.399  14.788  1.00  0.00     0.076 C 
BRANCH  12  13
HETATM   13  S1  UNL     1      -5.726   3.618  15.016  1.00  0.00    -0.143 SA
BRANCH  13  14
HETATM   14  C4  UNL     1      -5.544   2.363  16.275  1.00  0.00     0.157 C 
HETATM   15  N1  UNL     1      -5.211   1.038  15.849  1.00  0.00    -0.343 N 
HETATM   16  C1  UNL     1      -4.457   0.392  14.813  1.00  0.00     0.154 C 
HETATM   17  C2  UNL     1      -5.976   0.538  16.930  1.00  0.00     0.223 C 
HETATM   18  O1  UNL     1      -5.856  -0.466  17.644  1.00  0.00    -0.273 OA
HETATM   19  C3  UNL     1      -6.859   1.721  16.741  1.00  0.00     0.139 C 
ENDBRANCH  13  14
ENDBRANCH  12  13
ENDBRANCH  11  12
ENDBRANCH   1  11
BRANCH   2  20
HETATM   20  O2  UNL     1      -1.306   3.527  11.550  1.00  0.00    -0.392 OA
ATOM     21  H2  UNL     1      -1.464   2.863  12.211  1.00  0.00     0.210 HD
ENDBRANCH   2  20
BRANCH   3  22
HETATM   22  O3  UNL     1      -3.318   3.695   9.293  1.00  0.00    -0.390 OA
ATOM     23  H3  UNL     1      -3.775   4.399   8.847  1.00  0.00     0.210 HD
ENDBRANCH   3  22
TORSDOF 6
ENDMDL
MODEL 3
REMARK VINA RESULT: -6.389220617      2.632      6.856
REMARK  6 active torsions:
REMARK  status: ('A' for Active; 'I' for Inactive)
REMARK    1  A    between atoms: C4_6  and  S1_7 
REMARK    2  A    between atoms: S1_7  and  C5_8 
REMARK    3  A    between atoms: C5_8  and  C6_9 
REMARK    4  A    between atoms: C6_9  and  C7_10 
REMARK    5  A    between atoms: C8_11  and  O2_12 
REMARK    6  A    between atoms: C9_14  and  O3_15 
ROOT
HETATM    1  C7  UNL     1      -2.591   5.631  12.814  1.00  0.00     0.049 C 
HETATM    2  C8  UNL     1      -1.495   4.731  13.283  1.00  0.00     0.156 C 
HETATM    3  C9  UNL     1      -1.569   3.596  12.268  1.00  0.00     0.178 C 
HETATM    4  C10 UNL     1      -1.984   4.277  10.970  1.00  0.00     0.185 C 
HETATM    5  O4  UNL     1      -0.910   4.360  10.087  1.00  0.00    -0.345 OA
HETATM    6  C11 UNL     1      -0.528   5.672  10.000  1.00  0.00     0.158 C 
HETATM    7  C12 UNL     1       1.003   5.706  10.003  1.00  0.00     0.078 C 
HETATM    8  C13 UNL     1      -1.026   6.349   8.745  1.00  0.00     0.078 C 
HETATM    9  O5  UNL     1      -1.038   6.330  11.115  1.00  0.00    -0.347 OA
HETATM   10  C14 UNL     1      -2.242   5.710  11.320  1.00  0.00     0.163 C 
ENDROOT
BRANCH   1  11
HETATM   11  C6  UNL     1      -3.944   5.016  12.880  1.00  0.00     0.020 C 
BRANCH  11  12
HETATM   12  C5  UNL     1      -4.888   5.572  13.882  1.00  0.00     0.076 C 
BRANCH  12  13
HETATM   13  S1  UNL     1      -5.915   4.166  14.492  1.00  0.00    -0.143 SA
BRANCH  13  14
HETATM   14  C4  UNL     1      -4.801   2.998  15.259  1.00  0.00     0.157 C 
HETATM   15  N1  UNL     1      -4.526   1.782  14.556  1.00  0.00    -0.343 N 
HETATM   16  C1  UNL     1      -4.402   1.319  13.204  1.00  0.00     0.154 C 
HETATM   17  C2  UNL     1      -4.412   1.129  15.807  1.00  0.00     0.223 C 
HETATM   18  O1  UNL     1      -3.710   0.186  16.195  1.00  0.00    -0.273 OA
HETATM   19  C3  UNL     1      -5.451   2.074  16.299  1.00  0.00     0.139 C 
ENDBRANCH  13  14
ENDBRANCH  12  13
ENDBRANCH  11  12
ENDBRANCH   1  11
BRANCH   2  20
HETATM   20  O2  UNL     1      -1.600   4.304  14.583  1.00  0.00    -0.392 OA
ATOM     21  H2  UNL     1      -1.080   3.541  14.804  1.00  0.00     0.210 HD
ENDBRANCH   2  20
BRANCH   3  22
HETATM   22  O3  UNL     1      -0.348   2.968  12.171  1.00  0.00    -0.390 OA
ATOM     23  H3  UNL     1      -0.111   2.584  13.006  1.00  0.00     0.210 HD
ENDBRANCH   3  22
TORSDOF 6
ENDMDL
MODEL 4
REMARK VINA RESULT: -6.374750458      1.557      1.975
REMARK  6 active torsions:
REMARK  status: ('A' for Active; 'I' for Inactive)
REMARK    1  A    between atoms: C4_6  and  S1_7 
REMARK    2  A    between atoms: S1_7  and  C5_8 
REMARK    3  A    between atoms: C5_8  and  C6_9 
REMARK    4  A    between atoms: C6_9  and  C7_10 
REMARK    5  A    between atoms: C8_11  and  O2_12 
REMARK    6  A    between atoms: C9_14  and  O3_15 
ROOT
HETATM    1  C7  UNL     1      -4.773   3.294  14.602  1.00  0.00     0.049 C 
HETATM    2  C8  UNL     1      -5.067   1.967  13.982  1.00  0.00     0.156 C 
HETATM    3  C9  UNL     1      -4.253   1.025  14.861  1.00  0.00     0.178 C 
HETATM    4  C10 UNL     1      -4.315   1.655  16.247  1.00  0.00     0.185 C 
HETATM    5  O4  UNL     1      -5.165   0.933  17.083  1.00  0.00    -0.345 OA
HETATM    6  C11 UNL     1      -6.288   1.684  17.301  1.00  0.00     0.158 C 
HETATM    7  C12 UNL     1      -7.493   0.740  17.231  1.00  0.00     0.078 C 
HETATM    8  C13 UNL     1      -6.287   2.368  18.649  1.00  0.00     0.078 C 
HETATM    9  O5  UNL     1      -6.353   2.642  16.295  1.00  0.00    -0.347 OA
HETATM   10  C14 UNL     1      -5.038   2.956  16.077  1.00  0.00     0.163 C 
ENDROOT
BRANCH   1  11
HETATM   11  C6  UNL     1      -3.341   3.688  14.530  1.00  0.00     0.020 C 
BRANCH  11  12
HETATM   12  C5  UNL     1      -3.046   5.142  14.460  1.00  0.00     0.076 C 
BRANCH  12  13
HETATM   13  S1  UNL     1      -4.563   5.968  13.810  1.00  0.00    -0.143 SA
BRANCH  13  14
HETATM   14  C4  UNL     1      -4.294   6.261  12.068  1.00  0.00     0.157 C 
HETATM   15  N1  UNL     1      -5.403   6.730  11.294  1.00  0.00    -0.343 N 
HETATM   16  C1  UNL     1      -6.564   7.556  11.459  1.00  0.00     0.154 C 
HETATM   17  C2  UNL     1      -4.891   6.006  10.190  1.00  0.00     0.223 C 
HETATM   18  O1  UNL     1      -4.912   6.218   8.970  1.00  0.00    -0.273 OA
HETATM   19  C3  UNL     1      -4.396   5.011  11.181  1.00  0.00     0.139 C 
ENDBRANCH  13  14
ENDBRANCH  12  13
ENDBRANCH  11  12
ENDBRANCH   1  11
BRANCH   2  20
HETATM   20  O2  UNL     1      -4.763   1.862  12.647  1.00  0.00    -0.392 OA
ATOM     21  H2  UNL     1      -4.189   1.141  12.416  1.00  0.00     0.210 HD
ENDBRANCH   2  20
BRANCH   3  22
HETATM   22  O3  UNL     1      -4.794  -0.239  14.828  1.00  0.00    -0.390 OA
ATOM     23  H3  UNL     1      -4.462  -0.717  14.077  1.00  0.00     0.210 HD
ENDBRANCH   3  22
TORSDOF 6
ENDMDL
MODEL 5
REMARK VINA RESULT: -6.365758749      2.463      7.066
REMARK  6 active torsions:
REMARK  status: ('A' for Active; 'I' for Inactive)
REMARK    1  A    between atoms: C4_6  and  S1_7 
REMARK    2  A    between atoms: S1_7  and  C5_8 
REMARK    3  A    between atoms: C5_8  and  C6_9 
REMARK    4  A    between atoms: C6_9  and  C7_10 
REMARK    5  A    between atoms: C8_11  and  O2_12 
REMARK    6  A    between atoms: C9_14  and  O3_15 
ROOT
HETATM    1  C7  UNL     1      -3.468   3.604  12.279  1.00  0.00     0.049 C 
HETATM    2  C8  UNL     1      -3.960   3.518  10.871  1.00  0.00     0.156 C 
HETATM    3  C9  UNL     1      -3.930   4.980  10.440  1.00  0.00     0.178 C 
HETATM    4  C10 UNL     1      -2.731   5.564  11.176  1.00  0.00     0.185 C 
HETATM    5  O4  UNL     1      -1.668   5.779  10.301  1.00  0.00    -0.345 OA
HETATM    6  C11 UNL     1      -0.690   4.865  10.585  1.00  0.00     0.158 C 
HETATM    7  C12 UNL     1      -0.136   4.355   9.251  1.00  0.00     0.078 C 
HETATM    8  C13 UNL     1       0.448   5.449  11.390  1.00  0.00     0.078 C 
HETATM    9  O5  UNL     1      -1.281   3.829  11.302  1.00  0.00    -0.347 OA
HETATM   10  C14 UNL     1      -2.219   4.473  12.064  1.00  0.00     0.163 C 
ENDROOT
BRANCH   1  11
HETATM   11  C6  UNL     1      -4.355   4.388  13.179  1.00  0.00     0.020 C 
BRANCH  11  12
HETATM   12  C5  UNL     1      -4.249   4.112  14.635  1.00  0.00     0.076 C 
BRANCH  12  13
HETATM   13  S1  UNL     1      -5.920   3.577  15.204  1.00  0.00    -0.143 SA
BRANCH  13  14
HETATM   14  C4  UNL     1      -5.672   2.294  16.423  1.00  0.00     0.157 C 
HETATM   15  N1  UNL     1      -5.264   1.004  15.956  1.00  0.00    -0.343 N 
HETATM   16  C1  UNL     1      -4.473   0.435  14.903  1.00  0.00     0.154 C 
HETATM   17  C2  UNL     1      -6.004   0.428  17.017  1.00  0.00     0.223 C 
HETATM   18  O1  UNL     1      -5.829  -0.591  17.699  1.00  0.00    -0.273 OA
HETATM   19  C3  UNL     1      -6.951   1.566  16.862  1.00  0.00     0.139 C 
ENDBRANCH  13  14
ENDBRANCH  12  13
ENDBRANCH  11  12
ENDBRANCH   1  11
BRANCH   2  20
HETATM   20  O2  UNL     1      -5.192   2.931  10.713  1.00  0.00    -0.392 OA
ATOM     21  H2  UNL     1      -5.176   2.013  10.468  1.00  0.00     0.210 HD
ENDBRANCH   2  20
BRANCH   3  22
HETATM   22  O3  UNL     1      -3.808   5.068   9.073  1.00  0.00    -0.390 OA
ATOM     23  H3  UNL     1      -4.138   4.277   8.663  1.00  0.00     0.210 HD
ENDBRANCH   3  22
TORSDOF 6
ENDMDL
