MODEL 1
REMARK VINA RESULT: -6.290731831      0.000      0.000
REMARK  6 active torsions:
REMARK  status: ('A' for Active; 'I' for Inactive)
REMARK    1  A    between atoms: C3_5  and  O1_6 
REMARK    2  A    between atoms: O1_6  and  C4_7 
REMARK    3  A    between atoms: C4_7  and  N3_8 
REMARK    4  A    between atoms: N3_8  and  N4_9 
REMARK    5  A    between atoms: N4_9  and  O2_11 
REMARK    6  A    between atoms: C5_13  and  O3_14 
ROOT
HETATM    1  N1  UNL     1      -0.328   1.886   9.256  1.00  0.00    -0.171 NA
HETATM    2  C1  UNL     1      -1.394   2.056   9.716  1.00  0.00     0.190 C 
HETATM    3  N2  UNL     1      -2.660   2.269  10.283  1.00  0.00    -0.256 N 
HETATM    4  C2  UNL     1      -3.263   1.171  10.999  1.00  0.00     0.184 C 
HETATM    5  C3  UNL     1      -4.233   1.632  12.063  1.00  0.00     0.179 C 
HETATM    6  C5  UNL     1      -5.280   2.566  11.509  1.00  0.00     0.160 C 
HETATM    7  C6  UNL     1      -4.730   3.967  11.354  1.00  0.00     0.132 C 
HETATM    8  S1  UNL     1      -3.412   3.843  10.085  1.00  0.00    -0.041 SA
ENDROOT
BRANCH   5   9
HETATM    9  O1  UNL     1      -4.904   0.467  12.511  1.00  0.00    -0.324 OA
BRANCH   9  10
HETATM   10  C4  UNL     1      -4.332  -0.363  13.441  1.00  0.00     0.348 C 
BRANCH  10  11
HETATM   11  N3  UNL     1      -4.635  -0.246  14.648  1.00  0.00    -0.293 NA
BRANCH  11  12
HETATM   12  N4  UNL     1      -4.718   0.006  15.871  1.00  0.00    -0.141 N 
ATOM     13  H4  UNL     1      -5.523  -0.258  16.439  1.00  0.00     0.231 HD
BRANCH  12  14
HETATM   14  O2  UNL     1      -3.613   0.681  16.387  1.00  0.00    -0.264 OA
ATOM     15  H2  UNL     1      -3.246   0.282  17.167  1.00  0.00     0.247 HD
ENDBRANCH  12  14
ENDBRANCH  11  12
ENDBRANCH  10  11
ENDBRANCH   9  10
ENDBRANCH   5   9
BRANCH   6  16
HETATM   16  O3  UNL     1      -5.755   2.061  10.302  1.00  0.00    -0.392 OA
ATOM     17  H3  UNL     1      -5.366   2.545   9.584  1.00  0.00     0.210 HD
ENDBRANCH   6  16
TORSDOF 6
ENDMDL
MODEL 2
REMARK VINA RESULT: -6.200437944      2.541      3.254
REMARK  6 active torsions:
REMARK  status: ('A' for Active; 'I' for Inactive)
REMARK    1  A    between atoms: C3_5  and  O1_6 
REMARK    2  A    between atoms: O1_6  and  C4_7 
REMARK    3  A    between atoms: C4_7  and  N3_8 
REMARK    4  A    between atoms: N3_8  and  N4_9 
REMARK    5  A    between atoms: N4_9  and  O2_11 
REMARK    6  A    between atoms: C5_13  and  O3_14 
ROOT
HETATM    1  N1  UNL     1      -2.954  -3.717  11.516  1.00  0.00    -0.171 NA
HETATM    2  C1  UNL     1      -3.090  -2.553  11.464  1.00  0.00     0.190 C 
HETATM    3  N2  UNL     1      -3.236  -1.158  11.416  1.00  0.00    -0.256 N 
HETATM    4  C2  UNL     1      -4.254  -0.565  12.249  1.00  0.00     0.184 C 
HETATM    5  C3  UNL     1      -3.939   0.864  12.626  1.00  0.00     0.179 C 
HETATM    6  C5  UNL     1      -3.654   1.720  11.417  1.00  0.00     0.160 C 
HETATM    7  C6  UNL     1      -2.241   1.503  10.919  1.00  0.00     0.132 C 
HETATM    8  S1  UNL     1      -2.179  -0.241  10.356  1.00  0.00    -0.041 SA
ENDROOT
BRANCH   5   9
HETATM    9  O1  UNL     1      -5.111   1.375  13.236  1.00  0.00    -0.324 OA
BRANCH   9  10
HETATM   10  C4  UNL     1      -5.046   2.400  14.146  1.00  0.00     0.348 C 
BRANCH  10  11
HETATM   11  N3  UNL     1      -4.306   2.295  15.147  1.00  0.00    -0.293 NA
BRANCH  11  12
HETATM   12  N4  UNL     1      -3.610   1.937  16.123  1.00  0.00    -0.141 N 
ATOM     13  H4  UNL     1      -3.045   2.586  16.671  1.00  0.00     0.231 HD
BRANCH  12  14
HETATM   14  O2  UNL     1      -3.675   0.571  16.395  1.00  0.00    -0.264 OA
ATOM     15  H2  UNL     1      -3.635   0.359  17.320  1.00  0.00     0.247 HD
ENDBRANCH  12  14
ENDBRANCH  11  12
ENDBRANCH  10  11
ENDBRANCH   9  10
ENDBRANCH   5   9
BRANCH   6  16
HETATM   16  O3  UNL     1      -4.597   1.450  10.430  1.00  0.00    -0.392 OA
ATOM     17  H3  UNL     1      -4.152   1.180   9.636  1.00  0.00     0.210 HD
ENDBRANCH   6  16
TORSDOF 6
ENDMDL
MODEL 3
REMARK VINA RESULT: -6.183608671      3.215      5.080
REMARK  6 active torsions:
REMARK  status: ('A' for Active; 'I' for Inactive)
REMARK    1  A    between atoms: C3_5  and  O1_6 
REMARK    2  A    between atoms: O1_6  and  C4_7 
REMARK    3  A    between atoms: C4_7  and  N3_8 
REMARK    4  A    between atoms: N3_8  and  N4_9 
REMARK    5  A    between atoms: N4_9  and  O2_11 
REMARK    6  A    between atoms: C5_13  and  O3_14 
ROOT
HETATM    1  N1  UNL     1      -5.542   0.371  17.675  1.00  0.00    -0.171 NA
HETATM    2  C1  UNL     1      -5.295   0.846  16.630  1.00  0.00     0.190 C 
HETATM    3  N2  UNL     1      -5.019   1.410  15.375  1.00  0.00    -0.256 N 
HETATM    4  C2  UNL     1      -4.365   0.574  14.398  1.00  0.00     0.184 C 
HETATM    5  C3  UNL     1      -4.676   0.986  12.977  1.00  0.00     0.179 C 
HETATM    6  C5  UNL     1      -4.384   2.446  12.734  1.00  0.00     0.160 C 
HETATM    7  C6  UNL     1      -5.497   3.320  13.268  1.00  0.00     0.132 C 
HETATM    8  S1  UNL     1      -5.486   3.078  15.085  1.00  0.00    -0.041 SA
ENDROOT
BRANCH   5   9
HETATM    9  O1  UNL     1      -3.801   0.238  12.152  1.00  0.00    -0.324 OA
BRANCH   9  10
HETATM   10  C4  UNL     1      -4.144  -1.014  11.710  1.00  0.00     0.348 C 
BRANCH  10  11
HETATM   11  N3  UNL     1      -3.291  -1.927  11.708  1.00  0.00    -0.293 NA
BRANCH  11  12
HETATM   12  N4  UNL     1      -2.499  -2.862  11.456  1.00  0.00    -0.141 N 
ATOM     13  H4  UNL     1      -1.549  -2.710  11.119  1.00  0.00     0.231 HD
BRANCH  12  14
HETATM   14  O2  UNL     1      -3.032  -4.132  11.677  1.00  0.00    -0.264 OA
ATOM     15  H2  UNL     1      -3.546  -4.467  10.952  1.00  0.00     0.247 HD
ENDBRANCH  12  14
ENDBRANCH  11  12
ENDBRANCH  10  11
ENDBRANCH   9  10
ENDBRANCH   5   9
BRANCH   6  16
HETATM   16  O3  UNL     1      -3.155   2.770  13.301  1.00  0.00    -0.392 OA
ATOM     17  H3  UNL     1      -2.479   2.221  12.921  1.00  0.00     0.210 HD
ENDBRANCH   6  16
TORSDOF 6
ENDMDL
MODEL 4
REMARK VINA RESULT: -5.986758999      2.979      4.521
REMARK  6 active torsions:
REMARK  status: ('A' for Active; 'I' for Inactive)
REMARK    1  A    between atoms: C3_5  and  O1_6 
REMARK    2  A    between atoms: O1_6  and  C4_7 
REMARK    3  A    between atoms: C4_7  and  N3_8 
REMARK    4  A    between atoms: N3_8  and  N4_9 
REMARK    5  A    between atoms: N4_9  and  O2_11 
REMARK    6  A    between atoms: C5_13  and  O3_14 
ROOT
HETATM    1  N1  UNL     1      -4.427   0.393  16.519  1.00  0.00    -0.171 NA
HETATM    2  C1  UNL     1      -4.459   0.749  15.401  1.00  0.00     0.190 C 
HETATM    3  N2  UNL     1      -4.517   1.169  14.063  1.00  0.00    -0.256 N 
HETATM    4  C2  UNL     1      -4.087   0.235  13.051  1.00  0.00     0.184 C 
HETATM    5  C3  UNL     1      -4.749   0.479  11.714  1.00  0.00     0.179 C 
HETATM    6  C5  UNL     1      -4.581   1.904  11.251  1.00  0.00     0.160 C 
HETATM    7  C6  UNL     1      -5.565   2.821  11.944  1.00  0.00     0.132 C 
HETATM    8  S1  UNL     1      -5.104   2.787  13.718  1.00  0.00    -0.041 SA
ENDROOT
BRANCH   5   9
HETATM    9  O1  UNL     1      -4.071  -0.348  10.785  1.00  0.00    -0.324 OA
BRANCH   9  10
HETATM   10  C4  UNL     1      -2.899  -0.977  11.123  1.00  0.00     0.348 C 
BRANCH  10  11
HETATM   11  N3  UNL     1      -2.867  -2.222  11.221  1.00  0.00    -0.293 NA
BRANCH  11  12
HETATM   12  N4  UNL     1      -2.587  -3.441  11.256  1.00  0.00    -0.141 N 
ATOM     13  H4  UNL     1      -1.650  -3.801  11.074  1.00  0.00     0.231 HD
BRANCH  12  14
HETATM   14  O2  UNL     1      -3.669  -4.263  11.566  1.00  0.00    -0.264 OA
ATOM     15  H2  UNL     1      -3.442  -5.017  12.097  1.00  0.00     0.247 HD
ENDBRANCH  12  14
ENDBRANCH  11  12
ENDBRANCH  10  11
ENDBRANCH   9  10
ENDBRANCH   5   9
BRANCH   6  16
HETATM   16  O3  UNL     1      -3.264   2.305  11.461  1.00  0.00    -0.392 OA
ATOM     17  H3  UNL     1      -2.897   2.617  10.644  1.00  0.00     0.210 HD
ENDBRANCH   6  16
TORSDOF 6
ENDMDL
MODEL 5
REMARK VINA RESULT: -5.968175885      3.229      3.891
REMARK  6 active torsions:
REMARK  status: ('A' for Active; 'I' for Inactive)
REMARK    1  A    between atoms: C3_5  and  O1_6 
REMARK    2  A    between atoms: O1_6  and  C4_7 
REMARK    3  A    between atoms: C4_7  and  N3_8 
REMARK    4  A    between atoms: N3_8  and  N4_9 
REMARK    5  A    between atoms: N4_9  and  O2_11 
REMARK    6  A    between atoms: C5_13  and  O3_14 
ROOT
HETATM    1  N1  UNL     1      -5.313   1.702  10.509  1.00  0.00    -0.171 NA
HETATM    2  C1  UNL     1      -5.368   2.144  11.595  1.00  0.00     0.190 C 
HETATM    3  N2  UNL     1      -5.419   2.686  12.888  1.00  0.00    -0.256 N 
HETATM    4  C2  UNL     1      -4.688   2.002  13.927  1.00  0.00     0.184 C 
HETATM    5  C3  UNL     1      -4.269   2.925  15.049  1.00  0.00     0.179 C 
HETATM    6  C5  UNL     1      -5.436   3.694  15.615  1.00  0.00     0.160 C 
HETATM    7  C6  UNL     1      -5.792   4.871  14.733  1.00  0.00     0.132 C 
HETATM    8  S1  UNL     1      -6.360   4.145  13.148  1.00  0.00    -0.041 SA
ENDROOT
BRANCH   5   9
HETATM    9  O1  UNL     1      -3.776   2.088  16.080  1.00  0.00    -0.324 OA
BRANCH   9  10
HETATM   10  C4  UNL     1      -4.109   0.758  16.131  1.00  0.00     0.348 C 
BRANCH  10  11
HETATM   11  N3  UNL     1      -4.951   0.360  16.963  1.00  0.00    -0.293 NA
BRANCH  11  12
HETATM   12  N4  UNL     1      -5.967   0.057  17.630  1.00  0.00    -0.141 N 
ATOM     13  H4  UNL     1      -5.920  -0.282  18.590  1.00  0.00     0.231 HD
BRANCH  12  14
HETATM   14  O2  UNL     1      -7.168   0.224  16.941  1.00  0.00    -0.264 OA
ATOM     15  H2  UNL     1      -7.921  -0.147  17.383  1.00  0.00     0.247 HD
ENDBRANCH  12  14
ENDBRANCH  11  12
ENDBRANCH  10  11
ENDBRANCH   9  10
ENDBRANCH   5   9
BRANCH   6  16
HETATM   16  O3  UNL     1      -6.516   2.832  15.787  1.00  0.00    -0.392 OA
ATOM     17  H3  UNL     1      -6.656   2.684  16.714  1.00  0.00     0.210 HD
ENDBRANCH   6  16
TORSDOF 6
ENDMDL
