MODEL 1
REMARK VINA RESULT: -6.085706840      0.000      0.000
REMARK  4 active torsions:
REMARK  status: ('A' for Active; 'I' for Inactive)
REMARK    1  A    between atoms: O1_2  and  C2_3 
REMARK    2  A    between atoms: C2_3  and  C3_4 
REMARK    3  A    between atoms: C8_12  and  O5_13 
REMARK    4  A    between atoms: C9_15  and  O6_16 
ROOT
HETATM    1  C3  UNL     1      -3.327   0.761  11.088  1.00  0.00     0.182 C 
HETATM    2  O2  UNL     1      -2.997   1.441  12.243  1.00  0.00    -0.320 OA
HETATM    3  C4  UNL     1      -3.954   2.408  12.434  1.00  0.00     0.318 C 
HETATM    4  O3  UNL     1      -3.560   3.722  12.344  1.00  0.00    -0.294 OA
HETATM    5  C5  UNL     1      -4.114   3.985  13.575  1.00  0.00     0.168 C 
HETATM    6  C6  UNL     1      -3.218   4.667  14.576  1.00  0.00     0.079 C 
HETATM    7  C7  UNL     1      -5.472   4.652  13.566  1.00  0.00     0.079 C 
HETATM    8  O4  UNL     1      -4.169   2.605  13.801  1.00  0.00    -0.294 OA
HETATM    9  C8  UNL     1      -5.184   2.015  11.666  1.00  0.00     0.242 C 
HETATM   10  C9  UNL     1      -4.838   0.567  11.290  1.00  0.00     0.186 C 
ENDROOT
BRANCH   9  11
HETATM   11  O5  UNL     1      -5.212   2.715  10.451  1.00  0.00    -0.385 OA
ATOM     12  H5  UNL     1      -5.678   2.199   9.804  1.00  0.00     0.210 HD
ENDBRANCH   9  11
BRANCH   1  13
HETATM   13  C2  UNL     1      -2.627  -0.552  10.949  1.00  0.00     0.201 C 
BRANCH  13  14
HETATM   14  O1  UNL     1      -3.338  -1.525  11.604  1.00  0.00    -0.393 OA
HETATM   15  C1  UNL     1      -2.910  -2.813  11.378  1.00  0.00     0.201 C 
ENDBRANCH  13  14
ENDBRANCH   1  13
BRANCH  10  16
HETATM   16  O6  UNL     1      -5.404   0.188  10.100  1.00  0.00    -0.390 OA
ATOM     17  H6  UNL     1      -6.326   0.010  10.238  1.00  0.00     0.210 HD
ENDBRANCH  10  16
TORSDOF 4
ENDMDL
MODEL 2
REMARK VINA RESULT: -5.926338809      1.930      2.500
REMARK  4 active torsions:
REMARK  status: ('A' for Active; 'I' for Inactive)
REMARK    1  A    between atoms: O1_2  and  C2_3 
REMARK    2  A    between atoms: C2_3  and  C3_4 
REMARK    3  A    between atoms: C8_12  and  O5_13 
REMARK    4  A    between atoms: C9_15  and  O6_16 
ROOT
HETATM    1  C3  UNL     1      -3.417   1.349  11.702  1.00  0.00     0.182 C 
HETATM    2  O2  UNL     1      -3.628   0.923  12.998  1.00  0.00    -0.320 OA
HETATM    3  C4  UNL     1      -4.488   1.819  13.586  1.00  0.00     0.318 C 
HETATM    4  O3  UNL     1      -4.005   2.580  14.624  1.00  0.00    -0.294 OA
HETATM    5  C5  UNL     1      -5.057   2.187  15.417  1.00  0.00     0.168 C 
HETATM    6  C6  UNL     1      -4.700   1.634  16.772  1.00  0.00     0.079 C 
HETATM    7  C7  UNL     1      -6.195   3.176  15.552  1.00  0.00     0.079 C 
HETATM    8  O4  UNL     1      -5.313   1.160  14.501  1.00  0.00    -0.294 OA
HETATM    9  C8  UNL     1      -5.229   2.547  12.500  1.00  0.00     0.242 C 
HETATM   10  C9  UNL     1      -4.850   1.699  11.276  1.00  0.00     0.186 C 
ENDROOT
BRANCH   9  11
HETATM   11  O5  UNL     1      -4.623   3.794  12.285  1.00  0.00    -0.385 OA
ATOM     12  H5  UNL     1      -4.073   3.745  11.513  1.00  0.00     0.210 HD
ENDBRANCH   9  11
BRANCH   1  13
HETATM   13  C2  UNL     1      -2.831   0.295  10.817  1.00  0.00     0.201 C 
BRANCH  13  14
HETATM   14  O1  UNL     1      -2.150   0.886   9.785  1.00  0.00    -0.393 OA
HETATM   15  C1  UNL     1      -1.092   1.681  10.164  1.00  0.00     0.201 C 
ENDBRANCH  13  14
ENDBRANCH   1  13
BRANCH  10  16
HETATM   16  O6  UNL     1      -4.807   2.439  10.123  1.00  0.00    -0.390 OA
ATOM     17  H6  UNL     1      -4.175   3.140  10.226  1.00  0.00     0.210 HD
ENDBRANCH  10  16
TORSDOF 4
ENDMDL
MODEL 3
REMARK VINA RESULT: -5.901933752      1.251      1.454
REMARK  4 active torsions:
REMARK  status: ('A' for Active; 'I' for Inactive)
REMARK    1  A    between atoms: O1_2  and  C2_3 
REMARK    2  A    between atoms: C2_3  and  C3_4 
REMARK    3  A    between atoms: C8_12  and  O5_13 
REMARK    4  A    between atoms: C9_15  and  O6_16 
ROOT
HETATM    1  C3  UNL     1      -3.897   1.777  11.066  1.00  0.00     0.182 C 
HETATM    2  O2  UNL     1      -3.122   2.144  12.148  1.00  0.00    -0.320 OA
HETATM    3  C4  UNL     1      -3.666   3.293  12.669  1.00  0.00     0.318 C 
HETATM    4  O3  UNL     1      -2.918   4.444  12.594  1.00  0.00    -0.294 OA
HETATM    5  C5  UNL     1      -3.072   4.646  13.945  1.00  0.00     0.168 C 
HETATM    6  C6  UNL     1      -1.808   4.883  14.731  1.00  0.00     0.079 C 
HETATM    7  C7  UNL     1      -4.125   5.655  14.352  1.00  0.00     0.079 C 
HETATM    8  O4  UNL     1      -3.496   3.317  14.056  1.00  0.00    -0.294 OA
HETATM    9  C8  UNL     1      -5.098   3.384  12.221  1.00  0.00     0.242 C 
HETATM   10  C9  UNL     1      -5.307   1.978  11.641  1.00  0.00     0.186 C 
ENDROOT
BRANCH   9  11
HETATM   11  O5  UNL     1      -5.182   4.251  11.122  1.00  0.00    -0.385 OA
ATOM     12  H5  UNL     1      -6.096   4.395  10.907  1.00  0.00     0.210 HD
ENDBRANCH   9  11
BRANCH   1  13
HETATM   13  C2  UNL     1      -3.684   0.362  10.634  1.00  0.00     0.201 C 
BRANCH  13  14
HETATM   14  O1  UNL     1      -4.592  -0.452  11.260  1.00  0.00    -0.393 OA
HETATM   15  C1  UNL     1      -4.046  -1.482  11.992  1.00  0.00     0.201 C 
ENDBRANCH  13  14
ENDBRANCH   1  13
BRANCH  10  16
HETATM   16  O6  UNL     1      -6.216   1.967  10.615  1.00  0.00    -0.390 OA
ATOM     17  H6  UNL     1      -6.429   2.862  10.379  1.00  0.00     0.210 HD
ENDBRANCH  10  16
TORSDOF 4
ENDMDL
MODEL 4
REMARK VINA RESULT: -5.818432438      1.513      2.080
REMARK  4 active torsions:
REMARK  status: ('A' for Active; 'I' for Inactive)
REMARK    1  A    between atoms: O1_2  and  C2_3 
REMARK    2  A    between atoms: C2_3  and  C3_4 
REMARK    3  A    between atoms: C8_12  and  O5_13 
REMARK    4  A    between atoms: C9_15  and  O6_16 
ROOT
HETATM    1  C3  UNL     1      -3.854   0.038  12.141  1.00  0.00     0.182 C 
HETATM    2  O2  UNL     1      -4.989   0.713  12.542  1.00  0.00    -0.320 OA
HETATM    3  C4  UNL     1      -4.762   2.052  12.334  1.00  0.00     0.318 C 
HETATM    4  O3  UNL     1      -4.697   2.867  13.439  1.00  0.00    -0.294 OA
HETATM    5  C5  UNL     1      -5.640   3.704  12.892  1.00  0.00     0.168 C 
HETATM    6  C6  UNL     1      -6.823   4.036  13.766  1.00  0.00     0.079 C 
HETATM    7  C7  UNL     1      -5.116   4.966  12.241  1.00  0.00     0.079 C 
HETATM    8  O4  UNL     1      -5.954   2.690  11.979  1.00  0.00    -0.294 OA
HETATM    9  C8  UNL     1      -3.661   2.194  11.321  1.00  0.00     0.242 C 
HETATM   10  C9  UNL     1      -3.550   0.749  10.813  1.00  0.00     0.186 C 
ENDROOT
BRANCH   9  11
HETATM   11  O5  UNL     1      -2.452   2.443  11.988  1.00  0.00    -0.385 OA
ATOM     12  H5  UNL     1      -1.956   3.091  11.501  1.00  0.00     0.210 HD
ENDBRANCH   9  11
BRANCH   1  13
HETATM   13  C2  UNL     1      -4.074  -1.426  11.933  1.00  0.00     0.201 C 
BRANCH  13  14
HETATM   14  O1  UNL     1      -2.885  -2.031  11.619  1.00  0.00    -0.393 OA
HETATM   15  C1  UNL     1      -2.965  -3.382  11.370  1.00  0.00     0.201 C 
ENDBRANCH  13  14
ENDBRANCH   1  13
BRANCH  10  16
HETATM   16  O6  UNL     1      -2.277   0.432  10.416  1.00  0.00    -0.390 OA
ATOM     17  H6  UNL     1      -2.243   0.412   9.468  1.00  0.00     0.210 HD
ENDBRANCH  10  16
TORSDOF 4
ENDMDL
MODEL 5
REMARK VINA RESULT: -5.747892662      2.621      4.435
REMARK  4 active torsions:
REMARK  status: ('A' for Active; 'I' for Inactive)
REMARK    1  A    between atoms: O1_2  and  C2_3 
REMARK    2  A    between atoms: C2_3  and  C3_4 
REMARK    3  A    between atoms: C8_12  and  O5_13 
REMARK    4  A    between atoms: C9_15  and  O6_16 
ROOT
HETATM    1  C3  UNL     1      -5.156   1.471  14.786  1.00  0.00     0.182 C 
HETATM    2  O2  UNL     1      -4.063   1.113  14.023  1.00  0.00    -0.320 OA
HETATM    3  C4  UNL     1      -4.083   1.891  12.890  1.00  0.00     0.318 C 
HETATM    4  O3  UNL     1      -4.290   1.261  11.687  1.00  0.00    -0.294 OA
HETATM    5  C5  UNL     1      -3.160   1.851  11.171  1.00  0.00     0.168 C 
HETATM    6  C6  UNL     1      -2.163   0.925  10.522  1.00  0.00     0.079 C 
HETATM    7  C7  UNL     1      -3.382   3.061  10.290  1.00  0.00     0.079 C 
HETATM    8  O4  UNL     1      -2.778   2.171  12.479  1.00  0.00    -0.294 OA
HETATM    9  C8  UNL     1      -4.917   3.110  13.169  1.00  0.00     0.242 C 
HETATM   10  C9  UNL     1      -5.083   3.003  14.692  1.00  0.00     0.186 C 
ENDROOT
BRANCH   9  11
HETATM   11  O5  UNL     1      -6.204   2.918  12.644  1.00  0.00    -0.385 OA
ATOM     12  H5  UNL     1      -6.284   3.400  11.830  1.00  0.00     0.210 HD
ENDBRANCH   9  11
BRANCH   1  13
HETATM   13  C2  UNL     1      -5.068   1.011  16.205  1.00  0.00     0.201 C 
BRANCH  13  14
HETATM   14  O1  UNL     1      -6.163   0.245  16.510  1.00  0.00    -0.393 OA
HETATM   15  C1  UNL     1      -7.130   0.879  17.256  1.00  0.00     0.201 C 
ENDBRANCH  13  14
ENDBRANCH   1  13
BRANCH  10  16
HETATM   16  O6  UNL     1      -6.269   3.535  15.126  1.00  0.00    -0.390 OA
ATOM     17  H6  UNL     1      -6.377   3.341  16.050  1.00  0.00     0.210 HD
ENDBRANCH  10  16
TORSDOF 4
ENDMDL
