MODEL 1
REMARK VINA RESULT: -5.538355970      0.000      0.000
REMARK  4 active torsions:
REMARK  status: ('A' for Active; 'I' for Inactive)
REMARK    1  A    between atoms: O1_2  and  C2_3 
REMARK    2  A    between atoms: C7_9  and  O3_10 
REMARK    3  A    between atoms: C9_12  and  O4_13 
REMARK    4  A    between atoms: C10_15  and  O5_16 
ROOT
HETATM    1  C2  UNL     1      -3.118   2.219  11.155  1.00  0.00     0.175 C 
HETATM    2  C3  UNL     1      -2.658   3.463  11.926  1.00  0.00     0.203 C 
HETATM    3  O2  UNL     1      -2.812   3.149  13.252  1.00  0.00    -0.376 OA
HETATM    4  C4  UNL     1      -3.935   3.722  13.763  1.00  0.00     0.082 C 
HETATM    5  C5  UNL     1      -3.660   5.229  13.890  1.00  0.00     0.048 C 
HETATM    6  C6  UNL     1      -4.147   3.235  15.187  1.00  0.00     0.048 C 
HETATM    7  C7  UNL     1      -5.171   3.572  12.946  1.00  0.00     0.185 C 
HETATM    8  C9  UNL     1      -5.384   2.297  12.263  1.00  0.00     0.181 C 
HETATM    9  C10 UNL     1      -4.199   1.493  11.879  1.00  0.00     0.180 C 
ENDROOT
BRANCH   1  10
HETATM   10  O1  UNL     1      -3.410   2.587   9.874  1.00  0.00    -0.386 OA
HETATM   11  C1  UNL     1      -3.103   3.934   9.725  1.00  0.00     0.202 C 
ENDBRANCH   1  10
BRANCH   9  12
HETATM   12  O5  UNL     1      -3.645   0.876  13.008  1.00  0.00    -0.390 OA
ATOM     13  H5  UNL     1      -3.539  -0.050  12.825  1.00  0.00     0.210 HD
ENDBRANCH   9  12
BRANCH   8  14
HETATM   14  O4  UNL     1      -6.113   2.543  11.073  1.00  0.00    -0.390 OA
ATOM     15  H4  UNL     1      -5.579   3.077  10.499  1.00  0.00     0.210 HD
ENDBRANCH   8  14
BRANCH   7  16
HETATM   16  O3  UNL     1      -6.245   3.829  13.801  1.00  0.00    -0.385 OA
HETATM   17  C8  UNL     1      -6.959   4.955  13.450  1.00  0.00     0.202 C 
ENDBRANCH   7  16
TORSDOF 4
ENDMDL
MODEL 2
REMARK VINA RESULT: -5.493425476      2.010      3.888
REMARK  4 active torsions:
REMARK  status: ('A' for Active; 'I' for Inactive)
REMARK    1  A    between atoms: O1_2  and  C2_3 
REMARK    2  A    between atoms: C7_9  and  O3_10 
REMARK    3  A    between atoms: C9_12  and  O4_13 
REMARK    4  A    between atoms: C10_15  and  O5_16 
ROOT
HETATM    1  C2  UNL     1      -4.134   1.396  12.408  1.00  0.00     0.175 C 
HETATM    2  C3  UNL     1      -2.935   0.844  11.628  1.00  0.00     0.203 C 
HETATM    3  O2  UNL     1      -1.894   1.690  11.911  1.00  0.00    -0.376 OA
HETATM    4  C4  UNL     1      -1.672   2.554  10.883  1.00  0.00     0.082 C 
HETATM    5  C5  UNL     1      -1.039   1.747   9.738  1.00  0.00     0.048 C 
HETATM    6  C6  UNL     1      -0.614   3.564  11.291  1.00  0.00     0.048 C 
HETATM    7  C7  UNL     1      -2.879   3.225  10.327  1.00  0.00     0.185 C 
HETATM    8  C9  UNL     1      -3.923   3.636  11.265  1.00  0.00     0.181 C 
HETATM    9  C10 UNL     1      -4.074   2.880  12.532  1.00  0.00     0.180 C 
ENDROOT
BRANCH   1  10
HETATM   10  O1  UNL     1      -5.278   0.897  11.856  1.00  0.00    -0.386 OA
HETATM   11  C1  UNL     1      -4.925   0.039  10.821  1.00  0.00     0.202 C 
ENDBRANCH   1  10
BRANCH   9  12
HETATM   12  O5  UNL     1      -3.044   3.213  13.421  1.00  0.00    -0.390 OA
ATOM     13  H5  UNL     1      -3.044   2.584  14.133  1.00  0.00     0.210 HD
ENDBRANCH   9  12
BRANCH   8  14
HETATM   14  O4  UNL     1      -5.173   3.573  10.601  1.00  0.00    -0.390 OA
ATOM     15  H4  UNL     1      -5.819   4.020  11.135  1.00  0.00     0.210 HD
ENDBRANCH   8  14
BRANCH   7  16
HETATM   16  O3  UNL     1      -2.423   4.339   9.619  1.00  0.00    -0.385 OA
HETATM   17  C8  UNL     1      -2.917   4.403   8.333  1.00  0.00     0.202 C 
ENDBRANCH   7  16
TORSDOF 4
ENDMDL
MODEL 3
REMARK VINA RESULT: -5.480015644      2.213      3.934
REMARK  4 active torsions:
REMARK  status: ('A' for Active; 'I' for Inactive)
REMARK    1  A    between atoms: O1_2  and  C2_3 
REMARK    2  A    between atoms: C7_9  and  O3_10 
REMARK    3  A    between atoms: C9_12  and  O4_13 
REMARK    4  A    between atoms: C10_15  and  O5_16 
ROOT
HETATM    1  C2  UNL     1      -1.695   2.616  10.579  1.00  0.00     0.175 C 
HETATM    2  C3  UNL     1      -1.655   1.086  10.484  1.00  0.00     0.203 C 
HETATM    3  O2  UNL     1      -2.902   0.712  10.053  1.00  0.00    -0.376 OA
HETATM    4  C4  UNL     1      -3.655   0.242  11.084  1.00  0.00     0.082 C 
HETATM    5  C5  UNL     1      -3.096  -1.138  11.466  1.00  0.00     0.048 C 
HETATM    6  C6  UNL     1      -5.069  -0.022  10.597  1.00  0.00     0.048 C 
HETATM    7  C7  UNL     1      -3.652   1.071  12.321  1.00  0.00     0.185 C 
HETATM    8  C9  UNL     1      -3.654   2.524  12.168  1.00  0.00     0.181 C 
HETATM    9  C10 UNL     1      -3.053   3.108  10.944  1.00  0.00     0.180 C 
ENDROOT
BRANCH   1  10
HETATM   10  O1  UNL     1      -0.681   3.027  11.394  1.00  0.00    -0.386 OA
HETATM   11  C1  UNL     1      -0.398   4.356  11.103  1.00  0.00     0.202 C 
ENDBRANCH   1  10
BRANCH   9  12
HETATM   12  O5  UNL     1      -3.906   2.919   9.848  1.00  0.00    -0.390 OA
ATOM     13  H5  UNL     1      -4.193   3.770   9.538  1.00  0.00     0.210 HD
ENDBRANCH   9  12
BRANCH   8  14
HETATM   14  O4  UNL     1      -2.967   3.093  13.269  1.00  0.00    -0.390 OA
ATOM     15  H4  UNL     1      -3.182   4.017  13.312  1.00  0.00     0.210 HD
ENDBRANCH   8  14
BRANCH   7  16
HETATM   16  O3  UNL     1      -4.768   0.679  13.064  1.00  0.00    -0.385 OA
HETATM   17  C8  UNL     1      -4.467   0.382  14.377  1.00  0.00     0.202 C 
ENDBRANCH   7  16
TORSDOF 4
ENDMDL
MODEL 4
REMARK VINA RESULT: -5.362020567      2.212      4.095
REMARK  4 active torsions:
REMARK  status: ('A' for Active; 'I' for Inactive)
REMARK    1  A    between atoms: O1_2  and  C2_3 
REMARK    2  A    between atoms: C7_9  and  O3_10 
REMARK    3  A    between atoms: C9_12  and  O4_13 
REMARK    4  A    between atoms: C10_15  and  O5_16 
ROOT
HETATM    1  C2  UNL     1      -3.922  -1.021  11.686  1.00  0.00     0.175 C 
HETATM    2  C3  UNL     1      -4.358  -0.242  12.932  1.00  0.00     0.203 C 
HETATM    3  O2  UNL     1      -5.155   0.774  12.470  1.00  0.00    -0.376 OA
HETATM    4  C4  UNL     1      -4.477   1.953  12.444  1.00  0.00     0.082 C 
HETATM    5  C5  UNL     1      -4.304   2.411  13.901  1.00  0.00     0.048 C 
HETATM    6  C6  UNL     1      -5.342   3.018  11.792  1.00  0.00     0.048 C 
HETATM    7  C7  UNL     1      -3.118   1.909  11.837  1.00  0.00     0.185 C 
HETATM    8  C9  UNL     1      -2.924   1.060  10.663  1.00  0.00     0.181 C 
HETATM    9  C10 UNL     1      -3.794  -0.130  10.498  1.00  0.00     0.180 C 
ENDROOT
BRANCH   1  10
HETATM   10  O1  UNL     1      -2.811  -1.751  11.996  1.00  0.00    -0.386 OA
HETATM   11  C1  UNL     1      -2.911  -2.987  11.368  1.00  0.00     0.202 C 
ENDBRANCH   1  10
BRANCH   9  12
HETATM   12  O5  UNL     1      -5.077   0.260  10.093  1.00  0.00    -0.390 OA
ATOM     13  H5  UNL     1      -5.005   0.729   9.270  1.00  0.00     0.210 HD
ENDBRANCH   9  12
BRANCH   8  14
HETATM   14  O4  UNL     1      -1.587   0.590  10.665  1.00  0.00    -0.390 OA
ATOM     15  H4  UNL     1      -1.474   0.003   9.928  1.00  0.00     0.210 HD
ENDBRANCH   8  14
BRANCH   7  16
HETATM   16  O3  UNL     1      -2.782   3.227  11.520  1.00  0.00    -0.385 OA
HETATM   17  C8  UNL     1      -1.514   3.576  11.934  1.00  0.00     0.202 C 
ENDBRANCH   7  16
TORSDOF 4
ENDMDL
MODEL 5
REMARK VINA RESULT: -5.333518765      1.713      3.652
REMARK  4 active torsions:
REMARK  status: ('A' for Active; 'I' for Inactive)
REMARK    1  A    between atoms: O1_2  and  C2_3 
REMARK    2  A    between atoms: C7_9  and  O3_10 
REMARK    3  A    between atoms: C9_12  and  O4_13 
REMARK    4  A    between atoms: C10_15  and  O5_16 
ROOT
HETATM    1  C2  UNL     1      -3.961   3.846  11.236  1.00  0.00     0.175 C 
HETATM    2  C3  UNL     1      -2.941   2.772  10.836  1.00  0.00     0.203 C 
HETATM    3  O2  UNL     1      -3.683   1.717  10.372  1.00  0.00    -0.376 OA
HETATM    4  C4  UNL     1      -3.772   0.733  11.308  1.00  0.00     0.082 C 
HETATM    5  C5  UNL     1      -2.395   0.056  11.391  1.00  0.00     0.048 C 
HETATM    6  C6  UNL     1      -4.718  -0.349  10.814  1.00  0.00     0.048 C 
HETATM    7  C7  UNL     1      -4.124   1.177  12.685  1.00  0.00     0.185 C 
HETATM    8  C9  UNL     1      -5.104   2.253  12.825  1.00  0.00     0.181 C 
HETATM    9  C10 UNL     1      -5.231   3.241  11.726  1.00  0.00     0.180 C 
ENDROOT
BRANCH   1  10
HETATM   10  O1  UNL     1      -3.356   4.722  12.090  1.00  0.00    -0.386 OA
HETATM   11  C1  UNL     1      -2.025   4.346  12.231  1.00  0.00     0.202 C 
ENDBRANCH   1  10
BRANCH   9  12
HETATM   12  O5  UNL     1      -5.905   2.672  10.638  1.00  0.00    -0.390 OA
ATOM     13  H5  UNL     1      -6.332   1.876  10.929  1.00  0.00     0.210 HD
ENDBRANCH   9  12
BRANCH   8  14
HETATM   14  O4  UNL     1      -4.801   2.985  13.999  1.00  0.00    -0.390 OA
ATOM     15  H4  UNL     1      -4.850   2.395  14.742  1.00  0.00     0.210 HD
ENDBRANCH   8  14
BRANCH   7  16
HETATM   16  O3  UNL     1      -4.576   0.043  13.363  1.00  0.00    -0.385 OA
HETATM   17  C8  UNL     1      -4.383   0.114  14.727  1.00  0.00     0.202 C 
ENDBRANCH   7  16
TORSDOF 4
ENDMDL
