MODEL 1
REMARK VINA RESULT: -6.226268056      0.000      0.000
REMARK  5 active torsions:
REMARK  status: ('A' for Active; 'I' for Inactive)
REMARK    1  A    between atoms: C2_2  and  N1_5 
REMARK    2  A    between atoms: N1_5  and  C5_7 
REMARK    3  A    between atoms: C5_7  and  O1_9 
REMARK    4  A    between atoms: O1_9  and  C6_10 
REMARK    5  A    between atoms: C6_10  and  C7_11 
ROOT
HETATM    1  C7  UNL     1      -3.572   5.088  14.239  1.00  0.00     0.056 A 
HETATM    2  C8  UNL     1      -2.441   4.528  14.984  1.00  0.00     0.087 A 
HETATM    3  N2  UNL     1      -1.500   3.826  14.475  1.00  0.00    -0.315 N 
ATOM      4  H2  UNL     1      -0.740   3.465  15.051  1.00  0.00     0.185 HD
HETATM    5  N3  UNL     1      -1.551   3.572  13.107  1.00  0.00    -0.295 N 
ATOM      6  H3  UNL     1      -0.796   3.011  12.713  1.00  0.00     0.187 HD
HETATM    7  C9  UNL     1      -2.456   3.976  12.298  1.00  0.00     0.106 A 
HETATM    8  C10 UNL     1      -2.405   3.647  10.878  1.00  0.00     0.114 C 
HETATM    9  N4  UNL     1      -2.345   3.392   9.751  1.00  0.00    -0.190 NA
HETATM   10  C11 UNL     1      -3.572   4.785  12.786  1.00  0.00     0.082 A 
ENDROOT
BRANCH   1  11
HETATM   11  C6  UNL     1      -4.862   4.585  14.928  1.00  0.00     0.188 C 
BRANCH  11  12
HETATM   12  O1  UNL     1      -4.831   3.332  15.270  1.00  0.00    -0.326 OA
BRANCH  12  13
HETATM   13  C5  UNL     1      -4.820   2.092  15.603  1.00  0.00     0.210 C 
HETATM   14  S1  UNL     1      -4.482   0.828  14.569  1.00  0.00    -0.033 SA
BRANCH  13  15
HETATM   15  N1  UNL     1      -5.108   1.663  16.946  1.00  0.00    -0.353 N 
ATOM     16  H1  UNL     1      -4.338   1.301  17.509  1.00  0.00     0.163 HD
BRANCH  15  17
HETATM   17  C2  UNL     1      -6.415   1.715  17.543  1.00  0.00     0.022 C 
HETATM   18  C1  UNL     1      -7.191   0.494  17.099  1.00  0.00     0.037 C 
HETATM   19  C3  UNL     1      -7.151   2.972  17.095  1.00  0.00     0.037 C 
HETATM   20  C4  UNL     1      -6.267   1.730  19.062  1.00  0.00     0.037 C 
ENDBRANCH  15  17
ENDBRANCH  13  15
ENDBRANCH  12  13
ENDBRANCH  11  12
ENDBRANCH   1  11
TORSDOF 5
ENDMDL
MODEL 2
REMARK VINA RESULT: -6.200555203      0.041      1.031
REMARK  5 active torsions:
REMARK  status: ('A' for Active; 'I' for Inactive)
REMARK    1  A    between atoms: C2_2  and  N1_5 
REMARK    2  A    between atoms: N1_5  and  C5_7 
REMARK    3  A    between atoms: C5_7  and  O1_9 
REMARK    4  A    between atoms: O1_9  and  C6_10 
REMARK    5  A    between atoms: C6_10  and  C7_11 
ROOT
HETATM    1  C7  UNL     1      -3.570   5.089  14.230  1.00  0.00     0.056 A 
HETATM    2  C8  UNL     1      -2.439   4.533  14.978  1.00  0.00     0.087 A 
HETATM    3  N2  UNL     1      -1.497   3.832  14.470  1.00  0.00    -0.315 N 
ATOM      4  H2  UNL     1      -0.736   3.473  15.048  1.00  0.00     0.185 HD
HETATM    5  N3  UNL     1      -1.544   3.577  13.103  1.00  0.00    -0.295 N 
ATOM      6  H3  UNL     1      -0.787   3.018  12.710  1.00  0.00     0.187 HD
HETATM    7  C9  UNL     1      -2.449   3.979  12.291  1.00  0.00     0.106 A 
HETATM    8  C10 UNL     1      -2.395   3.649  10.872  1.00  0.00     0.114 C 
HETATM    9  N4  UNL     1      -2.333   3.394   9.745  1.00  0.00    -0.190 NA
HETATM   10  C11 UNL     1      -3.568   4.786  12.777  1.00  0.00     0.082 A 
ENDROOT
BRANCH   1  11
HETATM   11  C6  UNL     1      -4.861   4.584  14.917  1.00  0.00     0.188 C 
BRANCH  11  12
HETATM   12  O1  UNL     1      -4.831   3.329  15.252  1.00  0.00    -0.326 OA
BRANCH  12  13
HETATM   13  C5  UNL     1      -4.815   2.093  15.597  1.00  0.00     0.210 C 
HETATM   14  S1  UNL     1      -4.494   0.817  14.572  1.00  0.00    -0.033 SA
BRANCH  13  15
HETATM   15  N1  UNL     1      -5.083   1.678  16.949  1.00  0.00    -0.353 N 
ATOM     16  H1  UNL     1      -4.298   1.363  17.519  1.00  0.00     0.163 HD
BRANCH  15  17
HETATM   17  C2  UNL     1      -6.391   1.681  17.546  1.00  0.00     0.022 C 
HETATM   18  C1  UNL     1      -7.142   2.896  17.046  1.00  0.00     0.037 C 
HETATM   19  C3  UNL     1      -6.278   1.746  19.065  1.00  0.00     0.037 C 
HETATM   20  C4  UNL     1      -7.121   0.401  17.149  1.00  0.00     0.037 C 
ENDBRANCH  15  17
ENDBRANCH  13  15
ENDBRANCH  12  13
ENDBRANCH  11  12
ENDBRANCH   1  11
TORSDOF 5
ENDMDL
MODEL 3
REMARK VINA RESULT: -5.991160561      1.002      1.277
REMARK  5 active torsions:
REMARK  status: ('A' for Active; 'I' for Inactive)
REMARK    1  A    between atoms: C2_2  and  N1_5 
REMARK    2  A    between atoms: N1_5  and  C5_7 
REMARK    3  A    between atoms: C5_7  and  O1_9 
REMARK    4  A    between atoms: O1_9  and  C6_10 
REMARK    5  A    between atoms: C6_10  and  C7_11 
ROOT
HETATM    1  C7  UNL     1      -3.304   5.423  13.951  1.00  0.00     0.056 A 
HETATM    2  C8  UNL     1      -2.289   4.742  14.760  1.00  0.00     0.087 A 
HETATM    3  N2  UNL     1      -1.418   3.920  14.308  1.00  0.00    -0.315 N 
ATOM      4  H2  UNL     1      -0.738   3.479  14.927  1.00  0.00     0.185 HD
HETATM    5  N3  UNL     1      -1.431   3.651  12.943  1.00  0.00    -0.295 N 
ATOM      6  H3  UNL     1      -0.732   2.995  12.594  1.00  0.00     0.187 HD
HETATM    7  C9  UNL     1      -2.238   4.149  12.083  1.00  0.00     0.106 A 
HETATM    8  C10 UNL     1      -2.157   3.791  10.671  1.00  0.00     0.114 C 
HETATM    9  N4  UNL     1      -2.073   3.511   9.552  1.00  0.00    -0.190 NA
HETATM   10  C11 UNL     1      -3.268   5.097  12.504  1.00  0.00     0.082 A 
ENDROOT
BRANCH   1  11
HETATM   11  C6  UNL     1      -4.679   5.094  14.578  1.00  0.00     0.188 C 
BRANCH  11  12
HETATM   12  O1  UNL     1      -5.010   3.839  14.512  1.00  0.00    -0.326 OA
BRANCH  12  13
HETATM   13  C5  UNL     1      -5.329   2.597  14.466  1.00  0.00     0.210 C 
HETATM   14  S1  UNL     1      -4.506   1.430  13.604  1.00  0.00    -0.033 SA
BRANCH  13  15
HETATM   15  N1  UNL     1      -6.466   2.077  15.179  1.00  0.00    -0.353 N 
ATOM     16  H1  UNL     1      -7.280   1.787  14.637  1.00  0.00     0.163 HD
BRANCH  15  17
HETATM   17  C2  UNL     1      -6.524   1.942  16.609  1.00  0.00     0.022 C 
HETATM   18  C1  UNL     1      -5.150   1.551  17.108  1.00  0.00     0.037 C 
HETATM   19  C3  UNL     1      -7.528   0.863  16.997  1.00  0.00     0.037 C 
HETATM   20  C4  UNL     1      -6.953   3.274  17.217  1.00  0.00     0.037 C 
ENDBRANCH  15  17
ENDBRANCH  13  15
ENDBRANCH  12  13
ENDBRANCH  11  12
ENDBRANCH   1  11
TORSDOF 5
ENDMDL
MODEL 4
REMARK VINA RESULT: -5.905092291      3.687      6.311
REMARK  5 active torsions:
REMARK  status: ('A' for Active; 'I' for Inactive)
REMARK    1  A    between atoms: C2_2  and  N1_5 
REMARK    2  A    between atoms: N1_5  and  C5_7 
REMARK    3  A    between atoms: C5_7  and  O1_9 
REMARK    4  A    between atoms: O1_9  and  C6_10 
REMARK    5  A    between atoms: C6_10  and  C7_11 
ROOT
HETATM    1  C7  UNL     1      -4.240   3.357  13.393  1.00  0.00     0.056 A 
HETATM    2  C8  UNL     1      -3.259   3.962  14.297  1.00  0.00     0.087 A 
HETATM    3  N2  UNL     1      -2.828   3.429  15.377  1.00  0.00    -0.315 N 
ATOM      4  H2  UNL     1      -2.142   3.905  15.964  1.00  0.00     0.185 HD
HETATM    5  N3  UNL     1      -3.326   2.176  15.724  1.00  0.00    -0.295 N 
ATOM      6  H3  UNL     1      -2.974   1.761  16.587  1.00  0.00     0.187 HD
HETATM    7  C9  UNL     1      -4.183   1.495  15.061  1.00  0.00     0.106 A 
HETATM    8  C10 UNL     1      -4.634   0.188  15.522  1.00  0.00     0.114 C 
HETATM    9  N4  UNL     1      -4.972  -0.856  15.892  1.00  0.00    -0.190 NA
HETATM   10  C11 UNL     1      -4.735   2.022  13.813  1.00  0.00     0.082 A 
ENDROOT
BRANCH   1  11
HETATM   11  C6  UNL     1      -5.398   4.371  13.235  1.00  0.00     0.188 C 
BRANCH  11  12
HETATM   12  O1  UNL     1      -5.101   5.411  12.514  1.00  0.00    -0.326 OA
BRANCH  12  13
HETATM   13  C5  UNL     1      -4.794   6.444  11.817  1.00  0.00     0.210 C 
HETATM   14  S1  UNL     1      -3.475   7.427  12.094  1.00  0.00    -0.033 SA
BRANCH  13  15
HETATM   15  N1  UNL     1      -5.586   6.864  10.691  1.00  0.00    -0.353 N 
ATOM     16  H1  UNL     1      -5.287   6.577   9.760  1.00  0.00     0.163 HD
BRANCH  15  17
HETATM   17  C2  UNL     1      -6.775   7.665  10.800  1.00  0.00     0.022 C 
HETATM   18  C1  UNL     1      -6.366   9.121  10.871  1.00  0.00     0.037 C 
HETATM   19  C3  UNL     1      -7.547   7.296  12.062  1.00  0.00     0.037 C 
HETATM   20  C4  UNL     1      -7.655   7.417   9.579  1.00  0.00     0.037 C 
ENDBRANCH  15  17
ENDBRANCH  13  15
ENDBRANCH  12  13
ENDBRANCH  11  12
ENDBRANCH   1  11
TORSDOF 5
ENDMDL
MODEL 5
REMARK VINA RESULT: -5.895410529      3.711      6.223
REMARK  5 active torsions:
REMARK  status: ('A' for Active; 'I' for Inactive)
REMARK    1  A    between atoms: C2_2  and  N1_5 
REMARK    2  A    between atoms: N1_5  and  C5_7 
REMARK    3  A    between atoms: C5_7  and  O1_9 
REMARK    4  A    between atoms: O1_9  and  C6_10 
REMARK    5  A    between atoms: C6_10  and  C7_11 
ROOT
HETATM    1  C7  UNL     1      -4.231   3.359  13.395  1.00  0.00     0.056 A 
HETATM    2  C8  UNL     1      -3.289   3.976  14.331  1.00  0.00     0.087 A 
HETATM    3  N2  UNL     1      -2.875   3.442  15.418  1.00  0.00    -0.315 N 
ATOM      4  H2  UNL     1      -2.216   3.927  16.027  1.00  0.00     0.185 HD
HETATM    5  N3  UNL     1      -3.354   2.175  15.738  1.00  0.00    -0.295 N 
ATOM      6  H3  UNL     1      -3.017   1.759  16.606  1.00  0.00     0.187 HD
HETATM    7  C9  UNL     1      -4.178   1.482  15.046  1.00  0.00     0.106 A 
HETATM    8  C10 UNL     1      -4.611   0.160  15.482  1.00  0.00     0.114 C 
HETATM    9  N4  UNL     1      -4.936  -0.894  15.832  1.00  0.00    -0.190 NA
HETATM   10  C11 UNL     1      -4.707   2.009  13.788  1.00  0.00     0.082 A 
ENDROOT
BRANCH   1  11
HETATM   11  C6  UNL     1      -5.406   4.349  13.215  1.00  0.00     0.188 C 
BRANCH  11  12
HETATM   12  O1  UNL     1      -5.121   5.389  12.491  1.00  0.00    -0.326 OA
BRANCH  12  13
HETATM   13  C5  UNL     1      -4.847   6.430  11.790  1.00  0.00     0.210 C 
HETATM   14  S1  UNL     1      -3.543   7.437  12.044  1.00  0.00    -0.033 SA
BRANCH  13  15
HETATM   15  N1  UNL     1      -5.670   6.838  10.682  1.00  0.00    -0.353 N 
ATOM     16  H1  UNL     1      -5.414   6.513   9.750  1.00  0.00     0.163 HD
BRANCH  15  17
HETATM   17  C2  UNL     1      -6.832   7.675  10.810  1.00  0.00     0.022 C 
HETATM   18  C1  UNL     1      -7.708   7.465   9.594  1.00  0.00     0.037 C 
HETATM   19  C3  UNL     1      -6.420   9.141  10.889  1.00  0.00     0.037 C 
HETATM   20  C4  UNL     1      -7.583   7.291  12.081  1.00  0.00     0.037 C 
ENDBRANCH  15  17
ENDBRANCH  13  15
ENDBRANCH  12  13
ENDBRANCH  11  12
ENDBRANCH   1  11
TORSDOF 5
ENDMDL
