MODEL 1
REMARK VINA RESULT: -6.715241147      0.000      0.000
REMARK  7 active torsions:
REMARK  status: ('A' for Active; 'I' for Inactive)
REMARK    1  A    between atoms: C2_2  and  O2_4 
REMARK    2  A    between atoms: O2_4  and  C3_5 
REMARK    3  A    between atoms: C5_7  and  O3_8 
REMARK    4  A    between atoms: C5_7  and  C13_22 
REMARK    5  A    between atoms: O3_8  and  C6_9 
REMARK    6  A    between atoms: C9_13  and  C10_14 
REMARK    7  A    between atoms: C12_17  and  N1_18 
ROOT
HETATM    1  C3  UNL     1      -4.133   2.176  13.555  1.00  0.00     0.142 C 
HETATM    2  C4  UNL     1      -4.597   0.987  14.398  1.00  0.00     0.072 C 
HETATM    3  C5  UNL     1      -4.914   1.660  15.711  1.00  0.00     0.082 C 
HETATM    4  C8  UNL     1      -3.692   2.590  15.813  1.00  0.00     0.050 C 
HETATM    5  C9  UNL     1      -3.982   3.342  14.503  1.00  0.00     0.058 C 
ENDROOT
BRANCH   1   6
HETATM    6  O2  UNL     1      -2.984   1.899  12.820  1.00  0.00    -0.316 OA
BRANCH   6   7
HETATM    7  C2  UNL     1      -2.359   2.826  12.000  1.00  0.00     0.255 C 
HETATM    8  C1  UNL     1      -3.092   3.679  11.028  1.00  0.00     0.126 C 
HETATM    9  O1  UNL     1      -1.111   2.933  12.103  1.00  0.00    -0.266 OA
ENDBRANCH   6   7
ENDBRANCH   1   6
BRANCH   5  10
HETATM   10  C10 UNL     1      -5.362   3.864  14.782  1.00  0.00     0.120 C 
HETATM   11  F1  UNL     1      -5.756   3.681  16.079  1.00  0.00    -0.242 F 
HETATM   12  C11 UNL     1      -6.403   3.619  13.751  1.00  0.00     0.078 C 
HETATM   13  C12 UNL     1      -6.382   5.109  13.429  1.00  0.00     0.196 C 
HETATM   14  C13 UNL     1      -5.211   5.336  14.369  1.00  0.00     0.091 C 
BRANCH  13  15
HETATM   15  N1  UNL     1      -7.544   5.829  13.929  1.00  0.00    -0.074 N 
ATOM     16  H13 UNL     1      -7.660   6.715  13.437  1.00  0.00     0.274 HD
ATOM     17  H12 UNL     1      -8.406   5.363  13.646  1.00  0.00     0.274 HD
ATOM     18  H11 UNL     1      -7.529   5.977  14.938  1.00  0.00     0.274 HD
ENDBRANCH  13  15
ENDBRANCH   5  10
BRANCH   3  19
HETATM   19  O3  UNL     1      -5.044   0.833  16.791  1.00  0.00    -0.310 OA
BRANCH  19  20
HETATM   20  C6  UNL     1      -6.161   0.180  17.222  1.00  0.00     0.255 C 
HETATM   21  C7  UNL     1      -7.457   0.880  17.204  1.00  0.00     0.126 C 
HETATM   22  O4  UNL     1      -6.031  -1.004  17.620  1.00  0.00    -0.266 OA
ENDBRANCH  19  20
ENDBRANCH   3  19
TORSDOF 7
ENDMDL
MODEL 2
REMARK VINA RESULT: -6.434737859      2.966      3.940
REMARK  7 active torsions:
REMARK  status: ('A' for Active; 'I' for Inactive)
REMARK    1  A    between atoms: C2_2  and  O2_4 
REMARK    2  A    between atoms: O2_4  and  C3_5 
REMARK    3  A    between atoms: C5_7  and  O3_8 
REMARK    4  A    between atoms: C5_7  and  C13_22 
REMARK    5  A    between atoms: O3_8  and  C6_9 
REMARK    6  A    between atoms: C9_13  and  C10_14 
REMARK    7  A    between atoms: C12_17  and  N1_18 
ROOT
HETATM    1  C3  UNL     1      -6.035   5.003  14.002  1.00  0.00     0.142 C 
HETATM    2  C4  UNL     1      -6.436   4.766  15.459  1.00  0.00     0.072 C 
HETATM    3  C5  UNL     1      -5.896   3.375  15.692  1.00  0.00     0.082 C 
HETATM    4  C8  UNL     1      -6.338   2.715  14.374  1.00  0.00     0.050 C 
HETATM    5  C9  UNL     1      -5.550   3.676  13.468  1.00  0.00     0.058 C 
ENDROOT
BRANCH   1   6
HETATM    6  O2  UNL     1      -7.058   5.570  13.248  1.00  0.00    -0.316 OA
BRANCH   6   7
HETATM    7  C2  UNL     1      -6.866   6.627  12.372  1.00  0.00     0.255 C 
HETATM    8  C1  UNL     1      -5.557   6.930  11.735  1.00  0.00     0.126 C 
HETATM    9  O1  UNL     1      -7.862   7.351  12.120  1.00  0.00    -0.266 OA
ENDBRANCH   6   7
ENDBRANCH   1   6
BRANCH   5  10
HETATM   10  C10 UNL     1      -4.158   3.473  13.993  1.00  0.00     0.120 C 
HETATM   11  F1  UNL     1      -4.037   2.369  14.791  1.00  0.00    -0.242 F 
HETATM   12  C11 UNL     1      -3.419   4.680  14.446  1.00  0.00     0.078 C 
HETATM   13  C12 UNL     1      -2.509   4.533  13.231  1.00  0.00     0.196 C 
HETATM   14  C13 UNL     1      -3.356   3.397  12.685  1.00  0.00     0.091 C 
BRANCH  13  15
HETATM   15  N1  UNL     1      -1.183   4.029  13.556  1.00  0.00    -0.074 N 
ATOM     16  H13 UNL     1      -0.687   3.746  12.710  1.00  0.00     0.274 HD
ATOM     17  H12 UNL     1      -0.573   4.787  13.864  1.00  0.00     0.274 HD
ATOM     18  H11 UNL     1      -1.190   3.272  14.239  1.00  0.00     0.274 HD
ENDBRANCH  13  15
ENDBRANCH   5  10
BRANCH   3  19
HETATM   19  O3  UNL     1      -6.373   2.726  16.797  1.00  0.00    -0.310 OA
BRANCH  19  20
HETATM   20  C6  UNL     1      -6.217   1.414  17.134  1.00  0.00     0.255 C 
HETATM   21  C7  UNL     1      -7.409   0.560  17.281  1.00  0.00     0.126 C 
HETATM   22  O4  UNL     1      -5.048   0.989  17.307  1.00  0.00    -0.266 OA
ENDBRANCH  19  20
ENDBRANCH   3  19
TORSDOF 7
ENDMDL
MODEL 3
REMARK VINA RESULT: -6.217283100      3.071      5.244
REMARK  7 active torsions:
REMARK  status: ('A' for Active; 'I' for Inactive)
REMARK    1  A    between atoms: C2_2  and  O2_4 
REMARK    2  A    between atoms: O2_4  and  C3_5 
REMARK    3  A    between atoms: C5_7  and  O3_8 
REMARK    4  A    between atoms: C5_7  and  C13_22 
REMARK    5  A    between atoms: O3_8  and  C6_9 
REMARK    6  A    between atoms: C9_13  and  C10_14 
REMARK    7  A    between atoms: C12_17  and  N1_18 
ROOT
HETATM    1  C3  UNL     1      -4.742   2.694  14.218  1.00  0.00     0.142 C 
HETATM    2  C4  UNL     1      -5.892   3.216  13.355  1.00  0.00     0.072 C 
HETATM    3  C5  UNL     1      -5.842   4.695  13.655  1.00  0.00     0.082 C 
HETATM    4  C8  UNL     1      -5.635   4.630  15.179  1.00  0.00     0.050 C 
HETATM    5  C9  UNL     1      -4.317   3.841  15.105  1.00  0.00     0.058 C 
ENDROOT
BRANCH   1   6
HETATM    6  O2  UNL     1      -5.075   1.539  14.918  1.00  0.00    -0.316 OA
BRANCH   6   7
HETATM    7  C2  UNL     1      -4.660   1.285  16.216  1.00  0.00     0.255 C 
HETATM    8  C1  UNL     1      -5.568   1.358  17.391  1.00  0.00     0.126 C 
HETATM    9  O1  UNL     1      -3.453   0.981  16.382  1.00  0.00    -0.266 OA
ENDBRANCH   6   7
ENDBRANCH   1   6
BRANCH   5  10
HETATM   10  C10 UNL     1      -3.486   4.765  14.262  1.00  0.00     0.120 C 
HETATM   11  F1  UNL     1      -3.879   6.073  14.347  1.00  0.00    -0.242 F 
HETATM   12  C11 UNL     1      -3.107   4.292  12.906  1.00  0.00     0.078 C 
HETATM   13  C12 UNL     1      -1.669   4.160  13.395  1.00  0.00     0.196 C 
HETATM   14  C13 UNL     1      -2.080   4.491  14.819  1.00  0.00     0.091 C 
BRANCH  13  15
HETATM   15  N1  UNL     1      -0.786   5.204  12.896  1.00  0.00    -0.074 N 
ATOM     16  H13 UNL     1      -1.188   6.126  13.063  1.00  0.00     0.274 HD
ATOM     17  H12 UNL     1       0.051   5.276  13.475  1.00  0.00     0.274 HD
ATOM     18  H11 UNL     1      -0.536   5.092  11.914  1.00  0.00     0.274 HD
ENDBRANCH  13  15
ENDBRANCH   5  10
BRANCH   3  19
HETATM   19  O3  UNL     1      -6.947   5.416  13.300  1.00  0.00    -0.310 OA
BRANCH  19  20
HETATM   20  C6  UNL     1      -7.007   6.540  12.531  1.00  0.00     0.255 C 
HETATM   21  C7  UNL     1      -5.813   6.964  11.779  1.00  0.00     0.126 C 
HETATM   22  O4  UNL     1      -8.092   7.172  12.499  1.00  0.00    -0.266 OA
ENDBRANCH  19  20
ENDBRANCH   3  19
TORSDOF 7
ENDMDL
MODEL 4
REMARK VINA RESULT: -6.055208187      2.229      2.603
REMARK  7 active torsions:
REMARK  status: ('A' for Active; 'I' for Inactive)
REMARK    1  A    between atoms: C2_2  and  O2_4 
REMARK    2  A    between atoms: O2_4  and  C3_5 
REMARK    3  A    between atoms: C5_7  and  O3_8 
REMARK    4  A    between atoms: C5_7  and  C13_22 
REMARK    5  A    between atoms: O3_8  and  C6_9 
REMARK    6  A    between atoms: C9_13  and  C10_14 
REMARK    7  A    between atoms: C12_17  and  N1_18 
ROOT
HETATM    1  C3  UNL     1      -5.378   3.007  13.767  1.00  0.00     0.142 C 
HETATM    2  C4  UNL     1      -6.201   2.779  15.036  1.00  0.00     0.072 C 
HETATM    3  C5  UNL     1      -5.114   2.537  16.055  1.00  0.00     0.082 C 
HETATM    4  C8  UNL     1      -4.203   1.611  15.229  1.00  0.00     0.050 C 
HETATM    5  C9  UNL     1      -3.954   2.630  14.105  1.00  0.00     0.058 C 
ENDROOT
BRANCH   1   6
HETATM    6  O2  UNL     1      -5.889   2.329  12.664  1.00  0.00    -0.316 OA
BRANCH   6   7
HETATM    7  C2  UNL     1      -5.094   1.727  11.701  1.00  0.00     0.255 C 
HETATM    8  C1  UNL     1      -4.361   2.489  10.657  1.00  0.00     0.126 C 
HETATM    9  O1  UNL     1      -5.006   0.474  11.734  1.00  0.00    -0.266 OA
ENDBRANCH   6   7
ENDBRANCH   1   6
BRANCH   5  10
HETATM   10  C10 UNL     1      -3.372   3.770  14.889  1.00  0.00     0.120 C 
HETATM   11  F1  UNL     1      -2.815   3.381  16.076  1.00  0.00    -0.242 F 
HETATM   12  C11 UNL     1      -4.146   5.037  14.924  1.00  0.00     0.078 C 
HETATM   13  C12 UNL     1      -3.077   5.674  14.044  1.00  0.00     0.196 C 
HETATM   14  C13 UNL     1      -2.366   4.342  13.877  1.00  0.00     0.091 C 
BRANCH  13  15
HETATM   15  N1  UNL     1      -2.206   6.595  14.760  1.00  0.00    -0.074 N 
ATOM     16  H13 UNL     1      -2.200   7.510  14.309  1.00  0.00     0.274 HD
ATOM     17  H12 UNL     1      -2.613   6.851  15.659  1.00  0.00     0.274 HD
ATOM     18  H11 UNL     1      -1.255   6.246  14.881  1.00  0.00     0.274 HD
ENDBRANCH  13  15
ENDBRANCH   5  10
BRANCH   3  19
HETATM   19  O3  UNL     1      -5.515   1.973  17.234  1.00  0.00    -0.310 OA
BRANCH  19  20
HETATM   20  C6  UNL     1      -6.117   0.765  17.428  1.00  0.00     0.255 C 
HETATM   21  C7  UNL     1      -7.573   0.646  17.240  1.00  0.00     0.126 C 
HETATM   22  O4  UNL     1      -5.391  -0.204  17.762  1.00  0.00    -0.266 OA
ENDBRANCH  19  20
ENDBRANCH   3  19
TORSDOF 7
ENDMDL
MODEL 5
REMARK VINA RESULT: -6.023933464      2.977      5.436
REMARK  7 active torsions:
REMARK  status: ('A' for Active; 'I' for Inactive)
REMARK    1  A    between atoms: C2_2  and  O2_4 
REMARK    2  A    between atoms: O2_4  and  C3_5 
REMARK    3  A    between atoms: C5_7  and  O3_8 
REMARK    4  A    between atoms: C5_7  and  C13_22 
REMARK    5  A    between atoms: O3_8  and  C6_9 
REMARK    6  A    between atoms: C9_13  and  C10_14 
REMARK    7  A    between atoms: C12_17  and  N1_18 
ROOT
HETATM    1  C3  UNL     1      -4.886   3.207  14.892  1.00  0.00     0.142 C 
HETATM    2  C4  UNL     1      -6.080   3.488  13.978  1.00  0.00     0.072 C 
HETATM    3  C5  UNL     1      -5.817   4.920  13.578  1.00  0.00     0.082 C 
HETATM    4  C8  UNL     1      -5.403   5.487  14.947  1.00  0.00     0.050 C 
HETATM    5  C9  UNL     1      -4.209   4.536  15.134  1.00  0.00     0.058 C 
ENDROOT
BRANCH   1   6
HETATM    6  O2  UNL     1      -5.246   2.541  16.059  1.00  0.00    -0.316 OA
BRANCH   6   7
HETATM    7  C2  UNL     1      -4.763   1.288  16.404  1.00  0.00     0.255 C 
HETATM    8  C1  UNL     1      -5.630   0.191  16.910  1.00  0.00     0.126 C 
HETATM    9  O1  UNL     1      -3.528   1.095  16.274  1.00  0.00    -0.266 OA
ENDBRANCH   6   7
ENDBRANCH   1   6
BRANCH   5  10
HETATM   10  C10 UNL     1      -3.407   4.852  13.905  1.00  0.00     0.120 C 
HETATM   11  F1  UNL     1      -3.831   5.981  13.260  1.00  0.00    -0.242 F 
HETATM   12  C11 UNL     1      -3.026   3.714  13.030  1.00  0.00     0.078 C 
HETATM   13  C12 UNL     1      -1.582   3.897  13.483  1.00  0.00     0.196 C 
HETATM   14  C13 UNL     1      -1.991   4.955  14.493  1.00  0.00     0.091 C 
BRANCH  13  15
HETATM   15  N1  UNL     1      -0.728   4.504  12.473  1.00  0.00    -0.074 N 
ATOM     16  H13 UNL     1      -0.362   3.796  11.835  1.00  0.00     0.274 HD
ATOM     17  H12 UNL     1      -1.281   5.055  11.816  1.00  0.00     0.274 HD
ATOM     18  H11 UNL     1       0.030   5.064  12.862  1.00  0.00     0.274 HD
ENDBRANCH  13  15
ENDBRANCH   5  10
BRANCH   3  19
HETATM   19  O3  UNL     1      -6.872   5.589  13.023  1.00  0.00    -0.310 OA
BRANCH  19  20
HETATM   20  C6  UNL     1      -6.857   6.464  11.977  1.00  0.00     0.255 C 
HETATM   21  C7  UNL     1      -7.744   7.640  12.008  1.00  0.00     0.126 C 
HETATM   22  O4  UNL     1      -6.076   6.224  11.023  1.00  0.00    -0.266 OA
ENDBRANCH  19  20
ENDBRANCH   3  19
TORSDOF 7
ENDMDL
