MODEL 1
REMARK VINA RESULT: -7.396012083      0.000      0.000
REMARK  3 active torsions:
REMARK  status: ('A' for Active; 'I' for Inactive)
REMARK    1  A    between atoms: O1_2  and  C2_3 
REMARK    2  A    between atoms: C5_7  and  O3_8 
REMARK    3  A    between atoms: C11_17  and  C12_18 
ROOT
HETATM    1  C2  UNL     1      -4.556   1.126  16.064  1.00  0.00     0.220 A 
HETATM    2  O2  UNL     1      -4.301   2.383  15.918  1.00  0.00    -0.286 OA
HETATM    3  C3  UNL     1      -4.156   2.734  14.686  1.00  0.00     0.112 A 
HETATM    4  C4  UNL     1      -4.330   1.601  13.922  1.00  0.00     0.015 A 
HETATM    5  C5  UNL     1      -4.590   0.556  14.807  1.00  0.00     0.133 A 
HETATM    6  C6  UNL     1      -4.229   1.654  12.439  1.00  0.00     0.074 C 
HETATM    7  C7  UNL     1      -3.305   2.792  12.105  1.00  0.00     0.279 C 
HETATM    8  N1  UNL     1      -3.782   4.022  12.668  1.00  0.00     0.115 N 
HETATM    9  C8  UNL     1      -5.026   4.444  12.111  1.00  0.00     0.311 C 
HETATM   10  C9  UNL     1      -5.389   5.623  13.024  1.00  0.00     0.201 C 
HETATM   11  F1  UNL     1      -6.744   5.837  12.953  1.00  0.00    -0.247 F 
HETATM   12  C10 UNL     1      -4.983   5.051  14.377  1.00  0.00     0.096 C 
HETATM   13  C11 UNL     1      -3.859   4.062  14.077  1.00  0.00     0.270 C 
ENDROOT
BRANCH  13  14
HETATM   14  C12 UNL     1      -2.630   4.629  14.694  1.00  0.00     0.168 C 
HETATM   15  C13 UNL     1      -2.331   6.086  14.749  1.00  0.00     0.094 C 
HETATM   16  O4  UNL     1      -1.826   3.866  15.182  1.00  0.00    -0.295 OA
ENDBRANCH  13  14
BRANCH   1  17
HETATM   17  O1  UNL     1      -4.776   0.369  17.210  1.00  0.00    -0.333 OA
HETATM   18  C1  UNL     1      -6.045   0.016  17.686  1.00  0.00     0.212 C 
ENDBRANCH   1  17
BRANCH   5  19
HETATM   19  O3  UNL     1      -4.828  -0.766  14.473  1.00  0.00    -0.356 OA
ATOM     20  H3  UNL     1      -5.155  -1.115  13.652  1.00  0.00     0.218 HD
ENDBRANCH   5  19
TORSDOF 3
ENDMDL
MODEL 2
REMARK VINA RESULT: -6.867738902      1.856      3.016
REMARK  3 active torsions:
REMARK  status: ('A' for Active; 'I' for Inactive)
REMARK    1  A    between atoms: O1_2  and  C2_3 
REMARK    2  A    between atoms: C5_7  and  O3_8 
REMARK    3  A    between atoms: C11_17  and  C12_18 
ROOT
HETATM    1  C2  UNL     1      -4.877   1.549  16.399  1.00  0.00     0.220 A 
HETATM    2  O2  UNL     1      -4.016   1.932  15.516  1.00  0.00    -0.286 OA
HETATM    3  C3  UNL     1      -4.361   3.015  14.906  1.00  0.00     0.112 A 
HETATM    4  C4  UNL     1      -5.574   3.403  15.430  1.00  0.00     0.015 A 
HETATM    5  C5  UNL     1      -5.914   2.459  16.397  1.00  0.00     0.133 A 
HETATM    6  C6  UNL     1      -6.262   4.629  14.943  1.00  0.00     0.074 C 
HETATM    7  C7  UNL     1      -5.823   4.842  13.522  1.00  0.00     0.279 C 
HETATM    8  N1  UNL     1      -4.395   4.940  13.435  1.00  0.00     0.115 N 
HETATM    9  C8  UNL     1      -3.874   6.087  14.106  1.00  0.00     0.311 C 
HETATM   10  C9  UNL     1      -2.363   5.824  14.040  1.00  0.00     0.201 C 
HETATM   11  F1  UNL     1      -1.745   6.547  15.030  1.00  0.00    -0.247 F 
HETATM   12  C10 UNL     1      -2.337   4.330  14.337  1.00  0.00     0.096 C 
HETATM   13  C11 UNL     1      -3.675   3.793  13.835  1.00  0.00     0.270 C 
ENDROOT
BRANCH  13  14
HETATM   14  C12 UNL     1      -3.361   2.895  12.691  1.00  0.00     0.168 C 
HETATM   15  C13 UNL     1      -4.390   2.130  11.935  1.00  0.00     0.094 C 
HETATM   16  O4  UNL     1      -2.204   2.778  12.353  1.00  0.00    -0.295 OA
ENDBRANCH  13  14
BRANCH   1  17
HETATM   17  O1  UNL     1      -4.876   0.452  17.253  1.00  0.00    -0.333 OA
HETATM   18  C1  UNL     1      -6.024  -0.274  17.599  1.00  0.00     0.212 C 
ENDBRANCH   1  17
BRANCH   5  19
HETATM   19  O3  UNL     1      -7.058   2.455  17.177  1.00  0.00    -0.356 OA
ATOM     20  H3  UNL     1      -7.676   1.746  17.310  1.00  0.00     0.218 HD
ENDBRANCH   5  19
TORSDOF 3
ENDMDL
MODEL 3
REMARK VINA RESULT: -6.428802160      1.365      1.768
REMARK  3 active torsions:
REMARK  status: ('A' for Active; 'I' for Inactive)
REMARK    1  A    between atoms: O1_2  and  C2_3 
REMARK    2  A    between atoms: C5_7  and  O3_8 
REMARK    3  A    between atoms: C11_17  and  C12_18 
ROOT
HETATM    1  C2  UNL     1      -4.573   1.122  13.865  1.00  0.00     0.220 A 
HETATM    2  O2  UNL     1      -4.237   2.342  14.121  1.00  0.00    -0.286 OA
HETATM    3  C3  UNL     1      -4.111   3.067  13.062  1.00  0.00     0.112 A 
HETATM    4  C4  UNL     1      -4.391   2.258  11.984  1.00  0.00     0.015 A 
HETATM    5  C5  UNL     1      -4.690   0.997  12.496  1.00  0.00     0.133 A 
HETATM    6  C6  UNL     1      -4.338   2.786  10.595  1.00  0.00     0.074 C 
HETATM    7  C7  UNL     1      -3.350   3.919  10.595  1.00  0.00     0.279 C 
HETATM    8  N1  UNL     1      -3.720   4.922  11.552  1.00  0.00     0.115 N 
HETATM    9  C8  UNL     1      -4.952   5.569  11.233  1.00  0.00     0.311 C 
HETATM   10  C9  UNL     1      -5.200   6.403  12.497  1.00  0.00     0.201 C 
HETATM   11  F1  UNL     1      -6.538   6.701  12.574  1.00  0.00    -0.247 F 
HETATM   12  C10 UNL     1      -4.787   5.399  13.566  1.00  0.00     0.096 C 
HETATM   13  C11 UNL     1      -3.745   4.504  12.900  1.00  0.00     0.270 C 
ENDROOT
BRANCH  13  14
HETATM   14  C12 UNL     1      -2.459   4.771  13.599  1.00  0.00     0.168 C 
HETATM   15  C13 UNL     1      -2.200   5.988  14.415  1.00  0.00     0.094 C 
HETATM   16  O4  UNL     1      -1.570   3.954  13.501  1.00  0.00    -0.295 OA
ENDBRANCH  13  14
BRANCH   1  17
HETATM   17  O1  UNL     1      -4.804   0.045  14.715  1.00  0.00    -0.333 OA
HETATM   18  C1  UNL     1      -4.904   0.152  16.108  1.00  0.00     0.212 C 
ENDBRANCH   1  17
BRANCH   5  19
HETATM   19  O3  UNL     1      -5.031  -0.129  11.765  1.00  0.00    -0.356 OA
ATOM     20  H3  UNL     1      -4.880  -1.041  11.986  1.00  0.00     0.218 HD
ENDBRANCH   5  19
TORSDOF 3
ENDMDL
MODEL 4
REMARK VINA RESULT: -6.426534132      1.988      3.194
REMARK  3 active torsions:
REMARK  status: ('A' for Active; 'I' for Inactive)
REMARK    1  A    between atoms: O1_2  and  C2_3 
REMARK    2  A    between atoms: C5_7  and  O3_8 
REMARK    3  A    between atoms: C11_17  and  C12_18 
ROOT
HETATM    1  C2  UNL     1      -5.100   1.368  16.183  1.00  0.00     0.220 A 
HETATM    2  O2  UNL     1      -4.482   1.739  15.113  1.00  0.00    -0.286 OA
HETATM    3  C3  UNL     1      -4.840   2.906  14.698  1.00  0.00     0.112 A 
HETATM    4  C4  UNL     1      -5.795   3.371  15.575  1.00  0.00     0.015 A 
HETATM    5  C5  UNL     1      -5.968   2.380  16.539  1.00  0.00     0.133 A 
HETATM    6  C6  UNL     1      -6.425   4.704  15.386  1.00  0.00     0.074 C 
HETATM    7  C7  UNL     1      -6.381   5.004  13.913  1.00  0.00     0.279 C 
HETATM    8  N1  UNL     1      -5.035   4.956  13.420  1.00  0.00     0.115 N 
HETATM    9  C8  UNL     1      -4.201   5.970  13.979  1.00  0.00     0.311 C 
HETATM   10  C9  UNL     1      -2.818   5.554  13.459  1.00  0.00     0.201 C 
HETATM   11  F1  UNL     1      -1.857   6.107  14.268  1.00  0.00    -0.247 F 
HETATM   12  C10 UNL     1      -2.905   4.044  13.644  1.00  0.00     0.096 C 
HETATM   13  C11 UNL     1      -4.388   3.705  13.522  1.00  0.00     0.270 C 
ENDROOT
BRANCH  13  14
HETATM   14  C12 UNL     1      -4.529   2.893  12.284  1.00  0.00     0.168 C 
HETATM   15  C13 UNL     1      -3.555   2.926  11.160  1.00  0.00     0.094 C 
HETATM   16  O4  UNL     1      -5.489   2.161  12.182  1.00  0.00    -0.295 OA
ENDBRANCH  13  14
BRANCH   1  17
HETATM   17  O1  UNL     1      -5.002   0.200  16.932  1.00  0.00    -0.333 OA
HETATM   18  C1  UNL     1      -6.079  -0.395  17.604  1.00  0.00     0.212 C 
ENDBRANCH   1  17
BRANCH   5  19
HETATM   19  O3  UNL     1      -6.836   2.424  17.618  1.00  0.00    -0.356 OA
ATOM     20  H3  UNL     1      -7.762   2.215  17.636  1.00  0.00     0.218 HD
ENDBRANCH   5  19
TORSDOF 3
ENDMDL
MODEL 5
REMARK VINA RESULT: -6.196806253      2.016      3.029
REMARK  3 active torsions:
REMARK  status: ('A' for Active; 'I' for Inactive)
REMARK    1  A    between atoms: O1_2  and  C2_3 
REMARK    2  A    between atoms: C5_7  and  O3_8 
REMARK    3  A    between atoms: C11_17  and  C12_18 
ROOT
HETATM    1  C2  UNL     1      -4.203   1.913  15.761  1.00  0.00     0.220 A 
HETATM    2  O2  UNL     1      -3.316   2.493  15.024  1.00  0.00    -0.286 OA
HETATM    3  C3  UNL     1      -3.736   3.588  14.489  1.00  0.00     0.112 A 
HETATM    4  C4  UNL     1      -5.037   3.768  14.906  1.00  0.00     0.015 A 
HETATM    5  C5  UNL     1      -5.346   2.687  15.730  1.00  0.00     0.133 A 
HETATM    6  C6  UNL     1      -5.826   4.949  14.467  1.00  0.00     0.074 C 
HETATM    7  C7  UNL     1      -5.278   5.371  13.133  1.00  0.00     0.279 C 
HETATM    8  N1  UNL     1      -3.873   5.648  13.220  1.00  0.00     0.115 N 
HETATM    9  C8  UNL     1      -3.577   6.766  14.056  1.00  0.00     0.311 C 
HETATM   10  C9  UNL     1      -2.046   6.695  14.137  1.00  0.00     0.201 C 
HETATM   11  F1  UNL     1      -1.631   7.371  15.259  1.00  0.00    -0.247 F 
HETATM   12  C10 UNL     1      -1.855   5.191  14.287  1.00  0.00     0.096 C 
HETATM   13  C11 UNL     1      -3.054   4.558  13.584  1.00  0.00     0.270 C 
ENDROOT
BRANCH  13  14
HETATM   14  C12 UNL     1      -2.511   3.838  12.401  1.00  0.00     0.168 C 
HETATM   15  C13 UNL     1      -3.265   3.648  11.133  1.00  0.00     0.094 C 
HETATM   16  O4  UNL     1      -1.391   3.380  12.470  1.00  0.00    -0.295 OA
ENDBRANCH  13  14
BRANCH   1  17
HETATM   17  O1  UNL     1      -4.145   0.735  16.497  1.00  0.00    -0.333 OA
HETATM   18  C1  UNL     1      -4.528  -0.519  16.002  1.00  0.00     0.212 C 
ENDBRANCH   1  17
BRANCH   5  19
HETATM   19  O3  UNL     1      -6.552   2.459  16.370  1.00  0.00    -0.356 OA
ATOM     20  H3  UNL     1      -7.366   2.143  15.995  1.00  0.00     0.218 HD
ENDBRANCH   5  19
TORSDOF 3
ENDMDL
